MODEL 1
REMARK VINA RESULT:      -6.4      0.000      0.000
REMARK  Name = CyclosporineA.pdb
REMARK  40 active torsions:
REMARK  status: ('A' for Active; 'I' for Inactive)
REMARK    1  A    between atoms: C1_1  and  C78_78
REMARK    2  A    between atoms: N7_7  and  C8_8
REMARK    3  A    between atoms: C9_9  and  C15_15
REMARK    4  A    between atoms: N11_11  and  C20_20
REMARK    5  A    between atoms: C12_12  and  C21_21
REMARK    6  A    between atoms: N14_14  and  C23_23
REMARK    7  A    between atoms: C15_15  and  C16_16
REMARK    8  A    between atoms: C16_16  and  C17_17
REMARK    9  A    between atoms: C16_16  and  C18_18
REMARK   10  A    between atoms: C21_21  and  C82_82
REMARK   11  A    between atoms: C24_24  and  C25_25
REMARK   12  A    between atoms: C25_25  and  C30_30
REMARK   13  A    between atoms: C25_25  and  C31_31
REMARK   14  A    between atoms: C26_26  and  O27_27
REMARK   15  A    between atoms: N28_28  and  C29_29
REMARK   16  A    between atoms: C32_32  and  C34_34
REMARK   17  A    between atoms: C34_34  and  C35_35
REMARK   18  A    between atoms: C34_34  and  O40_40
REMARK   19  A    between atoms: C35_35  and  C36_36
REMARK   20  A    between atoms: C35_35  and  C41_41
REMARK   21  A    between atoms: C36_36  and  C37_37
REMARK   22  A    between atoms: C38_38  and  C39_39
REMARK   23  A    between atoms: C44_44  and  C45_45
REMARK   24  A    between atoms: C45_45  and  C46_46
REMARK   25  A    between atoms: N49_49  and  C77_77
REMARK   26  A    between atoms: C53_53  and  C57_57
REMARK   27  A    between atoms: C57_57  and  C58_58
REMARK   28  A    between atoms: C58_58  and  C59_59
REMARK   29  A    between atoms: C58_58  and  C76_76
REMARK   30  A    between atoms: C61_61  and  C62_62
REMARK   31  A    between atoms: C62_62  and  C63_63
REMARK   32  A    between atoms: C62_62  and  C64_64
REMARK   33  A    between atoms: N66_66  and  C68_68
REMARK   34  A    between atoms: C67_67  and  C75_75
REMARK   35  A    between atoms: C73_73  and  C74_74
REMARK   36  A    between atoms: C75_75  and  C79_79
REMARK   37  A    between atoms: C79_79  and  C80_80
REMARK   38  A    between atoms: C79_79  and  C81_81
REMARK   39  A    between atoms: C82_82  and  C83_83
REMARK   40  A    between atoms: C82_82  and  C84_84
REMARK                            x       y       z     vdW  Elec       q    Type
REMARK                         _______ _______ _______ _____ _____    ______ ____
ROOT
ATOM      1  C1  UNK     0     -10.041  49.851  23.147  0.00  0.00    +0.000 C 
ATOM      2  C2  UNK     0     -10.778  49.625  21.798  0.00  0.00    +0.000 C 
ATOM      3  N3  UNK     0      -8.643  49.534  22.900  0.00  0.00    +0.000 N 
ATOM      4  C4  UNK     0      -7.605  50.066  23.627  0.00  0.00    +0.000 C 
ATOM      5  O5  UNK     0      -7.765  50.926  24.491  0.00  0.00    +0.000 OA
ATOM      6  C6  UNK     0     -11.509  48.502  21.643  0.00  0.00    +0.000 C 
ATOM      7  N7  UNK     0     -10.619  50.604  20.767  0.00  0.00    +0.000 N 
ATOM      8  C8  UNK     0      -9.872  51.852  21.014  0.00  0.00    +0.000 C 
ATOM      9  C9  UNK     0     -11.174  50.422  19.375  0.00  0.00    +0.000 C 
ATOM     10  C10 UNK     0     -10.198  49.576  18.483  0.00  0.00    +0.000 C 
ATOM     11  N11 UNK     0     -10.752  48.692  17.506  0.00  0.00    +0.000 N 
ATOM     12  C12 UNK     0     -10.009  47.503  16.972  0.00  0.00    +0.000 C 
ATOM     13  C13 UNK     0      -9.579  47.725  15.484  0.00  0.00    +0.000 C 
ATOM     14  N14 UNK     0      -9.396  46.572  14.676  0.00  0.00    +0.000 N 
ATOM     15  C19 UNK     0      -8.865  49.684  18.665  0.00  0.00    +0.000 C 
ATOM     16  C20 UNK     0     -12.135  48.824  17.026  0.00  0.00    +0.000 C 
ATOM     17  C22 UNK     0      -9.446  48.958  14.957  0.00  0.00    +0.000 C 
ATOM     18  C23 UNK     0     -10.496  46.393  13.680  0.00  0.00    +0.000 C 
ATOM     19  C24 UNK     0      -8.016  46.260  14.080  0.00  0.00    +0.000 C 
ATOM     20  C26 UNK     0      -8.050  44.811  13.396  0.00  0.00    +0.000 C 
ATOM     21  N28 UNK     0      -6.739  44.327  12.957  0.00  0.00    +0.000 NA
ATOM     22  C29 UNK     0      -6.398  44.864  11.635  0.00  0.00    +0.000 C 
ATOM     23  C32 UNK     0      -6.533  42.844  13.042  0.00  0.00    +0.000 C 
ATOM     24  C33 UNK     0      -4.995  42.632  13.029  0.00  0.00    +0.000 C 
ATOM     25  O42 UNK     0      -4.383  42.052  12.139  0.00  0.00    +0.000 OA
ATOM     26  N43 UNK     0      -4.393  43.220  14.127  0.00  0.00    +0.000 N 
ATOM     27  C44 UNK     0      -2.966  43.175  14.374  0.00  0.00    +0.000 C 
ATOM     28  C47 UNK     0      -2.595  41.785  14.947  0.00  0.00    +0.000 C 
ATOM     29  C48 UNK     0      -1.701  41.079  14.224  0.00  0.00    +0.000 C 
ATOM     30  N49 UNK     0      -3.161  41.271  16.144  0.00  0.00    +0.000 N 
ATOM     31  C50 UNK     0      -4.221  41.927  16.959  0.00  0.00    +0.000 C 
ATOM     32  C51 UNK     0      -3.737  42.218  18.392  0.00  0.00    +0.000 C 
ATOM     33  N52 UNK     0      -2.374  42.396  18.491  0.00  0.00    +0.000 N 
ATOM     34  C53 UNK     0      -1.752  42.937  19.691  0.00  0.00    +0.000 C 
ATOM     35  C54 UNK     0      -1.980  44.472  19.705  0.00  0.00    +0.000 C 
ATOM     36  N55 UNK     0      -1.844  45.044  20.956  0.00  0.00    +0.000 N 
ATOM     37  O56 UNK     0      -4.499  42.328  19.349  0.00  0.00    +0.000 OA
ATOM     38  O60 UNK     0      -2.205  45.117  18.686  0.00  0.00    +0.000 OA
ATOM     39  C61 UNK     0      -2.145  46.452  21.252  0.00  0.00    +0.000 C 
ATOM     40  C65 UNK     0      -3.692  46.585  21.380  0.00  0.00    +0.000 C 
ATOM     41  N66 UNK     0      -4.327  45.860  22.408  0.00  0.00    +0.000 N 
ATOM     42  C67 UNK     0      -5.818  45.937  22.446  0.00  0.00    +0.000 C 
ATOM     43  C68 UNK     0      -3.651  45.569  23.672  0.00  0.00    +0.000 C 
ATOM     44  O69 UNK     0      -4.350  47.312  20.629  0.00  0.00    +0.000 OA
ATOM     45  C70 UNK     0      -6.190  47.216  23.234  0.00  0.00    +0.000 C 
ATOM     46  N71 UNK     0      -6.185  48.364  22.463  0.00  0.00    +0.000 N 
ATOM     47  O72 UNK     0      -6.362  47.230  24.450  0.00  0.00    +0.000 OA
ATOM     48  C73 UNK     0      -6.204  49.681  23.105  0.00  0.00    +0.000 C 
ATOM     49  C74 UNK     0      -5.755  50.748  22.112  0.00  0.00    +0.000 C 
ATOM     50  C77 UNK     0      -2.942  39.867  16.545  0.00  0.00    +0.000 C 
ATOM     51  C78 UNK     0     -10.551  49.069  24.365  0.00  0.00    +0.000 C 
ATOM     52  H2  UNK     0      -8.427  48.848  22.187  0.00  0.00    +0.000 HD
ATOM     53  H58 UNK     0      -4.956  43.894  14.628  0.00  0.00    +0.000 HD
ATOM     54  H69 UNK     0      -1.903  42.499  17.595  0.00  0.00    +0.000 HD
ATOM     55  H71 UNK     0      -1.926  44.404  21.734  0.00  0.00    +0.000 HD
ATOM     56  H90 UNK     0      -5.689  48.279  21.573  0.00  0.00    +0.000 HD
ENDROOT
BRANCH  39  57
ATOM     57  C62 UNK     0      -1.499  47.491  20.296  0.00  0.00    +0.000 C 
ATOM     58  C63 UNK     0      -1.806  48.924  20.760  0.00  0.00    +0.000 C 
ATOM     59  C64 UNK     0       0.026  47.330  20.224  0.00  0.00    +0.000 C 
ENDBRANCH  39  57
BRANCH  19  60
ATOM     60  C25 UNK     0      -6.819  46.347  15.100  0.00  0.00    +0.000 C 
ATOM     61  C30 UNK     0      -6.158  47.725  15.201  0.00  0.00    +0.000 C 
ATOM     62  C31 UNK     0      -7.093  45.779  16.495  0.00  0.00    +0.000 C 
ENDBRANCH  19  60
BRANCH  20  63
ATOM     63  O27 UNK     0      -8.677  43.885  14.292  0.00  0.00    +0.000 OA
ATOM     64  H34 UNK     0      -8.528  43.010  13.875  0.00  0.00    +0.000 HD
ENDBRANCH  20  63
BRANCH  27  65
ATOM     65  C45 UNK     0      -2.507  44.368  15.231  0.00  0.00    +0.000 C 
ATOM     66  C46 UNK     0      -0.994  44.523  15.288  0.00  0.00    +0.000 C 
ENDBRANCH  27  65
BRANCH  23  67
ATOM     67  C34 UNK     0      -7.262  41.944  11.997  0.00  0.00    +0.000 C 
BRANCH  67  68
ATOM     68  C35 UNK     0      -7.521  40.475  12.455  0.00  0.00    +0.000 C 
ATOM     69  C41 UNK     0      -8.692  39.785  11.749  0.00  0.00    +0.000 C 
BRANCH  68  70
ATOM     70  C36 UNK     0      -7.721  40.444  13.994  0.00  0.00    +0.000 C 
BRANCH  70  71
ATOM     71  C37 UNK     0      -9.168  40.414  14.415  0.00  0.00    +0.000 C 
ATOM     72  C38 UNK     0      -9.583  40.063  15.640  0.00  0.00    +0.000 C 
ATOM     73  C39 UNK     0     -11.017  40.022  16.058  0.00  0.00    +0.000 C 
ENDBRANCH  70  71
ENDBRANCH  68  70
ENDBRANCH  67  68
BRANCH  67  74
ATOM     74  O40 UNK     0      -8.563  42.500  11.700  0.00  0.00    +0.000 OA
ATOM     75  H54 UNK     0      -9.166  41.732  11.636  0.00  0.00    +0.000 HD
ENDBRANCH  67  74
ENDBRANCH  23  67
BRANCH  34  76
ATOM     76  C57 UNK     0      -0.256  42.587  19.681  0.00  0.00    +0.000 C 
BRANCH  76  77
ATOM     77  C58 UNK     0       0.555  43.062  18.459  0.00  0.00    +0.000 C 
ATOM     78  C59 UNK     0       1.514  44.204  18.799  0.00  0.00    +0.000 C 
ATOM     79  C76 UNK     0       1.346  41.884  17.879  0.00  0.00    +0.000 C 
ENDBRANCH  76  77
ENDBRANCH  34  76
BRANCH  12  80
ATOM     80  C21 UNK     0     -10.814  46.187  17.181  0.00  0.00    +0.000 C 
BRANCH  80  81
ATOM     81  C82 UNK     0     -10.434  45.364  18.429  0.00  0.00    +0.000 C 
ATOM     82  C83 UNK     0      -9.345  46.036  19.262  0.00  0.00    +0.000 C 
ATOM     83  C84 UNK     0      -9.966  43.969  18.002  0.00  0.00    +0.000 C 
ENDBRANCH  80  81
ENDBRANCH  12  80
BRANCH  42  84
ATOM     84  C75 UNK     0      -6.449  44.662  23.044  0.00  0.00    +0.000 C 
BRANCH  84  85
ATOM     85  C79 UNK     0      -7.695  44.151  22.292  0.00  0.00    +0.000 C 
ATOM     86  C80 UNK     0      -8.795  43.649  23.227  0.00  0.00    +0.000 C 
ATOM     87  C81 UNK     0      -7.291  43.026  21.333  0.00  0.00    +0.000 C 
ENDBRANCH  84  85
ENDBRANCH  42  84
BRANCH   9  88
ATOM     88  C15 UNK     0     -11.623  51.741  18.680  0.00  0.00    +0.000 C 
BRANCH  88  89
ATOM     89  C16 UNK     0     -10.726  52.154  17.488  0.00  0.00    +0.000 C 
ATOM     90  C17 UNK     0     -11.505  52.338  16.188  0.00  0.00    +0.000 C 
ATOM     91  C18 UNK     0      -9.978  53.446  17.826  0.00  0.00    +0.000 C 
ENDBRANCH  88  89
ENDBRANCH   9  88
TORSDOF 17
ENDMDL
MODEL 2
REMARK VINA RESULT:      -5.5     19.598     27.878
REMARK  Name = CyclosporineA.pdb
REMARK  40 active torsions:
REMARK  status: ('A' for Active; 'I' for Inactive)
REMARK    1  A    between atoms: C1_1  and  C78_78
REMARK    2  A    between atoms: N7_7  and  C8_8
REMARK    3  A    between atoms: C9_9  and  C15_15
REMARK    4  A    between atoms: N11_11  and  C20_20
REMARK    5  A    between atoms: C12_12  and  C21_21
REMARK    6  A    between atoms: N14_14  and  C23_23
REMARK    7  A    between atoms: C15_15  and  C16_16
REMARK    8  A    between atoms: C16_16  and  C17_17
REMARK    9  A    between atoms: C16_16  and  C18_18
REMARK   10  A    between atoms: C21_21  and  C82_82
REMARK   11  A    between atoms: C24_24  and  C25_25
REMARK   12  A    between atoms: C25_25  and  C30_30
REMARK   13  A    between atoms: C25_25  and  C31_31
REMARK   14  A    between atoms: C26_26  and  O27_27
REMARK   15  A    between atoms: N28_28  and  C29_29
REMARK   16  A    between atoms: C32_32  and  C34_34
REMARK   17  A    between atoms: C34_34  and  C35_35
REMARK   18  A    between atoms: C34_34  and  O40_40
REMARK   19  A    between atoms: C35_35  and  C36_36
REMARK   20  A    between atoms: C35_35  and  C41_41
REMARK   21  A    between atoms: C36_36  and  C37_37
REMARK   22  A    between atoms: C38_38  and  C39_39
REMARK   23  A    between atoms: C44_44  and  C45_45
REMARK   24  A    between atoms: C45_45  and  C46_46
REMARK   25  A    between atoms: N49_49  and  C77_77
REMARK   26  A    between atoms: C53_53  and  C57_57
REMARK   27  A    between atoms: C57_57  and  C58_58
REMARK   28  A    between atoms: C58_58  and  C59_59
REMARK   29  A    between atoms: C58_58  and  C76_76
REMARK   30  A    between atoms: C61_61  and  C62_62
REMARK   31  A    between atoms: C62_62  and  C63_63
REMARK   32  A    between atoms: C62_62  and  C64_64
REMARK   33  A    between atoms: N66_66  and  C68_68
REMARK   34  A    between atoms: C67_67  and  C75_75
REMARK   35  A    between atoms: C73_73  and  C74_74
REMARK   36  A    between atoms: C75_75  and  C79_79
REMARK   37  A    between atoms: C79_79  and  C80_80
REMARK   38  A    between atoms: C79_79  and  C81_81
REMARK   39  A    between atoms: C82_82  and  C83_83
REMARK   40  A    between atoms: C82_82  and  C84_84
REMARK                            x       y       z     vdW  Elec       q    Type
REMARK                         _______ _______ _______ _____ _____    ______ ____
ROOT
ATOM      1  C1  UNK     0      18.547  23.547  19.057  0.00  0.00    +0.000 C 
ATOM      2  C2  UNK     0      17.929  24.007  17.708  0.00  0.00    +0.000 C 
ATOM      3  N3  UNK     0      17.689  24.089  20.099  0.00  0.00    +0.000 N 
ATOM      4  C4  UNK     0      17.564  23.529  21.347  0.00  0.00    +0.000 C 
ATOM      5  O5  UNK     0      18.099  22.468  21.660  0.00  0.00    +0.000 OA
ATOM      6  C6  UNK     0      18.510  25.030  17.049  0.00  0.00    +0.000 C 
ATOM      7  N7  UNK     0      16.750  23.344  17.241  0.00  0.00    +0.000 N 
ATOM      8  C8  UNK     0      16.199  22.180  17.960  0.00  0.00    +0.000 C 
ATOM      9  C9  UNK     0      15.988  23.796  16.019  0.00  0.00    +0.000 C 
ATOM     10  C10 UNK     0      14.989  24.955  16.371  0.00  0.00    +0.000 C 
ATOM     11  N11 UNK     0      14.753  25.978  15.400  0.00  0.00    +0.000 N 
ATOM     12  C12 UNK     0      14.261  27.346  15.765  0.00  0.00    +0.000 C 
ATOM     13  C13 UNK     0      12.782  27.559  15.299  0.00  0.00    +0.000 C 
ATOM     14  N14 UNK     0      12.360  28.892  15.046  0.00  0.00    +0.000 N 
ATOM     15  C19 UNK     0      14.390  24.975  17.580  0.00  0.00    +0.000 C 
ATOM     16  C20 UNK     0      15.075  25.795  13.977  0.00  0.00    +0.000 C 
ATOM     17  C22 UNK     0      11.948  26.524  15.080  0.00  0.00    +0.000 C 
ATOM     18  C23 UNK     0      12.207  29.173  13.586  0.00  0.00    +0.000 C 
ATOM     19  C24 UNK     0      11.233  29.515  15.880  0.00  0.00    +0.000 C 
ATOM     20  C26 UNK     0      11.109  31.073  15.523  0.00  0.00    +0.000 C 
ATOM     21  N28 UNK     0      10.192  31.813  16.392  0.00  0.00    +0.000 NA
ATOM     22  C29 UNK     0       8.806  31.671  15.932  0.00  0.00    +0.000 C 
ATOM     23  C32 UNK     0      10.562  33.242  16.658  0.00  0.00    +0.000 C 
ATOM     24  C33 UNK     0       9.786  33.644  17.942  0.00  0.00    +0.000 C 
ATOM     25  O42 UNK     0       8.910  34.500  17.982  0.00  0.00    +0.000 OA
ATOM     26  N43 UNK     0      10.175  32.882  19.029  0.00  0.00    +0.000 N 
ATOM     27  C44 UNK     0       9.620  33.044  20.357  0.00  0.00    +0.000 C 
ATOM     28  C47 UNK     0      10.265  34.283  21.027  0.00  0.00    +0.000 C 
ATOM     29  C48 UNK     0       9.406  35.255  21.399  0.00  0.00    +0.000 C 
ATOM     30  N49 UNK     0      11.665  34.405  21.230  0.00  0.00    +0.000 N 
ATOM     31  C50 UNK     0      12.701  33.438  20.771  0.00  0.00    +0.000 C 
ATOM     32  C51 UNK     0      13.502  32.862  21.953  0.00  0.00    +0.000 C 
ATOM     33  N52 UNK     0      12.801  32.840  23.140  0.00  0.00    +0.000 N 
ATOM     34  C53 UNK     0      13.274  32.099  24.301  0.00  0.00    +0.000 C 
ATOM     35  C54 UNK     0      12.980  30.594  24.069  0.00  0.00    +0.000 C 
ATOM     36  N55 UNK     0      13.745  29.749  24.852  0.00  0.00    +0.000 N 
ATOM     37  O56 UNK     0      14.643  32.420  21.840  0.00  0.00    +0.000 OA
ATOM     38  O60 UNK     0      12.109  30.200  23.299  0.00  0.00    +0.000 OA
ATOM     39  C61 UNK     0      13.750  28.285  24.716  0.00  0.00    +0.000 C 
ATOM     40  C65 UNK     0      14.645  27.929  23.492  0.00  0.00    +0.000 C 
ATOM     41  N66 UNK     0      16.006  28.288  23.550  0.00  0.00    +0.000 N 
ATOM     42  C67 UNK     0      16.814  28.015  22.324  0.00  0.00    +0.000 C 
ATOM     43  C68 UNK     0      16.733  28.337  24.819  0.00  0.00    +0.000 C 
ATOM     44  O69 UNK     0      14.197  27.335  22.506  0.00  0.00    +0.000 OA
ATOM     45  C70 UNK     0      17.286  26.543  22.405  0.00  0.00    +0.000 C 
ATOM     46  N71 UNK     0      16.349  25.634  21.948  0.00  0.00    +0.000 N 
ATOM     47  O72 UNK     0      18.343  26.204  22.929  0.00  0.00    +0.000 OA
ATOM     48  C73 UNK     0      16.505  24.207  22.242  0.00  0.00    +0.000 C 
ATOM     49  C74 UNK     0      15.175  23.488  22.036  0.00  0.00    +0.000 C 
ATOM     50  C77 UNK     0      12.259  35.681  21.678  0.00  0.00    +0.000 C 
ATOM     51  C78 UNK     0      20.008  23.927  19.326  0.00  0.00    +0.000 C 
ATOM     52  H2  UNK     0      17.195  24.953  19.910  0.00  0.00    +0.000 HD
ATOM     53  H58 UNK     0      10.689  32.038  18.812  0.00  0.00    +0.000 HD
ATOM     54  H69 UNK     0      11.806  33.024  23.037  0.00  0.00    +0.000 HD
ATOM     55  H71 UNK     0      14.587  30.159  25.231  0.00  0.00    +0.000 HD
ATOM     56  H90 UNK     0      15.397  26.001  21.875  0.00  0.00    +0.000 HD
ENDROOT
BRANCH  39  57
ATOM     57  C62 UNK     0      12.354  27.609  24.697  0.00  0.00    +0.000 C 
ATOM     58  C63 UNK     0      12.486  26.081  24.802  0.00  0.00    +0.000 C 
ATOM     59  C64 UNK     0      11.469  28.091  25.854  0.00  0.00    +0.000 C 
ENDBRANCH  39  57
BRANCH  19  60
ATOM     60  C25 UNK     0      11.381  29.329  17.437  0.00  0.00    +0.000 C 
ATOM     61  C30 UNK     0      10.802  28.022  17.986  0.00  0.00    +0.000 C 
ATOM     62  C31 UNK     0      12.780  29.578  18.006  0.00  0.00    +0.000 C 
ENDBRANCH  19  60
BRANCH  20  63
ATOM     63  O27 UNK     0      12.417  31.658  15.522  0.00  0.00    +0.000 OA
ATOM     64  H34 UNK     0      12.813  31.360  16.367  0.00  0.00    +0.000 HD
ENDBRANCH  20  63
BRANCH  27  65
ATOM     65  C45 UNK     0       9.725  31.744  21.172  0.00  0.00    +0.000 C 
ATOM     66  C46 UNK     0       9.194  31.877  22.593  0.00  0.00    +0.000 C 
ENDBRANCH  27  65
BRANCH  23  67
ATOM     67  C34 UNK     0      10.369  34.275  15.505  0.00  0.00    +0.000 C 
BRANCH  67  68
ATOM     68  C35 UNK     0      11.526  35.310  15.344  0.00  0.00    +0.000 C 
ATOM     69  C41 UNK     0      12.390  35.498  16.594  0.00  0.00    +0.000 C 
BRANCH  68  70
ATOM     70  C36 UNK     0      10.937  36.670  14.881  0.00  0.00    +0.000 C 
BRANCH  70  71
ATOM     71  C37 UNK     0       9.475  36.836  15.201  0.00  0.00    +0.000 C 
ATOM     72  C38 UNK     0       8.658  37.680  14.554  0.00  0.00    +0.000 C 
ATOM     73  C39 UNK     0       7.210  37.854  14.874  0.00  0.00    +0.000 C 
ENDBRANCH  70  71
ENDBRANCH  68  70
ENDBRANCH  67  68
BRANCH  67  74
ATOM     74  O40 UNK     0      10.283  33.580  14.240  0.00  0.00    +0.000 OA
ATOM     75  H54 UNK     0      10.288  32.627  14.465  0.00  0.00    +0.000 HD
ENDBRANCH  67  74
ENDBRANCH  23  67
BRANCH  34  76
ATOM     76  C57 UNK     0      12.562  32.628  25.556  0.00  0.00    +0.000 C 
BRANCH  76  77
ATOM     77  C58 UNK     0      11.022  32.681  25.503  0.00  0.00    +0.000 C 
ATOM     78  C59 UNK     0      10.367  31.727  26.503  0.00  0.00    +0.000 C 
ATOM     79  C76 UNK     0      10.549  34.114  25.776  0.00  0.00    +0.000 C 
ENDBRANCH  76  77
ENDBRANCH  34  76
BRANCH  12  80
ATOM     80  C21 UNK     0      15.225  28.456  15.251  0.00  0.00    +0.000 C 
BRANCH  80  81
ATOM     81  C82 UNK     0      16.263  28.963  16.273  0.00  0.00    +0.000 C 
ATOM     82  C83 UNK     0      17.692  28.883  15.742  0.00  0.00    +0.000 C 
ATOM     83  C84 UNK     0      16.150  28.150  17.567  0.00  0.00    +0.000 C 
ENDBRANCH  80  81
ENDBRANCH  12  80
BRANCH  42  84
ATOM     84  C75 UNK     0      17.984  29.009  22.167  0.00  0.00    +0.000 C 
BRANCH  84  85
ATOM     85  C79 UNK     0      17.942  29.849  20.874  0.00  0.00    +0.000 C 
ATOM     86  C80 UNK     0      16.524  30.070  20.348  0.00  0.00    +0.000 C 
ATOM     87  C81 UNK     0      18.786  29.169  19.792  0.00  0.00    +0.000 C 
ENDBRANCH  84  85
ENDBRANCH  42  84
BRANCH   9  88
ATOM     88  C15 UNK     0      15.307  22.647  15.219  0.00  0.00    +0.000 C 
BRANCH  88  89
ATOM     89  C16 UNK     0      16.207  22.035  14.119  0.00  0.00    +0.000 C 
ATOM     90  C17 UNK     0      17.418  22.902  13.783  0.00  0.00    +0.000 C 
ATOM     91  C18 UNK     0      16.676  20.642  14.550  0.00  0.00    +0.000 C 
ENDBRANCH  88  89
ENDBRANCH   9  88
TORSDOF 17
ENDMDL
MODEL 3
REMARK VINA RESULT:      -5.4      1.711      2.237
REMARK  Name = CyclosporineA.pdb
REMARK  40 active torsions:
REMARK  status: ('A' for Active; 'I' for Inactive)
REMARK    1  A    between atoms: C1_1  and  C78_78
REMARK    2  A    between atoms: N7_7  and  C8_8
REMARK    3  A    between atoms: C9_9  and  C15_15
REMARK    4  A    between atoms: N11_11  and  C20_20
REMARK    5  A    between atoms: C12_12  and  C21_21
REMARK    6  A    between atoms: N14_14  and  C23_23
REMARK    7  A    between atoms: C15_15  and  C16_16
REMARK    8  A    between atoms: C16_16  and  C17_17
REMARK    9  A    between atoms: C16_16  and  C18_18
REMARK   10  A    between atoms: C21_21  and  C82_82
REMARK   11  A    between atoms: C24_24  and  C25_25
REMARK   12  A    between atoms: C25_25  and  C30_30
REMARK   13  A    between atoms: C25_25  and  C31_31
REMARK   14  A    between atoms: C26_26  and  O27_27
REMARK   15  A    between atoms: N28_28  and  C29_29
REMARK   16  A    between atoms: C32_32  and  C34_34
REMARK   17  A    between atoms: C34_34  and  C35_35
REMARK   18  A    between atoms: C34_34  and  O40_40
REMARK   19  A    between atoms: C35_35  and  C36_36
REMARK   20  A    between atoms: C35_35  and  C41_41
REMARK   21  A    between atoms: C36_36  and  C37_37
REMARK   22  A    between atoms: C38_38  and  C39_39
REMARK   23  A    between atoms: C44_44  and  C45_45
REMARK   24  A    between atoms: C45_45  and  C46_46
REMARK   25  A    between atoms: N49_49  and  C77_77
REMARK   26  A    between atoms: C53_53  and  C57_57
REMARK   27  A    between atoms: C57_57  and  C58_58
REMARK   28  A    between atoms: C58_58  and  C59_59
REMARK   29  A    between atoms: C58_58  and  C76_76
REMARK   30  A    between atoms: C61_61  and  C62_62
REMARK   31  A    between atoms: C62_62  and  C63_63
REMARK   32  A    between atoms: C62_62  and  C64_64
REMARK   33  A    between atoms: N66_66  and  C68_68
REMARK   34  A    between atoms: C67_67  and  C75_75
REMARK   35  A    between atoms: C73_73  and  C74_74
REMARK   36  A    between atoms: C75_75  and  C79_79
REMARK   37  A    between atoms: C79_79  and  C80_80
REMARK   38  A    between atoms: C79_79  and  C81_81
REMARK   39  A    between atoms: C82_82  and  C83_83
REMARK   40  A    between atoms: C82_82  and  C84_84
REMARK                            x       y       z     vdW  Elec       q    Type
REMARK                         _______ _______ _______ _____ _____    ______ ____
ROOT
ATOM      1  C1  UNK     0     -12.552  50.183  21.461  0.00  0.00    +0.000 C 
ATOM      2  C2  UNK     0     -13.060  49.771  20.051  0.00  0.00    +0.000 C 
ATOM      3  N3  UNK     0     -11.111  49.994  21.441  0.00  0.00    +0.000 N 
ATOM      4  C4  UNK     0     -10.243  50.689  22.249  0.00  0.00    +0.000 C 
ATOM      5  O5  UNK     0     -10.606  51.597  22.995  0.00  0.00    +0.000 OA
ATOM      6  C6  UNK     0     -13.655  48.569  19.907  0.00  0.00    +0.000 C 
ATOM      7  N7  UNK     0     -12.842  50.672  18.962  0.00  0.00    +0.000 N 
ATOM      8  C8  UNK     0     -12.256  52.007  19.188  0.00  0.00    +0.000 C 
ATOM      9  C9  UNK     0     -13.167  50.319  17.531  0.00  0.00    +0.000 C 
ATOM     10  C10 UNK     0     -11.998  49.508  16.868  0.00  0.00    +0.000 C 
ATOM     11  N11 UNK     0     -12.320  48.493  15.914  0.00  0.00    +0.000 N 
ATOM     12  C12 UNK     0     -11.401  47.348  15.606  0.00  0.00    +0.000 C 
ATOM     13  C13 UNK     0     -10.780  47.490  14.177  0.00  0.00    +0.000 C 
ATOM     14  N14 UNK     0     -10.375  46.299  13.517  0.00  0.00    +0.000 N 
ATOM     15  C19 UNK     0     -10.722  49.769  17.221  0.00  0.00    +0.000 C 
ATOM     16  C20 UNK     0     -13.623  48.440  15.237  0.00  0.00    +0.000 C 
ATOM     17  C22 UNK     0     -10.684  48.682  13.556  0.00  0.00    +0.000 C 
ATOM     18  C23 UNK     0     -11.297  45.924  12.402  0.00  0.00    +0.000 C 
ATOM     19  C24 UNK     0      -8.900  46.085  13.151  0.00  0.00    +0.000 C 
ATOM     20  C26 UNK     0      -8.702  44.588  12.611  0.00  0.00    +0.000 C 
ATOM     21  N28 UNK     0      -7.302  44.209  12.406  0.00  0.00    +0.000 NA
ATOM     22  C29 UNK     0      -6.821  44.666  11.098  0.00  0.00    +0.000 C 
ATOM     23  C32 UNK     0      -6.977  42.767  12.662  0.00  0.00    +0.000 C 
ATOM     24  C33 UNK     0      -5.440  42.716  12.882  0.00  0.00    +0.000 C 
ATOM     25  O42 UNK     0      -4.654  42.131  12.145  0.00  0.00    +0.000 OA
ATOM     26  N43 UNK     0      -5.062  43.451  13.990  0.00  0.00    +0.000 N 
ATOM     27  C44 UNK     0      -3.689  43.576  14.434  0.00  0.00    +0.000 C 
ATOM     28  C47 UNK     0      -3.281  42.285  15.185  0.00  0.00    +0.000 C 
ATOM     29  C48 UNK     0      -2.230  41.618  14.664  0.00  0.00    +0.000 C 
ATOM     30  N49 UNK     0      -3.966  41.816  16.337  0.00  0.00    +0.000 N 
ATOM     31  C50 UNK     0      -5.190  42.423  16.931  0.00  0.00    +0.000 C 
ATOM     32  C51 UNK     0      -4.950  42.880  18.381  0.00  0.00    +0.000 C 
ATOM     33  N52 UNK     0      -3.638  43.206  18.650  0.00  0.00    +0.000 N 
ATOM     34  C53 UNK     0      -3.252  43.907  19.866  0.00  0.00    +0.000 C 
ATOM     35  C54 UNK     0      -3.617  45.405  19.700  0.00  0.00    +0.000 C 
ATOM     36  N55 UNK     0      -3.719  46.090  20.897  0.00  0.00    +0.000 N 
ATOM     37  O56 UNK     0      -5.851  42.989  19.210  0.00  0.00    +0.000 OA
ATOM     38  O60 UNK     0      -3.749  45.937  18.602  0.00  0.00    +0.000 OA
ATOM     39  C61 UNK     0      -4.188  47.479  21.010  0.00  0.00    +0.000 C 
ATOM     40  C65 UNK     0      -5.742  47.460  20.911  0.00  0.00    +0.000 C 
ATOM     41  N66 UNK     0      -6.453  46.761  21.906  0.00  0.00    +0.000 N 
ATOM     42  C67 UNK     0      -7.934  46.685  21.731  0.00  0.00    +0.000 C 
ATOM     43  C68 UNK     0      -5.945  46.647  23.274  0.00  0.00    +0.000 C 
ATOM     44  O69 UNK     0      -6.347  48.050  20.009  0.00  0.00    +0.000 OA
ATOM     45  C70 UNK     0      -8.532  47.979  22.333  0.00  0.00    +0.000 C 
ATOM     46  N71 UNK     0      -8.519  49.054  21.462  0.00  0.00    +0.000 N 
ATOM     47  O72 UNK     0      -8.882  48.076  23.506  0.00  0.00    +0.000 OA
ATOM     48  C73 UNK     0      -8.752  50.410  21.965  0.00  0.00    +0.000 C 
ATOM     49  C74 UNK     0      -8.261  51.432  20.944  0.00  0.00    +0.000 C 
ATOM     50  C77 UNK     0      -3.682  40.480  16.898  0.00  0.00    +0.000 C 
ATOM     51  C78 UNK     0     -13.162  49.456  22.667  0.00  0.00    +0.000 C 
ATOM     52  H2  UNK     0     -10.730  49.278  20.834  0.00  0.00    +0.000 HD
ATOM     53  H58 UNK     0      -5.752  44.103  14.341  0.00  0.00    +0.000 HD
ATOM     54  H69 UNK     0      -3.052  43.284  17.822  0.00  0.00    +0.000 HD
ATOM     55  H71 UNK     0      -3.856  45.511  21.714  0.00  0.00    +0.000 HD
ATOM     56  H90 UNK     0      -7.892  48.948  20.661  0.00  0.00    +0.000 HD
ENDROOT
BRANCH  39  57
ATOM     57  C62 UNK     0      -3.506  48.497  20.056  0.00  0.00    +0.000 C 
ATOM     58  C63 UNK     0      -3.978  49.928  20.358  0.00  0.00    +0.000 C 
ATOM     59  C64 UNK     0      -1.976  48.463  20.185  0.00  0.00    +0.000 C 
ENDBRANCH  39  57
BRANCH  19  60
ATOM     60  C25 UNK     0      -7.880  46.379  14.313  0.00  0.00    +0.000 C 
ATOM     61  C30 UNK     0      -7.484  47.851  14.463  0.00  0.00    +0.000 C 
ATOM     62  C31 UNK     0      -8.230  45.775  15.675  0.00  0.00    +0.000 C 
ENDBRANCH  19  60
BRANCH  20  63
ATOM     63  O27 UNK     0      -9.367  43.679  13.497  0.00  0.00    +0.000 OA
ATOM     64  H34 UNK     0     -10.061  44.225  13.923  0.00  0.00    +0.000 HD
ENDBRANCH  20  63
BRANCH  27  65
ATOM     65  C45 UNK     0      -3.471  44.877  15.227  0.00  0.00    +0.000 C 
ATOM     66  C46 UNK     0      -4.277  46.052  14.690  0.00  0.00    +0.000 C 
ENDBRANCH  27  65
BRANCH  23  67
ATOM     67  C34 UNK     0      -7.459  41.712  11.618  0.00  0.00    +0.000 C 
BRANCH  67  68
ATOM     68  C35 UNK     0      -7.747  40.292  12.198  0.00  0.00    +0.000 C 
ATOM     69  C41 UNK     0      -8.044  39.223  11.142  0.00  0.00    +0.000 C 
BRANCH  68  70
ATOM     70  C36 UNK     0      -8.910  40.381  13.222  0.00  0.00    +0.000 C 
BRANCH  70  71
ATOM     71  C37 UNK     0      -8.453  40.364  14.658  0.00  0.00    +0.000 C 
ATOM     72  C38 UNK     0      -9.286  40.366  15.709  0.00  0.00    +0.000 C 
ATOM     73  C39 UNK     0      -8.837  40.359  17.132  0.00  0.00    +0.000 C 
ENDBRANCH  70  71
ENDBRANCH  68  70
ENDBRANCH  67  68
BRANCH  67  74
ATOM     74  O40 UNK     0      -8.699  42.153  11.019  0.00  0.00    +0.000 OA
ATOM     75  H54 UNK     0      -9.285  42.378  11.770  0.00  0.00    +0.000 HD
ENDBRANCH  67  74
ENDBRANCH  23  67
BRANCH  34  76
ATOM     76  C57 UNK     0      -1.744  43.715  20.096  0.00  0.00    +0.000 C 
BRANCH  76  77
ATOM     77  C58 UNK     0      -1.338  42.784  21.257  0.00  0.00    +0.000 C 
ATOM     78  C59 UNK     0       0.172  42.547  21.319  0.00  0.00    +0.000 C 
ATOM     79  C76 UNK     0      -1.818  43.382  22.584  0.00  0.00    +0.000 C 
ENDBRANCH  76  77
ENDBRANCH  34  76
BRANCH  12  80
ATOM     80  C21 UNK     0     -12.105  45.977  15.828  0.00  0.00    +0.000 C 
BRANCH  80  81
ATOM     81  C82 UNK     0     -11.930  45.358  17.229  0.00  0.00    +0.000 C 
ATOM     82  C83 UNK     0     -13.229  45.351  18.032  0.00  0.00    +0.000 C 
ATOM     83  C84 UNK     0     -10.855  46.129  18.002  0.00  0.00    +0.000 C 
ENDBRANCH  80  81
ENDBRANCH  12  80
BRANCH  42  84
ATOM     84  C75 UNK     0      -8.527  45.406  22.356  0.00  0.00    +0.000 C 
BRANCH  84  85
ATOM     85  C79 UNK     0      -9.737  44.822  21.597  0.00  0.00    +0.000 C 
ATOM     86  C80 UNK     0     -10.856  44.352  22.525  0.00  0.00    +0.000 C 
ATOM     87  C81 UNK     0      -9.277  43.652  20.721  0.00  0.00    +0.000 C 
ENDBRANCH  84  85
ENDBRANCH  42  84
BRANCH   9  88
ATOM     88  C15 UNK     0     -13.628  51.522  16.656  0.00  0.00    +0.000 C 
BRANCH  88  89
ATOM     89  C16 UNK     0     -12.633  51.890  15.530  0.00  0.00    +0.000 C 
ATOM     90  C17 UNK     0     -13.228  51.742  14.132  0.00  0.00    +0.000 C 
ATOM     91  C18 UNK     0     -12.135  53.325  15.727  0.00  0.00    +0.000 C 
ENDBRANCH  88  89
ENDBRANCH   9  88
TORSDOF 17
ENDMDL
MODEL 4
REMARK VINA RESULT:      -5.3     18.847     25.316
REMARK  Name = CyclosporineA.pdb
REMARK  40 active torsions:
REMARK  status: ('A' for Active; 'I' for Inactive)
REMARK    1  A    between atoms: C1_1  and  C78_78
REMARK    2  A    between atoms: N7_7  and  C8_8
REMARK    3  A    between atoms: C9_9  and  C15_15
REMARK    4  A    between atoms: N11_11  and  C20_20
REMARK    5  A    between atoms: C12_12  and  C21_21
REMARK    6  A    between atoms: N14_14  and  C23_23
REMARK    7  A    between atoms: C15_15  and  C16_16
REMARK    8  A    between atoms: C16_16  and  C17_17
REMARK    9  A    between atoms: C16_16  and  C18_18
REMARK   10  A    between atoms: C21_21  and  C82_82
REMARK   11  A    between atoms: C24_24  and  C25_25
REMARK   12  A    between atoms: C25_25  and  C30_30
REMARK   13  A    between atoms: C25_25  and  C31_31
REMARK   14  A    between atoms: C26_26  and  O27_27
REMARK   15  A    between atoms: N28_28  and  C29_29
REMARK   16  A    between atoms: C32_32  and  C34_34
REMARK   17  A    between atoms: C34_34  and  C35_35
REMARK   18  A    between atoms: C34_34  and  O40_40
REMARK   19  A    between atoms: C35_35  and  C36_36
REMARK   20  A    between atoms: C35_35  and  C41_41
REMARK   21  A    between atoms: C36_36  and  C37_37
REMARK   22  A    between atoms: C38_38  and  C39_39
REMARK   23  A    between atoms: C44_44  and  C45_45
REMARK   24  A    between atoms: C45_45  and  C46_46
REMARK   25  A    between atoms: N49_49  and  C77_77
REMARK   26  A    between atoms: C53_53  and  C57_57
REMARK   27  A    between atoms: C57_57  and  C58_58
REMARK   28  A    between atoms: C58_58  and  C59_59
REMARK   29  A    between atoms: C58_58  and  C76_76
REMARK   30  A    between atoms: C61_61  and  C62_62
REMARK   31  A    between atoms: C62_62  and  C63_63
REMARK   32  A    between atoms: C62_62  and  C64_64
REMARK   33  A    between atoms: N66_66  and  C68_68
REMARK   34  A    between atoms: C67_67  and  C75_75
REMARK   35  A    between atoms: C73_73  and  C74_74
REMARK   36  A    between atoms: C75_75  and  C79_79
REMARK   37  A    between atoms: C79_79  and  C80_80
REMARK   38  A    between atoms: C79_79  and  C81_81
REMARK   39  A    between atoms: C82_82  and  C83_83
REMARK   40  A    between atoms: C82_82  and  C84_84
REMARK                            x       y       z     vdW  Elec       q    Type
REMARK                         _______ _______ _______ _____ _____    ______ ____
ROOT
ATOM      1  C1  UNK     0      13.796  27.112  24.611  0.00  0.00    +0.000 C 
ATOM      2  C2  UNK     0      12.452  27.858  24.380  0.00  0.00    +0.000 C 
ATOM      3  N3  UNK     0      14.846  28.078  24.334  0.00  0.00    +0.000 N 
ATOM      4  C4  UNK     0      16.103  28.012  24.885  0.00  0.00    +0.000 C 
ATOM      5  O5  UNK     0      16.419  27.178  25.731  0.00  0.00    +0.000 OA
ATOM      6  C6  UNK     0      11.771  27.621  23.241  0.00  0.00    +0.000 C 
ATOM      7  N7  UNK     0      12.015  28.790  25.373  0.00  0.00    +0.000 N 
ATOM      8  C8  UNK     0      12.757  28.955  26.637  0.00  0.00    +0.000 C 
ATOM      9  C9  UNK     0      10.802  29.669  25.192  0.00  0.00    +0.000 C 
ATOM     10  C10 UNK     0      11.159  30.966  24.380  0.00  0.00    +0.000 C 
ATOM     11  N11 UNK     0      10.181  31.511  23.492  0.00  0.00    +0.000 N 
ATOM     12  C12 UNK     0      10.539  32.387  22.328  0.00  0.00    +0.000 C 
ATOM     13  C13 UNK     0      10.098  33.867  22.576  0.00  0.00    +0.000 C 
ATOM     14  N14 UNK     0       9.837  34.674  21.436  0.00  0.00    +0.000 N 
ATOM     15  C19 UNK     0      12.378  31.526  24.521  0.00  0.00    +0.000 C 
ATOM     16  C20 UNK     0       8.755  31.170  23.593  0.00  0.00    +0.000 C 
ATOM     17  C22 UNK     0       9.906  34.356  23.818  0.00  0.00    +0.000 C 
ATOM     18  C23 UNK     0       8.377  34.925  21.239  0.00  0.00    +0.000 C 
ATOM     19  C24 UNK     0      10.685  35.924  21.167  0.00  0.00    +0.000 C 
ATOM     20  C26 UNK     0      10.311  36.515  19.724  0.00  0.00    +0.000 C 
ATOM     21  N28 UNK     0      11.188  37.601  19.279  0.00  0.00    +0.000 NA
ATOM     22  C29 UNK     0      10.756  38.886  19.838  0.00  0.00    +0.000 C 
ATOM     23  C32 UNK     0      11.432  37.673  17.801  0.00  0.00    +0.000 C 
ATOM     24  C33 UNK     0      12.725  38.516  17.629  0.00  0.00    +0.000 C 
ATOM     25  O42 UNK     0      12.771  39.608  17.074  0.00  0.00    +0.000 OA
ATOM     26  N43 UNK     0      13.813  37.901  18.221  0.00  0.00    +0.000 N 
ATOM     27  C44 UNK     0      15.149  38.460  18.211  0.00  0.00    +0.000 C 
ATOM     28  C47 UNK     0      15.792  38.208  16.825  0.00  0.00    +0.000 C 
ATOM     29  C48 UNK     0      16.169  39.313  16.149  0.00  0.00    +0.000 C 
ATOM     30  N49 UNK     0      15.968  36.906  16.284  0.00  0.00    +0.000 N 
ATOM     31  C50 UNK     0      15.502  35.634  16.904  0.00  0.00    +0.000 C 
ATOM     32  C51 UNK     0      16.676  34.680  17.193  0.00  0.00    +0.000 C 
ATOM     33  N52 UNK     0      17.875  35.326  17.405  0.00  0.00    +0.000 N 
ATOM     34  C53 UNK     0      19.036  34.636  17.950  0.00  0.00    +0.000 C 
ATOM     35  C54 UNK     0      18.827  34.467  19.478  0.00  0.00    +0.000 C 
ATOM     36  N55 UNK     0      19.605  33.473  20.041  0.00  0.00    +0.000 N 
ATOM     37  O56 UNK     0      16.547  33.461  17.274  0.00  0.00    +0.000 OA
ATOM     38  O60 UNK     0      18.078  35.191  20.128  0.00  0.00    +0.000 OA
ATOM     39  C61 UNK     0      19.487  33.030  21.438  0.00  0.00    +0.000 C 
ATOM     40  C65 UNK     0      18.250  32.087  21.529  0.00  0.00    +0.000 C 
ATOM     41  N66 UNK     0      18.279  30.896  20.778  0.00  0.00    +0.000 N 
ATOM     42  C67 UNK     0      17.042  30.061  20.816  0.00  0.00    +0.000 C 
ATOM     43  C68 UNK     0      19.534  30.200  20.491  0.00  0.00    +0.000 C 
ATOM     44  O69 UNK     0      17.279  32.350  22.246  0.00  0.00    +0.000 OA
ATOM     45  C70 UNK     0      17.131  29.168  22.076  0.00  0.00    +0.000 C 
ATOM     46  N71 UNK     0      16.702  29.794  23.232  0.00  0.00    +0.000 N 
ATOM     47  O72 UNK     0      17.640  28.050  22.074  0.00  0.00    +0.000 OA
ATOM     48  C73 UNK     0      17.009  29.213  24.541  0.00  0.00    +0.000 C 
ATOM     49  C74 UNK     0      16.836  30.268  25.630  0.00  0.00    +0.000 C 
ATOM     50  C77 UNK     0      16.391  36.717  14.882  0.00  0.00    +0.000 C 
ATOM     51  C78 UNK     0      14.034  25.828  23.805  0.00  0.00    +0.000 C 
ATOM     52  H2  UNK     0      14.656  28.811  23.661  0.00  0.00    +0.000 HD
ATOM     53  H58 UNK     0      13.597  37.160  18.875  0.00  0.00    +0.000 HD
ATOM     54  H69 UNK     0      17.789  36.331  17.530  0.00  0.00    +0.000 HD
ATOM     55  H71 UNK     0      19.964  32.787  19.391  0.00  0.00    +0.000 HD
ATOM     56  H90 UNK     0      16.642  30.813  23.169  0.00  0.00    +0.000 HD
ENDROOT
BRANCH  39  57
ATOM     57  C62 UNK     0      19.500  34.159  22.503  0.00  0.00    +0.000 C 
ATOM     58  C63 UNK     0      19.569  33.571  23.921  0.00  0.00    +0.000 C 
ATOM     59  C64 UNK     0      20.697  35.103  22.319  0.00  0.00    +0.000 C 
ENDBRANCH  39  57
BRANCH  19  60
ATOM     60  C25 UNK     0      12.240  35.705  21.274  0.00  0.00    +0.000 C 
ATOM     61  C30 UNK     0      12.818  35.875  22.682  0.00  0.00    +0.000 C 
ATOM     62  C31 UNK     0      12.779  34.429  20.623  0.00  0.00    +0.000 C 
ENDBRANCH  19  60
BRANCH  20  63
ATOM     63  O27 UNK     0      10.279  35.444  18.773  0.00  0.00    +0.000 OA
ATOM     64  H34 UNK     0      11.147  35.000  18.883  0.00  0.00    +0.000 HD
ENDBRANCH  20  63
BRANCH  27  65
ATOM     65  C45 UNK     0      15.977  37.957  19.406  0.00  0.00    +0.000 C 
ATOM     66  C46 UNK     0      15.198  37.937  20.714  0.00  0.00    +0.000 C 
ENDBRANCH  27  65
BRANCH  23  67
ATOM     67  C34 UNK     0      10.270  38.183  16.893  0.00  0.00    +0.000 C 
BRANCH  67  68
ATOM     68  C35 UNK     0      10.326  37.696  15.411  0.00  0.00    +0.000 C 
ATOM     69  C41 UNK     0       8.957  37.499  14.754  0.00  0.00    +0.000 C 
BRANCH  68  70
ATOM     70  C36 UNK     0      11.160  36.389  15.331  0.00  0.00    +0.000 C 
BRANCH  70  71
ATOM     71  C37 UNK     0      10.336  35.164  15.031  0.00  0.00    +0.000 C 
ATOM     72  C38 UNK     0      10.676  33.923  15.408  0.00  0.00    +0.000 C 
ATOM     73  C39 UNK     0       9.867  32.705  15.105  0.00  0.00    +0.000 C 
ENDBRANCH  70  71
ENDBRANCH  68  70
ENDBRANCH  67  68
BRANCH  67  74
ATOM     74  O40 UNK     0       9.005  37.716  17.414  0.00  0.00    +0.000 OA
ATOM     75  H54 UNK     0       9.223  36.943  17.973  0.00  0.00    +0.000 HD
ENDBRANCH  67  74
ENDBRANCH  23  67
BRANCH  34  76
ATOM     76  C57 UNK     0      20.298  35.457  17.639  0.00  0.00    +0.000 C 
BRANCH  76  77
ATOM     77  C58 UNK     0      20.145  36.990  17.662  0.00  0.00    +0.000 C 
ATOM     78  C59 UNK     0      20.752  37.622  18.915  0.00  0.00    +0.000 C 
ATOM     79  C76 UNK     0      20.805  37.589  16.414  0.00  0.00    +0.000 C 
ENDBRANCH  76  77
ENDBRANCH  34  76
BRANCH  12  80
ATOM     80  C21 UNK     0       9.995  31.808  20.989  0.00  0.00    +0.000 C 
BRANCH  80  81
ATOM     81  C82 UNK     0      11.036  31.106  20.094  0.00  0.00    +0.000 C 
ATOM     82  C83 UNK     0      11.067  31.676  18.678  0.00  0.00    +0.000 C 
ATOM     83  C84 UNK     0      10.736  29.605  20.036  0.00  0.00    +0.000 C 
ENDBRANCH  80  81
ENDBRANCH  12  80
BRANCH  42  84
ATOM     84  C75 UNK     0      16.852  29.246  19.519  0.00  0.00    +0.000 C 
BRANCH  84  85
ATOM     85  C79 UNK     0      15.448  29.359  18.890  0.00  0.00    +0.000 C 
ATOM     86  C80 UNK     0      14.826  30.745  19.057  0.00  0.00    +0.000 C 
ATOM     87  C81 UNK     0      14.521  28.308  19.511  0.00  0.00    +0.000 C 
ENDBRANCH  84  85
ENDBRANCH  42  84
BRANCH   9  88
ATOM     88  C15 UNK     0      10.028  29.985  26.505  0.00  0.00    +0.000 C 
BRANCH  88  89
ATOM     89  C16 UNK     0      10.632  31.154  27.319  0.00  0.00    +0.000 C 
ATOM     90  C17 UNK     0       9.887  32.472  27.119  0.00  0.00    +0.000 C 
ATOM     91  C18 UNK     0      10.648  30.795  28.808  0.00  0.00    +0.000 C 
ENDBRANCH  88  89
ENDBRANCH   9  88
TORSDOF 17
ENDMDL
MODEL 5
REMARK VINA RESULT:      -5.2     29.804     35.750
REMARK  Name = CyclosporineA.pdb
REMARK  40 active torsions:
REMARK  status: ('A' for Active; 'I' for Inactive)
REMARK    1  A    between atoms: C1_1  and  C78_78
REMARK    2  A    between atoms: N7_7  and  C8_8
REMARK    3  A    between atoms: C9_9  and  C15_15
REMARK    4  A    between atoms: N11_11  and  C20_20
REMARK    5  A    between atoms: C12_12  and  C21_21
REMARK    6  A    between atoms: N14_14  and  C23_23
REMARK    7  A    between atoms: C15_15  and  C16_16
REMARK    8  A    between atoms: C16_16  and  C17_17
REMARK    9  A    between atoms: C16_16  and  C18_18
REMARK   10  A    between atoms: C21_21  and  C82_82
REMARK   11  A    between atoms: C24_24  and  C25_25
REMARK   12  A    between atoms: C25_25  and  C30_30
REMARK   13  A    between atoms: C25_25  and  C31_31
REMARK   14  A    between atoms: C26_26  and  O27_27
REMARK   15  A    between atoms: N28_28  and  C29_29
REMARK   16  A    between atoms: C32_32  and  C34_34
REMARK   17  A    between atoms: C34_34  and  C35_35
REMARK   18  A    between atoms: C34_34  and  O40_40
REMARK   19  A    between atoms: C35_35  and  C36_36
REMARK   20  A    between atoms: C35_35  and  C41_41
REMARK   21  A    between atoms: C36_36  and  C37_37
REMARK   22  A    between atoms: C38_38  and  C39_39
REMARK   23  A    between atoms: C44_44  and  C45_45
REMARK   24  A    between atoms: C45_45  and  C46_46
REMARK   25  A    between atoms: N49_49  and  C77_77
REMARK   26  A    between atoms: C53_53  and  C57_57
REMARK   27  A    between atoms: C57_57  and  C58_58
REMARK   28  A    between atoms: C58_58  and  C59_59
REMARK   29  A    between atoms: C58_58  and  C76_76
REMARK   30  A    between atoms: C61_61  and  C62_62
REMARK   31  A    between atoms: C62_62  and  C63_63
REMARK   32  A    between atoms: C62_62  and  C64_64
REMARK   33  A    between atoms: N66_66  and  C68_68
REMARK   34  A    between atoms: C67_67  and  C75_75
REMARK   35  A    between atoms: C73_73  and  C74_74
REMARK   36  A    between atoms: C75_75  and  C79_79
REMARK   37  A    between atoms: C79_79  and  C80_80
REMARK   38  A    between atoms: C79_79  and  C81_81
REMARK   39  A    between atoms: C82_82  and  C83_83
REMARK   40  A    between atoms: C82_82  and  C84_84
REMARK                            x       y       z     vdW  Elec       q    Type
REMARK                         _______ _______ _______ _____ _____    ______ ____
ROOT
ATOM      1  C1  UNK     0      10.266  53.044 -13.255  0.00  0.00    +0.000 C 
ATOM      2  C2  UNK     0      10.227  53.584 -11.798  0.00  0.00    +0.000 C 
ATOM      3  N3  UNK     0       9.436  53.944 -14.040  0.00  0.00    +0.000 N 
ATOM      4  C4  UNK     0       9.599  54.142 -15.390  0.00  0.00    +0.000 C 
ATOM      5  O5  UNK     0      10.520  53.643 -16.033  0.00  0.00    +0.000 OA
ATOM      6  C6  UNK     0       9.448  52.952 -10.897  0.00  0.00    +0.000 C 
ATOM      7  N7  UNK     0      10.996  54.749 -11.487  0.00  0.00    +0.000 N 
ATOM      8  C8  UNK     0      11.893  55.357 -12.488  0.00  0.00    +0.000 C 
ATOM      9  C9  UNK     0      10.927  55.439 -10.146  0.00  0.00    +0.000 C 
ATOM     10  C10 UNK     0       9.714  56.434 -10.083  0.00  0.00    +0.000 C 
ATOM     11  N11 UNK     0       9.026  56.601  -8.841  0.00  0.00    +0.000 N 
ATOM     12  C12 UNK     0       7.610  57.087  -8.756  0.00  0.00    +0.000 C 
ATOM     13  C13 UNK     0       7.542  58.535  -8.168  0.00  0.00    +0.000 C 
ATOM     14  N14 UNK     0       6.344  58.920  -7.507  0.00  0.00    +0.000 N 
ATOM     15  C19 UNK     0       9.333  57.094 -11.197  0.00  0.00    +0.000 C 
ATOM     16  C20 UNK     0       9.625  56.211  -7.556  0.00  0.00    +0.000 C 
ATOM     17  C22 UNK     0       8.594  59.377  -8.222  0.00  0.00    +0.000 C 
ATOM     18  C23 UNK     0       6.511  58.994  -6.024  0.00  0.00    +0.000 C 
ATOM     19  C24 UNK     0       5.499  60.077  -8.057  0.00  0.00    +0.000 C 
ATOM     20  C26 UNK     0       4.118  60.154  -7.246  0.00  0.00    +0.000 C 
ATOM     21  N28 UNK     0       3.151  61.101  -7.805  0.00  0.00    +0.000 NA
ATOM     22  C29 UNK     0       3.420  62.464  -7.334  0.00  0.00    +0.000 C 
ATOM     23  C32 UNK     0       1.708  60.719  -7.655  0.00  0.00    +0.000 C 
ATOM     24  C33 UNK     0       0.940  61.552  -8.717  0.00  0.00    +0.000 C 
ATOM     25  O42 UNK     0       0.109  62.413  -8.453  0.00  0.00    +0.000 OA
ATOM     26  N43 UNK     0       1.344  61.233 -10.001  0.00  0.00    +0.000 N 
ATOM     27  C44 UNK     0       0.793  61.852 -11.188  0.00  0.00    +0.000 C 
ATOM     28  C47 UNK     0      -0.587  61.220 -11.493  0.00  0.00    +0.000 C 
ATOM     29  C48 UNK     0      -1.628  62.078 -11.513  0.00  0.00    +0.000 C 
ATOM     30  N49 UNK     0      -0.761  59.830 -11.726  0.00  0.00    +0.000 N 
ATOM     31  C50 UNK     0       0.301  58.790 -11.633  0.00  0.00    +0.000 C 
ATOM     32  C51 UNK     0       0.500  58.060 -12.974  0.00  0.00    +0.000 C 
ATOM     33  N52 UNK     0       0.167  58.821 -14.074  0.00  0.00    +0.000 N 
ATOM     34  C53 UNK     0       0.529  58.421 -15.426  0.00  0.00    +0.000 C 
ATOM     35  C54 UNK     0       2.035  58.730 -15.637  0.00  0.00    +0.000 C 
ATOM     36  N55 UNK     0       2.609  58.021 -16.675  0.00  0.00    +0.000 N 
ATOM     37  O56 UNK     0       0.958  56.923 -13.059  0.00  0.00    +0.000 OA
ATOM     38  O60 UNK     0       2.638  59.568 -14.973  0.00  0.00    +0.000 OA
ATOM     39  C61 UNK     0       4.047  58.036 -16.982  0.00  0.00    +0.000 C 
ATOM     40  C65 UNK     0       4.753  57.087 -15.969  0.00  0.00    +0.000 C 
ATOM     41  N66 UNK     0       4.397  55.724 -15.991  0.00  0.00    +0.000 N 
ATOM     42  C67 UNK     0       5.024  54.860 -14.947  0.00  0.00    +0.000 C 
ATOM     43  C68 UNK     0       3.973  55.062 -17.226  0.00  0.00    +0.000 C 
ATOM     44  O69 UNK     0       5.613  57.495 -15.181  0.00  0.00    +0.000 OA
ATOM     45  C70 UNK     0       6.406  54.420 -15.488  0.00  0.00    +0.000 C 
ATOM     46  N71 UNK     0       7.408  55.349 -15.271  0.00  0.00    +0.000 N 
ATOM     47  O72 UNK     0       6.576  53.397 -16.145  0.00  0.00    +0.000 OA
ATOM     48  C73 UNK     0       8.683  55.234 -15.984  0.00  0.00    +0.000 C 
ATOM     49  C74 UNK     0       9.428  56.564 -15.929  0.00  0.00    +0.000 C 
ATOM     50  C77 UNK     0      -2.111  59.237 -11.807  0.00  0.00    +0.000 C 
ATOM     51  C78 UNK     0       9.826  51.591 -13.478  0.00  0.00    +0.000 C 
ATOM     52  H2  UNK     0       8.666  54.411 -13.576  0.00  0.00    +0.000 HD
ATOM     53  H58 UNK     0       2.216  60.724 -10.072  0.00  0.00    +0.000 HD
ATOM     54  H69 UNK     0       0.019  59.806 -13.868  0.00  0.00    +0.000 HD
ATOM     55  H71 UNK     0       2.107  57.193 -16.961  0.00  0.00    +0.000 HD
ATOM     56  H90 UNK     0       7.077  56.288 -15.041  0.00  0.00    +0.000 HD
ENDROOT
BRANCH  39  57
ATOM     57  C62 UNK     0       4.696  59.442 -17.088  0.00  0.00    +0.000 C 
ATOM     58  C63 UNK     0       6.149  59.337 -17.578  0.00  0.00    +0.000 C 
ATOM     59  C64 UNK     0       3.931  60.352 -18.060  0.00  0.00    +0.000 C 
ENDBRANCH  39  57
BRANCH  19  60
ATOM     60  C25 UNK     0       5.214  60.012  -9.604  0.00  0.00    +0.000 C 
ATOM     61  C30 UNK     0       4.045  59.108 -10.005  0.00  0.00    +0.000 C 
ATOM     62  C31 UNK     0       5.119  61.361 -10.320  0.00  0.00    +0.000 C 
ENDBRANCH  19  60
BRANCH  20  63
ATOM     63  O27 UNK     0       3.562  58.837  -7.142  0.00  0.00    +0.000 OA
ATOM     64  H34 UNK     0       3.521  58.671  -6.177  0.00  0.00    +0.000 HD
ENDBRANCH  20  63
BRANCH  27  65
ATOM     65  C45 UNK     0       1.792  61.812 -12.358  0.00  0.00    +0.000 C 
ATOM     66  C46 UNK     0       1.321  62.587 -13.581  0.00  0.00    +0.000 C 
ENDBRANCH  27  65
BRANCH  23  67
ATOM     67  C34 UNK     0       1.065  60.833  -6.238  0.00  0.00    +0.000 C 
BRANCH  67  68
ATOM     68  C35 UNK     0      -0.088  59.822  -5.950  0.00  0.00    +0.000 C 
ATOM     69  C41 UNK     0      -0.060  58.562  -6.820  0.00  0.00    +0.000 C 
BRANCH  68  70
ATOM     70  C36 UNK     0      -1.454  60.547  -6.089  0.00  0.00    +0.000 C 
BRANCH  70  71
ATOM     71  C37 UNK     0      -2.297  60.034  -7.227  0.00  0.00    +0.000 C 
ATOM     72  C38 UNK     0      -3.583  59.674  -7.103  0.00  0.00    +0.000 C 
ATOM     73  C39 UNK     0      -4.419  59.157  -8.227  0.00  0.00    +0.000 C 
ENDBRANCH  70  71
ENDBRANCH  68  70
ENDBRANCH  67  68
BRANCH  67  74
ATOM     74  O40 UNK     0       2.069  60.585  -5.227  0.00  0.00    +0.000 OA
ATOM     75  H54 UNK     0       2.928  60.668  -5.687  0.00  0.00    +0.000 HD
ENDBRANCH  67  74
ENDBRANCH  23  67
BRANCH  34  76
ATOM     76  C57 UNK     0      -0.351  59.187 -16.427  0.00  0.00    +0.000 C 
BRANCH  76  77
ATOM     77  C58 UNK     0      -0.102  60.704 -16.543  0.00  0.00    +0.000 C 
ATOM     78  C59 UNK     0       0.244  61.135 -17.969  0.00  0.00    +0.000 C 
ATOM     79  C76 UNK     0      -1.344  61.465 -16.065  0.00  0.00    +0.000 C 
ENDBRANCH  76  77
ENDBRANCH  34  76
BRANCH  12  80
ATOM     80  C21 UNK     0       6.706  56.078  -7.988  0.00  0.00    +0.000 C 
BRANCH  80  81
ATOM     81  C82 UNK     0       5.208  56.117  -8.349  0.00  0.00    +0.000 C 
ATOM     82  C83 UNK     0       4.372  55.181  -7.477  0.00  0.00    +0.000 C 
ATOM     83  C84 UNK     0       5.023  55.744  -9.823  0.00  0.00    +0.000 C 
ENDBRANCH  80  81
ENDBRANCH  12  80
BRANCH  42  84
ATOM     84  C75 UNK     0       4.124  53.666 -14.566  0.00  0.00    +0.000 C 
BRANCH  84  85
ATOM     85  C79 UNK     0       4.360  53.114 -13.145  0.00  0.00    +0.000 C 
ATOM     86  C80 UNK     0       5.399  51.994 -13.102  0.00  0.00    +0.000 C 
ATOM     87  C81 UNK     0       3.037  52.602 -12.566  0.00  0.00    +0.000 C 
ENDBRANCH  84  85
ENDBRANCH  42  84
BRANCH   9  88
ATOM     88  C15 UNK     0      12.261  56.099  -9.688  0.00  0.00    +0.000 C 
BRANCH  88  89
ATOM     89  C16 UNK     0      12.217  57.646  -9.670  0.00  0.00    +0.000 C 
ATOM     90  C17 UNK     0      12.519  58.238  -8.295  0.00  0.00    +0.000 C 
ATOM     91  C18 UNK     0      13.205  58.204 -10.698  0.00  0.00    +0.000 C 
ENDBRANCH  88  89
ENDBRANCH   9  88
TORSDOF 17
ENDMDL
MODEL 6
REMARK VINA RESULT:      -5.2      2.771      4.802
REMARK  Name = CyclosporineA.pdb
REMARK  40 active torsions:
REMARK  status: ('A' for Active; 'I' for Inactive)
REMARK    1  A    between atoms: C1_1  and  C78_78
REMARK    2  A    between atoms: N7_7  and  C8_8
REMARK    3  A    between atoms: C9_9  and  C15_15
REMARK    4  A    between atoms: N11_11  and  C20_20
REMARK    5  A    between atoms: C12_12  and  C21_21
REMARK    6  A    between atoms: N14_14  and  C23_23
REMARK    7  A    between atoms: C15_15  and  C16_16
REMARK    8  A    between atoms: C16_16  and  C17_17
REMARK    9  A    between atoms: C16_16  and  C18_18
REMARK   10  A    between atoms: C21_21  and  C82_82
REMARK   11  A    between atoms: C24_24  and  C25_25
REMARK   12  A    between atoms: C25_25  and  C30_30
REMARK   13  A    between atoms: C25_25  and  C31_31
REMARK   14  A    between atoms: C26_26  and  O27_27
REMARK   15  A    between atoms: N28_28  and  C29_29
REMARK   16  A    between atoms: C32_32  and  C34_34
REMARK   17  A    between atoms: C34_34  and  C35_35
REMARK   18  A    between atoms: C34_34  and  O40_40
REMARK   19  A    between atoms: C35_35  and  C36_36
REMARK   20  A    between atoms: C35_35  and  C41_41
REMARK   21  A    between atoms: C36_36  and  C37_37
REMARK   22  A    between atoms: C38_38  and  C39_39
REMARK   23  A    between atoms: C44_44  and  C45_45
REMARK   24  A    between atoms: C45_45  and  C46_46
REMARK   25  A    between atoms: N49_49  and  C77_77
REMARK   26  A    between atoms: C53_53  and  C57_57
REMARK   27  A    between atoms: C57_57  and  C58_58
REMARK   28  A    between atoms: C58_58  and  C59_59
REMARK   29  A    between atoms: C58_58  and  C76_76
REMARK   30  A    between atoms: C61_61  and  C62_62
REMARK   31  A    between atoms: C62_62  and  C63_63
REMARK   32  A    between atoms: C62_62  and  C64_64
REMARK   33  A    between atoms: N66_66  and  C68_68
REMARK   34  A    between atoms: C67_67  and  C75_75
REMARK   35  A    between atoms: C73_73  and  C74_74
REMARK   36  A    between atoms: C75_75  and  C79_79
REMARK   37  A    between atoms: C79_79  and  C80_80
REMARK   38  A    between atoms: C79_79  and  C81_81
REMARK   39  A    between atoms: C82_82  and  C83_83
REMARK   40  A    between atoms: C82_82  and  C84_84
REMARK                            x       y       z     vdW  Elec       q    Type
REMARK                         _______ _______ _______ _____ _____    ______ ____
ROOT
ATOM      1  C1  UNK     0     -13.618  53.320  18.233  0.00  0.00    +0.000 C 
ATOM      2  C2  UNK     0     -13.710  52.851  16.754  0.00  0.00    +0.000 C 
ATOM      3  N3  UNK     0     -12.420  52.702  18.777  0.00  0.00    +0.000 N 
ATOM      4  C4  UNK     0     -11.707  53.226  19.829  0.00  0.00    +0.000 C 
ATOM      5  O5  UNK     0     -11.971  54.312  20.340  0.00  0.00    +0.000 OA
ATOM      6  C6  UNK     0     -14.592  51.881  16.439  0.00  0.00    +0.000 C 
ATOM      7  N7  UNK     0     -12.829  53.448  15.798  0.00  0.00    +0.000 N 
ATOM      8  C8  UNK     0     -11.938  54.560  16.178  0.00  0.00    +0.000 C 
ATOM      9  C9  UNK     0     -12.734  52.976  14.367  0.00  0.00    +0.000 C 
ATOM     10  C10 UNK     0     -11.763  51.749  14.239  0.00  0.00    +0.000 C 
ATOM     11  N11 UNK     0     -12.060  50.735  13.276  0.00  0.00    +0.000 N 
ATOM     12  C12 UNK     0     -11.547  49.330  13.391  0.00  0.00    +0.000 C 
ATOM     13  C13 UNK     0     -10.457  49.035  12.308  0.00  0.00    +0.000 C 
ATOM     14  N14 UNK     0     -10.284  47.684  11.903  0.00  0.00    +0.000 N 
ATOM     15  C19 UNK     0     -10.684  51.665  15.045  0.00  0.00    +0.000 C 
ATOM     16  C20 UNK     0     -12.978  50.968  12.152  0.00  0.00    +0.000 C 
ATOM     17  C22 UNK     0      -9.746  50.020  11.725  0.00  0.00    +0.000 C 
ATOM     18  C23 UNK     0     -10.827  47.426  10.535  0.00  0.00    +0.000 C 
ATOM     19  C24 UNK     0      -8.945  46.974  12.142  0.00  0.00    +0.000 C 
ATOM     20  C26 UNK     0      -9.099  45.420  11.781  0.00  0.00    +0.000 C 
ATOM     21  N28 UNK     0      -7.939  44.605  12.147  0.00  0.00    +0.000 NA
ATOM     22  C29 UNK     0      -6.905  44.669  11.108  0.00  0.00    +0.000 C 
ATOM     23  C32 UNK     0      -8.241  43.197  12.566  0.00  0.00    +0.000 C 
ATOM     24  C33 UNK     0      -6.997  42.719  13.362  0.00  0.00    +0.000 C 
ATOM     25  O42 UNK     0      -6.256  41.808  13.009  0.00  0.00    +0.000 OA
ATOM     26  N43 UNK     0      -6.800  43.480  14.501  0.00  0.00    +0.000 N 
ATOM     27  C44 UNK     0      -5.716  43.255  15.434  0.00  0.00    +0.000 C 
ATOM     28  C47 UNK     0      -6.068  42.045  16.335  0.00  0.00    +0.000 C 
ATOM     29  C48 UNK     0      -5.200  41.013  16.286  0.00  0.00    +0.000 C 
ATOM     30  N49 UNK     0      -7.229  42.006  17.151  0.00  0.00    +0.000 N 
ATOM     31  C50 UNK     0      -8.294  43.047  17.203  0.00  0.00    +0.000 C 
ATOM     32  C51 UNK     0      -8.434  43.646  18.615  0.00  0.00    +0.000 C 
ATOM     33  N52 UNK     0      -7.272  43.598  19.355  0.00  0.00    +0.000 N 
ATOM     34  C53 UNK     0      -7.119  44.342  20.597  0.00  0.00    +0.000 C 
ATOM     35  C54 UNK     0      -6.863  45.831  20.243  0.00  0.00    +0.000 C 
ATOM     36  N55 UNK     0      -7.134  46.704  21.280  0.00  0.00    +0.000 N 
ATOM     37  O56 UNK     0      -9.471  44.161  19.027  0.00  0.00    +0.000 OA
ATOM     38  O60 UNK     0      -6.411  46.185  19.159  0.00  0.00    +0.000 OA
ATOM     39  C61 UNK     0      -7.103  48.169  21.148  0.00  0.00    +0.000 C 
ATOM     40  C65 UNK     0      -8.429  48.606  20.458  0.00  0.00    +0.000 C 
ATOM     41  N66 UNK     0      -9.638  48.333  21.130  0.00  0.00    +0.000 N 
ATOM     42  C67 UNK     0     -10.893  48.682  20.401  0.00  0.00    +0.000 C 
ATOM     43  C68 UNK     0      -9.712  48.301  22.591  0.00  0.00    +0.000 C 
ATOM     44  O69 UNK     0      -8.439  49.192  19.371  0.00  0.00    +0.000 OA
ATOM     45  C70 UNK     0     -11.178  50.178  20.673  0.00  0.00    +0.000 C 
ATOM     46  N71 UNK     0     -10.493  51.037  19.833  0.00  0.00    +0.000 N 
ATOM     47  O72 UNK     0     -11.859  50.572  21.616  0.00  0.00    +0.000 OA
ATOM     48  C73 UNK     0     -10.404  52.464  20.152  0.00  0.00    +0.000 C 
ATOM     49  C74 UNK     0      -9.268  53.102  19.360  0.00  0.00    +0.000 C 
ATOM     50  C77 UNK     0      -7.638  40.761  17.832  0.00  0.00    +0.000 C 
ATOM     51  C78 UNK     0     -14.821  53.026  19.138  0.00  0.00    +0.000 C 
ATOM     52  H2  UNK     0     -12.123  51.813  18.393  0.00  0.00    +0.000 HD
ATOM     53  H58 UNK     0      -7.300  44.359  14.532  0.00  0.00    +0.000 HD
ATOM     54  H69 UNK     0      -6.446  43.354  18.814  0.00  0.00    +0.000 HD
ATOM     55  H71 UNK     0      -7.738  46.340  22.003  0.00  0.00    +0.000 HD
ATOM     56  H90 UNK     0      -9.703  50.612  19.340  0.00  0.00    +0.000 HD
ENDROOT
BRANCH  39  57
ATOM     57  C62 UNK     0      -5.826  48.756  20.491  0.00  0.00    +0.000 C 
ATOM     58  C63 UNK     0      -5.805  50.288  20.613  0.00  0.00    +0.000 C 
ATOM     59  C64 UNK     0      -4.546  48.209  21.140  0.00  0.00    +0.000 C 
ENDBRANCH  39  57
BRANCH  19  60
ATOM     60  C25 UNK     0      -8.360  47.136  13.595  0.00  0.00    +0.000 C 
ATOM     61  C30 UNK     0      -7.523  48.399  13.815  0.00  0.00    +0.000 C 
ATOM     62  C31 UNK     0      -9.359  46.947  14.739  0.00  0.00    +0.000 C 
ENDBRANCH  19  60
BRANCH  20  63
ATOM     63  O27 UNK     0     -10.302  44.918  12.378  0.00  0.00    +0.000 OA
ATOM     64  H34 UNK     0     -10.907  44.783  11.619  0.00  0.00    +0.000 HD
ENDBRANCH  20  63
BRANCH  27  65
ATOM     65  C45 UNK     0      -5.356  44.541  16.197  0.00  0.00    +0.000 C 
ATOM     66  C46 UNK     0      -5.279  45.771  15.302  0.00  0.00    +0.000 C 
ENDBRANCH  27  65
BRANCH  23  67
ATOM     67  C34 UNK     0      -8.660  42.179  11.460  0.00  0.00    +0.000 C 
BRANCH  67  68
ATOM     68  C35 UNK     0      -8.983  40.741  11.972  0.00  0.00    +0.000 C 
ATOM     69  C41 UNK     0      -8.364  39.614  11.140  0.00  0.00    +0.000 C 
BRANCH  68  70
ATOM     70  C36 UNK     0     -10.523  40.562  12.067  0.00  0.00    +0.000 C 
BRANCH  70  71
ATOM     71  C37 UNK     0     -11.002  40.168  13.439  0.00  0.00    +0.000 C 
ATOM     72  C38 UNK     0     -10.310  40.392  14.566  0.00  0.00    +0.000 C 
ATOM     73  C39 UNK     0     -10.777  39.994  15.928  0.00  0.00    +0.000 C 
ENDBRANCH  70  71
ENDBRANCH  68  70
ENDBRANCH  67  68
BRANCH  67  74
ATOM     74  O40 UNK     0      -9.862  42.643  10.803  0.00  0.00    +0.000 OA
ATOM     75  H54 UNK     0     -10.603  42.251  11.308  0.00  0.00    +0.000 HD
ENDBRANCH  67  74
ENDBRANCH  23  67
BRANCH  34  76
ATOM     76  C57 UNK     0      -5.952  43.742  21.398  0.00  0.00    +0.000 C 
BRANCH  76  77
ATOM     77  C58 UNK     0      -4.533  44.164  20.968  0.00  0.00    +0.000 C 
ATOM     78  C59 UNK     0      -3.678  44.634  22.146  0.00  0.00    +0.000 C 
ATOM     79  C76 UNK     0      -3.839  42.989  20.268  0.00  0.00    +0.000 C 
ENDBRANCH  76  77
ENDBRANCH  34  76
BRANCH  12  80
ATOM     80  C21 UNK     0     -12.710  48.296  13.380  0.00  0.00    +0.000 C 
BRANCH  80  81
ATOM     81  C82 UNK     0     -13.240  47.874  14.765  0.00  0.00    +0.000 C 
ATOM     82  C83 UNK     0     -12.425  48.472  15.910  0.00  0.00    +0.000 C 
ATOM     83  C84 UNK     0     -13.232  46.346  14.875  0.00  0.00    +0.000 C 
ENDBRANCH  80  81
ENDBRANCH  12  80
BRANCH  42  84
ATOM     84  C75 UNK     0     -12.069  47.767  20.800  0.00  0.00    +0.000 C 
BRANCH  84  85
ATOM     85  C79 UNK     0     -12.003  46.343  20.210  0.00  0.00    +0.000 C 
ATOM     86  C80 UNK     0     -13.061  46.090  19.137  0.00  0.00    +0.000 C 
ATOM     87  C81 UNK     0     -12.162  45.314  21.334  0.00  0.00    +0.000 C 
ENDBRANCH  84  85
ENDBRANCH  42  84
BRANCH   9  88
ATOM     88  C15 UNK     0     -12.415  54.097  13.335  0.00  0.00    +0.000 C 
BRANCH  88  89
ATOM     89  C16 UNK     0     -10.998  53.996  12.723  0.00  0.00    +0.000 C 
ATOM     90  C17 UNK     0     -11.010  53.855  11.203  0.00  0.00    +0.000 C 
ATOM     91  C18 UNK     0     -10.175  55.225  13.118  0.00  0.00    +0.000 C 
ENDBRANCH  88  89
ENDBRANCH   9  88
TORSDOF 17
ENDMDL
MODEL 7
REMARK VINA RESULT:      -4.9     17.592     23.249
REMARK  Name = CyclosporineA.pdb
REMARK  40 active torsions:
REMARK  status: ('A' for Active; 'I' for Inactive)
REMARK    1  A    between atoms: C1_1  and  C78_78
REMARK    2  A    between atoms: N7_7  and  C8_8
REMARK    3  A    between atoms: C9_9  and  C15_15
REMARK    4  A    between atoms: N11_11  and  C20_20
REMARK    5  A    between atoms: C12_12  and  C21_21
REMARK    6  A    between atoms: N14_14  and  C23_23
REMARK    7  A    between atoms: C15_15  and  C16_16
REMARK    8  A    between atoms: C16_16  and  C17_17
REMARK    9  A    between atoms: C16_16  and  C18_18
REMARK   10  A    between atoms: C21_21  and  C82_82
REMARK   11  A    between atoms: C24_24  and  C25_25
REMARK   12  A    between atoms: C25_25  and  C30_30
REMARK   13  A    between atoms: C25_25  and  C31_31
REMARK   14  A    between atoms: C26_26  and  O27_27
REMARK   15  A    between atoms: N28_28  and  C29_29
REMARK   16  A    between atoms: C32_32  and  C34_34
REMARK   17  A    between atoms: C34_34  and  C35_35
REMARK   18  A    between atoms: C34_34  and  O40_40
REMARK   19  A    between atoms: C35_35  and  C36_36
REMARK   20  A    between atoms: C35_35  and  C41_41
REMARK   21  A    between atoms: C36_36  and  C37_37
REMARK   22  A    between atoms: C38_38  and  C39_39
REMARK   23  A    between atoms: C44_44  and  C45_45
REMARK   24  A    between atoms: C45_45  and  C46_46
REMARK   25  A    between atoms: N49_49  and  C77_77
REMARK   26  A    between atoms: C53_53  and  C57_57
REMARK   27  A    between atoms: C57_57  and  C58_58
REMARK   28  A    between atoms: C58_58  and  C59_59
REMARK   29  A    between atoms: C58_58  and  C76_76
REMARK   30  A    between atoms: C61_61  and  C62_62
REMARK   31  A    between atoms: C62_62  and  C63_63
REMARK   32  A    between atoms: C62_62  and  C64_64
REMARK   33  A    between atoms: N66_66  and  C68_68
REMARK   34  A    between atoms: C67_67  and  C75_75
REMARK   35  A    between atoms: C73_73  and  C74_74
REMARK   36  A    between atoms: C75_75  and  C79_79
REMARK   37  A    between atoms: C79_79  and  C80_80
REMARK   38  A    between atoms: C79_79  and  C81_81
REMARK   39  A    between atoms: C82_82  and  C83_83
REMARK   40  A    between atoms: C82_82  and  C84_84
REMARK                            x       y       z     vdW  Elec       q    Type
REMARK                         _______ _______ _______ _____ _____    ______ ____
ROOT
ATOM      1  C1  UNK     0      13.483  42.466  19.397  0.00  0.00    +0.000 C 
ATOM      2  C2  UNK     0      13.418  42.384  20.948  0.00  0.00    +0.000 C 
ATOM      3  N3  UNK     0      12.835  41.262  18.903  0.00  0.00    +0.000 N 
ATOM      4  C4  UNK     0      12.235  41.175  17.669  0.00  0.00    +0.000 C 
ATOM      5  O5  UNK     0      12.116  42.138  16.915  0.00  0.00    +0.000 OA
ATOM      6  C6  UNK     0      14.531  42.030  21.622  0.00  0.00    +0.000 C 
ATOM      7  N7  UNK     0      12.168  42.656  21.589  0.00  0.00    +0.000 N 
ATOM      8  C8  UNK     0      11.001  43.115  20.812  0.00  0.00    +0.000 C 
ATOM      9  C9  UNK     0      11.953  42.473  23.071  0.00  0.00    +0.000 C 
ATOM     10  C10 UNK     0      11.607  40.980  23.414  0.00  0.00    +0.000 C 
ATOM     11  N11 UNK     0      12.077  40.431  24.647  0.00  0.00    +0.000 N 
ATOM     12  C12 UNK     0      12.264  38.958  24.862  0.00  0.00    +0.000 C 
ATOM     13  C13 UNK     0      11.188  38.389  25.844  0.00  0.00    +0.000 C 
ATOM     14  N14 UNK     0      11.525  37.222  26.581  0.00  0.00    +0.000 N 
ATOM     15  C19 UNK     0      10.893  40.243  22.537  0.00  0.00    +0.000 C 
ATOM     16  C20 UNK     0      12.511  41.279  25.766  0.00  0.00    +0.000 C 
ATOM     17  C22 UNK     0      10.006  39.005  26.043  0.00  0.00    +0.000 C 
ATOM     18  C23 UNK     0      11.787  37.514  28.023  0.00  0.00    +0.000 C 
ATOM     19  C24 UNK     0      10.722  35.929  26.386  0.00  0.00    +0.000 C 
ATOM     20  C26 UNK     0      11.443  34.734  27.177  0.00  0.00    +0.000 C 
ATOM     21  N28 UNK     0      10.870  33.413  26.911  0.00  0.00    +0.000 NA
ATOM     22  C29 UNK     0       9.698  33.170  27.759  0.00  0.00    +0.000 C 
ATOM     23  C32 UNK     0      11.840  32.269  26.936  0.00  0.00    +0.000 C 
ATOM     24  C33 UNK     0      11.149  31.116  26.157  0.00  0.00    +0.000 C 
ATOM     25  O42 UNK     0      10.815  30.047  26.654  0.00  0.00    +0.000 OA
ATOM     26  N43 UNK     0      10.918  31.463  24.838  0.00  0.00    +0.000 N 
ATOM     27  C44 UNK     0      10.290  30.578  23.878  0.00  0.00    +0.000 C 
ATOM     28  C47 UNK     0      11.331  29.538  23.395  0.00  0.00    +0.000 C 
ATOM     29  C48 UNK     0      11.009  28.247  23.620  0.00  0.00    +0.000 C 
ATOM     30  N49 UNK     0      12.551  29.905  22.768  0.00  0.00    +0.000 N 
ATOM     31  C50 UNK     0      13.041  31.297  22.561  0.00  0.00    +0.000 C 
ATOM     32  C51 UNK     0      13.236  31.614  21.067  0.00  0.00    +0.000 C 
ATOM     33  N52 UNK     0      12.419  30.881  20.233  0.00  0.00    +0.000 N 
ATOM     34  C53 UNK     0      12.256  31.214  18.826  0.00  0.00    +0.000 C 
ATOM     35  C54 UNK     0      11.308  32.437  18.722  0.00  0.00    +0.000 C 
ATOM     36  N55 UNK     0      11.410  33.122  17.526  0.00  0.00    +0.000 N 
ATOM     37  O56 UNK     0      14.013  32.473  20.658  0.00  0.00    +0.000 OA
ATOM     38  O60 UNK     0      10.506  32.729  19.604  0.00  0.00    +0.000 OA
ATOM     39  C61 UNK     0      10.720  34.390  17.245  0.00  0.00    +0.000 C 
ATOM     40  C65 UNK     0      11.524  35.527  17.943  0.00  0.00    +0.000 C 
ATOM     41  N66 UNK     0      12.852  35.742  17.524  0.00  0.00    +0.000 N 
ATOM     42  C67 UNK     0      13.622  36.777  18.275  0.00  0.00    +0.000 C 
ATOM     43  C68 UNK     0      13.274  35.477  16.148  0.00  0.00    +0.000 C 
ATOM     44  O69 UNK     0      11.023  36.238  18.820  0.00  0.00    +0.000 OA
ATOM     45  C70 UNK     0      13.289  38.147  17.638  0.00  0.00    +0.000 C 
ATOM     46  N71 UNK     0      12.124  38.715  18.121  0.00  0.00    +0.000 N 
ATOM     47  O72 UNK     0      13.934  38.634  16.713  0.00  0.00    +0.000 OA
ATOM     48  C73 UNK     0      11.506  39.839  17.413  0.00  0.00    +0.000 C 
ATOM     49  C74 UNK     0      10.054  39.995  17.855  0.00  0.00    +0.000 C 
ATOM     50  C77 UNK     0      13.605  28.903  22.511  0.00  0.00    +0.000 C 
ATOM     51  C78 UNK     0      14.871  42.617  18.760  0.00  0.00    +0.000 C 
ATOM     52  H2  UNK     0      12.870  40.429  19.478  0.00  0.00    +0.000 HD
ATOM     53  H58 UNK     0      10.981  32.450  24.627  0.00  0.00    +0.000 HD
ATOM     54  H69 UNK     0      11.678  30.379  20.716  0.00  0.00    +0.000 HD
ATOM     55  H71 UNK     0      12.263  32.962  17.009  0.00  0.00    +0.000 HD
ATOM     56  H90 UNK     0      11.504  38.067  18.612  0.00  0.00    +0.000 HD
ENDROOT
BRANCH  39  57
ATOM     57  C62 UNK     0       9.199  34.409  17.555  0.00  0.00    +0.000 C 
ATOM     58  C63 UNK     0       8.563  35.727  17.084  0.00  0.00    +0.000 C 
ATOM     59  C64 UNK     0       8.462  33.251  16.867  0.00  0.00    +0.000 C 
ENDBRANCH  39  57
BRANCH  19  60
ATOM     60  C25 UNK     0      10.484  35.516  24.885  0.00  0.00    +0.000 C 
ATOM     61  C30 UNK     0       9.205  36.078  24.258  0.00  0.00    +0.000 C 
ATOM     62  C31 UNK     0      11.676  35.715  23.945  0.00  0.00    +0.000 C 
ENDBRANCH  19  60
BRANCH  20  63
ATOM     63  O27 UNK     0      12.847  34.764  26.891  0.00  0.00    +0.000 OA
ATOM     64  H34 UNK     0      13.055  33.845  26.620  0.00  0.00    +0.000 HD
ENDBRANCH  20  63
BRANCH  27  65
ATOM     65  C45 UNK     0       9.600  31.369  22.753  0.00  0.00    +0.000 C 
ATOM     66  C46 UNK     0       8.814  32.572  23.257  0.00  0.00    +0.000 C 
ENDBRANCH  27  65
BRANCH  23  67
ATOM     67  C34 UNK     0      12.384  31.801  28.322  0.00  0.00    +0.000 C 
BRANCH  67  68
ATOM     68  C35 UNK     0      13.527  30.741  28.260  0.00  0.00    +0.000 C 
ATOM     69  C41 UNK     0      13.427  29.634  29.313  0.00  0.00    +0.000 C 
BRANCH  68  70
ATOM     70  C36 UNK     0      14.900  31.460  28.357  0.00  0.00    +0.000 C 
BRANCH  70  71
ATOM     71  C37 UNK     0      15.688  31.434  27.073  0.00  0.00    +0.000 C 
ATOM     72  C38 UNK     0      15.272  30.825  25.953  0.00  0.00    +0.000 C 
ATOM     73  C39 UNK     0      16.054  30.789  24.681  0.00  0.00    +0.000 C 
ENDBRANCH  70  71
ENDBRANCH  68  70
ENDBRANCH  67  68
BRANCH  67  74
ATOM     74  O40 UNK     0      12.933  32.933  29.035  0.00  0.00    +0.000 OA
ATOM     75  H54 UNK     0      13.900  32.887  28.891  0.00  0.00    +0.000 HD
ENDBRANCH  67  74
ENDBRANCH  23  67
BRANCH  34  76
ATOM     76  C57 UNK     0      11.687  29.993  18.085  0.00  0.00    +0.000 C 
BRANCH  76  77
ATOM     77  C58 UNK     0      10.262  29.554  18.474  0.00  0.00    +0.000 C 
ATOM     78  C59 UNK     0       9.317  29.496  17.273  0.00  0.00    +0.000 C 
ATOM     79  C76 UNK     0      10.316  28.179  19.150  0.00  0.00    +0.000 C 
ENDBRANCH  76  77
ENDBRANCH  34  76
BRANCH  12  80
ATOM     80  C21 UNK     0      13.721  38.626  25.298  0.00  0.00    +0.000 C 
BRANCH  80  81
ATOM     81  C82 UNK     0      14.600  37.951  24.226  0.00  0.00    +0.000 C 
ATOM     82  C83 UNK     0      15.415  36.788  24.786  0.00  0.00    +0.000 C 
ATOM     83  C84 UNK     0      15.544  38.988  23.608  0.00  0.00    +0.000 C 
ENDBRANCH  80  81
ENDBRANCH  12  80
BRANCH  42  84
ATOM     84  C75 UNK     0      15.136  36.477  18.289  0.00  0.00    +0.000 C 
BRANCH  84  85
ATOM     85  C79 UNK     0      15.767  36.426  19.696  0.00  0.00    +0.000 C 
ATOM     86  C80 UNK     0      16.786  35.298  19.854  0.00  0.00    +0.000 C 
ATOM     87  C81 UNK     0      14.665  36.267  20.748  0.00  0.00    +0.000 C 
ENDBRANCH  84  85
ENDBRANCH  42  84
BRANCH   9  88
ATOM     88  C15 UNK     0      10.949  43.477  23.709  0.00  0.00    +0.000 C 
BRANCH  88  89
ATOM     89  C16 UNK     0       9.622  42.826  24.167  0.00  0.00    +0.000 C 
ATOM     90  C17 UNK     0       9.310  43.075  25.641  0.00  0.00    +0.000 C 
ATOM     91  C18 UNK     0       8.467  43.341  23.303  0.00  0.00    +0.000 C 
ENDBRANCH  88  89
ENDBRANCH   9  88
TORSDOF 17
ENDMDL
MODEL 8
REMARK VINA RESULT:      -4.8     28.678     34.001
REMARK  Name = CyclosporineA.pdb
REMARK  40 active torsions:
REMARK  status: ('A' for Active; 'I' for Inactive)
REMARK    1  A    between atoms: C1_1  and  C78_78
REMARK    2  A    between atoms: N7_7  and  C8_8
REMARK    3  A    between atoms: C9_9  and  C15_15
REMARK    4  A    between atoms: N11_11  and  C20_20
REMARK    5  A    between atoms: C12_12  and  C21_21
REMARK    6  A    between atoms: N14_14  and  C23_23
REMARK    7  A    between atoms: C15_15  and  C16_16
REMARK    8  A    between atoms: C16_16  and  C17_17
REMARK    9  A    between atoms: C16_16  and  C18_18
REMARK   10  A    between atoms: C21_21  and  C82_82
REMARK   11  A    between atoms: C24_24  and  C25_25
REMARK   12  A    between atoms: C25_25  and  C30_30
REMARK   13  A    between atoms: C25_25  and  C31_31
REMARK   14  A    between atoms: C26_26  and  O27_27
REMARK   15  A    between atoms: N28_28  and  C29_29
REMARK   16  A    between atoms: C32_32  and  C34_34
REMARK   17  A    between atoms: C34_34  and  C35_35
REMARK   18  A    between atoms: C34_34  and  O40_40
REMARK   19  A    between atoms: C35_35  and  C36_36
REMARK   20  A    between atoms: C35_35  and  C41_41
REMARK   21  A    between atoms: C36_36  and  C37_37
REMARK   22  A    between atoms: C38_38  and  C39_39
REMARK   23  A    between atoms: C44_44  and  C45_45
REMARK   24  A    between atoms: C45_45  and  C46_46
REMARK   25  A    between atoms: N49_49  and  C77_77
REMARK   26  A    between atoms: C53_53  and  C57_57
REMARK   27  A    between atoms: C57_57  and  C58_58
REMARK   28  A    between atoms: C58_58  and  C59_59
REMARK   29  A    between atoms: C58_58  and  C76_76
REMARK   30  A    between atoms: C61_61  and  C62_62
REMARK   31  A    between atoms: C62_62  and  C63_63
REMARK   32  A    between atoms: C62_62  and  C64_64
REMARK   33  A    between atoms: N66_66  and  C68_68
REMARK   34  A    between atoms: C67_67  and  C75_75
REMARK   35  A    between atoms: C73_73  and  C74_74
REMARK   36  A    between atoms: C75_75  and  C79_79
REMARK   37  A    between atoms: C79_79  and  C80_80
REMARK   38  A    between atoms: C79_79  and  C81_81
REMARK   39  A    between atoms: C82_82  and  C83_83
REMARK   40  A    between atoms: C82_82  and  C84_84
REMARK                            x       y       z     vdW  Elec       q    Type
REMARK                         _______ _______ _______ _____ _____    ______ ____
ROOT
ATOM      1  C1  UNK     0       0.964  21.249  -5.267  0.00  0.00    +0.000 C 
ATOM      2  C2  UNK     0       0.014  21.742  -4.140  0.00  0.00    +0.000 C 
ATOM      3  N3  UNK     0       1.654  20.086  -4.732  0.00  0.00    +0.000 N 
ATOM      4  C4  UNK     0       2.167  19.081  -5.517  0.00  0.00    +0.000 C 
ATOM      5  O5  UNK     0       2.005  19.036  -6.735  0.00  0.00    +0.000 OA
ATOM      6  C6  UNK     0       0.373  22.825  -3.422  0.00  0.00    +0.000 C 
ATOM      7  N7  UNK     0      -1.185  21.001  -3.893  0.00  0.00    +0.000 N 
ATOM      8  C8  UNK     0      -1.570  19.870  -4.758  0.00  0.00    +0.000 C 
ATOM      9  C9  UNK     0      -2.110  21.304  -2.740  0.00  0.00    +0.000 C 
ATOM     10  C10 UNK     0      -1.616  20.611  -1.420  0.00  0.00    +0.000 C 
ATOM     11  N11 UNK     0      -1.818  21.282  -0.174  0.00  0.00    +0.000 N 
ATOM     12  C12 UNK     0      -0.984  21.006   1.042  0.00  0.00    +0.000 C 
ATOM     13  C13 UNK     0      -1.808  20.248   2.134  0.00  0.00    +0.000 C 
ATOM     14  N14 UNK     0      -1.403  20.403   3.487  0.00  0.00    +0.000 N 
ATOM     15  C19 UNK     0      -0.998  19.413  -1.487  0.00  0.00    +0.000 C 
ATOM     16  C20 UNK     0      -2.795  22.369  -0.020  0.00  0.00    +0.000 C 
ATOM     17  C22 UNK     0      -2.901  19.522   1.826  0.00  0.00    +0.000 C 
ATOM     18  C23 UNK     0      -2.340  21.267   4.266  0.00  0.00    +0.000 C 
ATOM     19  C24 UNK     0      -0.926  19.187   4.292  0.00  0.00    +0.000 C 
ATOM     20  C26 UNK     0      -0.343  19.682   5.701  0.00  0.00    +0.000 C 
ATOM     21  N28 UNK     0       0.313  18.628   6.479  0.00  0.00    +0.000 NA
ATOM     22  C29 UNK     0      -0.671  17.852   7.241  0.00  0.00    +0.000 C 
ATOM     23  C32 UNK     0       1.471  19.071   7.323  0.00  0.00    +0.000 C 
ATOM     24  C33 UNK     0       2.286  17.783   7.625  0.00  0.00    +0.000 C 
ATOM     25  O42 UNK     0       2.438  17.306   8.744  0.00  0.00    +0.000 OA
ATOM     26  N43 UNK     0       2.783  17.215   6.466  0.00  0.00    +0.000 N 
ATOM     27  C44 UNK     0       3.585  16.008   6.449  0.00  0.00    +0.000 C 
ATOM     28  C47 UNK     0       5.034  16.359   6.868  0.00  0.00    +0.000 C 
ATOM     29  C48 UNK     0       5.494  15.714   7.960  0.00  0.00    +0.000 C 
ATOM     30  N49 UNK     0       5.830  17.302   6.167  0.00  0.00    +0.000 N 
ATOM     31  C50 UNK     0       5.385  18.134   5.014  0.00  0.00    +0.000 C 
ATOM     32  C51 UNK     0       6.227  17.857   3.755  0.00  0.00    +0.000 C 
ATOM     33  N52 UNK     0       6.763  16.587   3.716  0.00  0.00    +0.000 N 
ATOM     34  C53 UNK     0       7.359  16.040   2.506  0.00  0.00    +0.000 C 
ATOM     35  C54 UNK     0       6.214  15.615   1.549  0.00  0.00    +0.000 C 
ATOM     36  N55 UNK     0       6.605  15.498   0.229  0.00  0.00    +0.000 N 
ATOM     37  O56 UNK     0       6.370  18.674   2.849  0.00  0.00    +0.000 OA
ATOM     38  O60 UNK     0       5.082  15.356   1.946  0.00  0.00    +0.000 OA
ATOM     39  C61 UNK     0       5.676  15.244  -0.883  0.00  0.00    +0.000 C 
ATOM     40  C65 UNK     0       4.979  16.593  -1.229  0.00  0.00    +0.000 C 
ATOM     41  N66 UNK     0       5.791  17.654  -1.677  0.00  0.00    +0.000 N 
ATOM     42  C67 UNK     0       5.104  18.958  -1.912  0.00  0.00    +0.000 C 
ATOM     43  C68 UNK     0       7.021  17.412  -2.433  0.00  0.00    +0.000 C 
ATOM     44  O69 UNK     0       3.755  16.738  -1.140  0.00  0.00    +0.000 OA
ATOM     45  C70 UNK     0       4.519  18.915  -3.344  0.00  0.00    +0.000 C 
ATOM     46  N71 UNK     0       3.286  18.292  -3.421  0.00  0.00    +0.000 N 
ATOM     47  O72 UNK     0       5.136  19.295  -4.335  0.00  0.00    +0.000 OA
ATOM     48  C73 UNK     0       2.745  17.891  -4.722  0.00  0.00    +0.000 C 
ATOM     49  C74 UNK     0       1.636  16.863  -4.527  0.00  0.00    +0.000 C 
ATOM     50  C77 UNK     0       7.123  17.761   6.715  0.00  0.00    +0.000 C 
ATOM     51  C78 UNK     0       1.981  22.258  -5.818  0.00  0.00    +0.000 C 
ATOM     52  H2  UNK     0       1.807  20.039  -3.732  0.00  0.00    +0.000 HD
ATOM     53  H58 UNK     0       2.362  17.536   5.604  0.00  0.00    +0.000 HD
ATOM     54  H69 UNK     0       6.381  15.954   4.414  0.00  0.00    +0.000 HD
ATOM     55  H71 UNK     0       7.458  15.982  -0.013  0.00  0.00    +0.000 HD
ATOM     56  H90 UNK     0       3.048  17.715  -2.611  0.00  0.00    +0.000 HD
ENDROOT
BRANCH  39  57
ATOM     57  C62 UNK     0       4.695  14.059  -0.680  0.00  0.00    +0.000 C 
ATOM     58  C63 UNK     0       3.918  13.766  -1.974  0.00  0.00    +0.000 C 
ATOM     59  C64 UNK     0       5.427  12.776  -0.262  0.00  0.00    +0.000 C 
ENDBRANCH  39  57
BRANCH  19  60
ATOM     60  C25 UNK     0       0.131  18.280   3.559  0.00  0.00    +0.000 C 
ATOM     61  C30 UNK     0      -0.466  17.188   2.668  0.00  0.00    +0.000 C 
ATOM     62  C31 UNK     0       1.248  19.023   2.822  0.00  0.00    +0.000 C 
ENDBRANCH  19  60
BRANCH  20  63
ATOM     63  O27 UNK     0       0.535  20.793   5.479  0.00  0.00    +0.000 OA
ATOM     64  H34 UNK     0       0.114  21.532   5.967  0.00  0.00    +0.000 HD
ENDBRANCH  20  63
BRANCH  27  65
ATOM     65  C45 UNK     0       3.464  15.274   5.103  0.00  0.00    +0.000 C 
ATOM     66  C46 UNK     0       2.033  15.187   4.589  0.00  0.00    +0.000 C 
ENDBRANCH  27  65
BRANCH  23  67
ATOM     67  C34 UNK     0       1.163  19.890   8.615  0.00  0.00    +0.000 C 
BRANCH  67  68
ATOM     68  C35 UNK     0       2.370  20.695   9.191  0.00  0.00    +0.000 C 
ATOM     69  C41 UNK     0       3.595  20.749   8.273  0.00  0.00    +0.000 C 
BRANCH  68  70
ATOM     70  C36 UNK     0       2.757  20.118  10.579  0.00  0.00    +0.000 C 
BRANCH  70  71
ATOM     71  C37 UNK     0       4.243  19.987  10.787  0.00  0.00    +0.000 C 
ATOM     72  C38 UNK     0       4.837  18.888  11.273  0.00  0.00    +0.000 C 
ATOM     73  C39 UNK     0       6.309  18.758  11.489  0.00  0.00    +0.000 C 
ENDBRANCH  70  71
ENDBRANCH  68  70
ENDBRANCH  67  68
BRANCH  67  74
ATOM     74  O40 UNK     0       0.134  20.867   8.337  0.00  0.00    +0.000 OA
ATOM     75  H54 UNK     0      -0.552  20.386   7.831  0.00  0.00    +0.000 HD
ENDBRANCH  67  74
ENDBRANCH  23  67
BRANCH  34  76
ATOM     76  C57 UNK     0       8.253  14.848   2.883  0.00  0.00    +0.000 C 
BRANCH  76  77
ATOM     77  C58 UNK     0       7.555  13.650   3.558  0.00  0.00    +0.000 C 
ATOM     78  C59 UNK     0       7.662  12.367   2.732  0.00  0.00    +0.000 C 
ATOM     79  C76 UNK     0       8.163  13.418   4.946  0.00  0.00    +0.000 C 
ENDBRANCH  76  77
ENDBRANCH  34  76
BRANCH  12  80
ATOM     80  C21 UNK     0      -0.313  22.304   1.580  0.00  0.00    +0.000 C 
BRANCH  80  81
ATOM     81  C82 UNK     0       1.197  22.440   1.301  0.00  0.00    +0.000 C 
ATOM     82  C83 UNK     0       1.635  23.895   1.148  0.00  0.00    +0.000 C 
ATOM     83  C84 UNK     0       1.558  21.660   0.033  0.00  0.00    +0.000 C 
ENDBRANCH  80  81
ENDBRANCH  12  80
BRANCH  42  84
ATOM     84  C75 UNK     0       6.047  20.159  -1.689  0.00  0.00    +0.000 C 
BRANCH  84  85
ATOM     85  C79 UNK     0       5.633  21.094  -0.534  0.00  0.00    +0.000 C 
ATOM     86  C80 UNK     0       4.716  20.417   0.485  0.00  0.00    +0.000 C 
ATOM     87  C81 UNK     0       4.934  22.334  -1.101  0.00  0.00    +0.000 C 
ENDBRANCH  84  85
ENDBRANCH  42  84
BRANCH   9  88
ATOM     88  C15 UNK     0      -3.615  21.030  -3.027  0.00  0.00    +0.000 C 
BRANCH  88  89
ATOM     89  C16 UNK     0      -4.403  22.285  -3.474  0.00  0.00    +0.000 C 
ATOM     90  C17 UNK     0      -5.558  22.632  -2.538  0.00  0.00    +0.000 C 
ATOM     91  C18 UNK     0      -3.453  23.481  -3.584  0.00  0.00    +0.000 C 
ENDBRANCH  88  89
ENDBRANCH   9  88
TORSDOF 17
ENDMDL
MODEL 9
REMARK VINA RESULT:      -4.7     33.387     39.856
REMARK  Name = CyclosporineA.pdb
REMARK  40 active torsions:
REMARK  status: ('A' for Active; 'I' for Inactive)
REMARK    1  A    between atoms: C1_1  and  C78_78
REMARK    2  A    between atoms: N7_7  and  C8_8
REMARK    3  A    between atoms: C9_9  and  C15_15
REMARK    4  A    between atoms: N11_11  and  C20_20
REMARK    5  A    between atoms: C12_12  and  C21_21
REMARK    6  A    between atoms: N14_14  and  C23_23
REMARK    7  A    between atoms: C15_15  and  C16_16
REMARK    8  A    between atoms: C16_16  and  C17_17
REMARK    9  A    between atoms: C16_16  and  C18_18
REMARK   10  A    between atoms: C21_21  and  C82_82
REMARK   11  A    between atoms: C24_24  and  C25_25
REMARK   12  A    between atoms: C25_25  and  C30_30
REMARK   13  A    between atoms: C25_25  and  C31_31
REMARK   14  A    between atoms: C26_26  and  O27_27
REMARK   15  A    between atoms: N28_28  and  C29_29
REMARK   16  A    between atoms: C32_32  and  C34_34
REMARK   17  A    between atoms: C34_34  and  C35_35
REMARK   18  A    between atoms: C34_34  and  O40_40
REMARK   19  A    between atoms: C35_35  and  C36_36
REMARK   20  A    between atoms: C35_35  and  C41_41
REMARK   21  A    between atoms: C36_36  and  C37_37
REMARK   22  A    between atoms: C38_38  and  C39_39
REMARK   23  A    between atoms: C44_44  and  C45_45
REMARK   24  A    between atoms: C45_45  and  C46_46
REMARK   25  A    between atoms: N49_49  and  C77_77
REMARK   26  A    between atoms: C53_53  and  C57_57
REMARK   27  A    between atoms: C57_57  and  C58_58
REMARK   28  A    between atoms: C58_58  and  C59_59
REMARK   29  A    between atoms: C58_58  and  C76_76
REMARK   30  A    between atoms: C61_61  and  C62_62
REMARK   31  A    between atoms: C62_62  and  C63_63
REMARK   32  A    between atoms: C62_62  and  C64_64
REMARK   33  A    between atoms: N66_66  and  C68_68
REMARK   34  A    between atoms: C67_67  and  C75_75
REMARK   35  A    between atoms: C73_73  and  C74_74
REMARK   36  A    between atoms: C75_75  and  C79_79
REMARK   37  A    between atoms: C79_79  and  C80_80
REMARK   38  A    between atoms: C79_79  and  C81_81
REMARK   39  A    between atoms: C82_82  and  C83_83
REMARK   40  A    between atoms: C82_82  and  C84_84
REMARK                            x       y       z     vdW  Elec       q    Type
REMARK                         _______ _______ _______ _____ _____    ______ ____
ROOT
ATOM      1  C1  UNK     0      19.327  30.868 -12.078  0.00  0.00    +0.000 C 
ATOM      2  C2  UNK     0      19.657  30.475 -10.611  0.00  0.00    +0.000 C 
ATOM      3  N3  UNK     0      19.719  32.261 -12.219  0.00  0.00    +0.000 N 
ATOM      4  C4  UNK     0      20.074  32.832 -13.418  0.00  0.00    +0.000 C 
ATOM      5  O5  UNK     0      20.178  32.188 -14.460  0.00  0.00    +0.000 OA
ATOM      6  C6  UNK     0      18.645  30.397  -9.722  0.00  0.00    +0.000 C 
ATOM      7  N7  UNK     0      21.025  30.245 -10.262  0.00  0.00    +0.000 N 
ATOM      8  C8  UNK     0      22.084  30.266 -11.288  0.00  0.00    +0.000 C 
ATOM      9  C9  UNK     0      21.475  29.993  -8.844  0.00  0.00    +0.000 C 
ATOM     10  C10 UNK     0      21.683  31.343  -8.068  0.00  0.00    +0.000 C 
ATOM     11  N11 UNK     0      21.374  31.389  -6.673  0.00  0.00    +0.000 N 
ATOM     12  C12 UNK     0      21.042  32.664  -5.956  0.00  0.00    +0.000 C 
ATOM     13  C13 UNK     0      22.194  33.083  -4.984  0.00  0.00    +0.000 C 
ATOM     14  N14 UNK     0      21.847  33.883  -3.863  0.00  0.00    +0.000 N 
ATOM     15  C19 UNK     0      22.130  32.431  -8.730  0.00  0.00    +0.000 C 
ATOM     16  C20 UNK     0      21.257  30.172  -5.857  0.00  0.00    +0.000 C 
ATOM     17  C22 UNK     0      23.461  32.657  -5.154  0.00  0.00    +0.000 C 
ATOM     18  C23 UNK     0      21.885  33.115  -2.581  0.00  0.00    +0.000 C 
ATOM     19  C24 UNK     0      22.431  35.295  -3.714  0.00  0.00    +0.000 C 
ATOM     20  C26 UNK     0      21.716  36.035  -2.484  0.00  0.00    +0.000 C 
ATOM     21  N28 UNK     0      22.059  37.454  -2.362  0.00  0.00    +0.000 NA
ATOM     22  C29 UNK     0      23.323  37.627  -1.637  0.00  0.00    +0.000 C 
ATOM     23  C32 UNK     0      20.971  38.341  -1.834  0.00  0.00    +0.000 C 
ATOM     24  C33 UNK     0      21.359  39.782  -2.263  0.00  0.00    +0.000 C 
ATOM     25  O42 UNK     0      21.638  40.686  -1.482  0.00  0.00    +0.000 OA
ATOM     26  N43 UNK     0      21.395  39.909  -3.639  0.00  0.00    +0.000 N 
ATOM     27  C44 UNK     0      21.723  41.146  -4.319  0.00  0.00    +0.000 C 
ATOM     28  C47 UNK     0      20.489  42.081  -4.290  0.00  0.00    +0.000 C 
ATOM     29  C48 UNK     0      20.678  43.274  -3.689  0.00  0.00    +0.000 C 
ATOM     30  N49 UNK     0      19.234  41.715  -4.845  0.00  0.00    +0.000 N 
ATOM     31  C50 UNK     0      18.896  40.392  -5.442  0.00  0.00    +0.000 C 
ATOM     32  C51 UNK     0      18.481  40.525  -6.918  0.00  0.00    +0.000 C 
ATOM     33  N52 UNK     0      19.036  41.614  -7.555  0.00  0.00    +0.000 N 
ATOM     34  C53 UNK     0      18.987  41.770  -9.001  0.00  0.00    +0.000 C 
ATOM     35  C54 UNK     0      20.050  40.829  -9.627  0.00  0.00    +0.000 C 
ATOM     36  N55 UNK     0      19.825  40.542 -10.961  0.00  0.00    +0.000 N 
ATOM     37  O56 UNK     0      17.759  39.711  -7.489  0.00  0.00    +0.000 OA
ATOM     38  O60 UNK     0      21.027  40.426  -9.003  0.00  0.00    +0.000 OA
ATOM     39  C61 UNK     0      20.610  39.569 -11.735  0.00  0.00    +0.000 C 
ATOM     40  C65 UNK     0      20.095  38.147 -11.362  0.00  0.00    +0.000 C 
ATOM     41  N66 UNK     0      18.752  37.839 -11.657  0.00  0.00    +0.000 N 
ATOM     42  C67 UNK     0      18.266  36.502 -11.204  0.00  0.00    +0.000 C 
ATOM     43  C68 UNK     0      18.062  38.438 -12.800  0.00  0.00    +0.000 C 
ATOM     44  O69 UNK     0      20.831  37.300 -10.844  0.00  0.00    +0.000 OA
ATOM     45  C70 UNK     0      18.653  35.480 -12.300  0.00  0.00    +0.000 C 
ATOM     46  N71 UNK     0      19.948  35.008 -12.187  0.00  0.00    +0.000 N 
ATOM     47  O72 UNK     0      17.921  35.198 -13.245  0.00  0.00    +0.000 OA
ATOM     48  C73 UNK     0      20.569  34.289 -13.302  0.00  0.00    +0.000 C 
ATOM     49  C74 UNK     0      22.083  34.266 -13.125  0.00  0.00    +0.000 C 
ATOM     50  C77 UNK     0      18.032  42.542  -4.616  0.00  0.00    +0.000 C 
ATOM     51  C78 UNK     0      17.880  30.676 -12.548  0.00  0.00    +0.000 C 
ATOM     52  H2  UNK     0      19.680  32.854 -11.399  0.00  0.00    +0.000 HD
ATOM     53  H58 UNK     0      21.422  39.042  -4.159  0.00  0.00    +0.000 HD
ATOM     54  H69 UNK     0      19.781  42.066  -7.030  0.00  0.00    +0.000 HD
ATOM     55  H71 UNK     0      18.880  40.700 -11.281  0.00  0.00    +0.000 HD
ATOM     56  H90 UNK     0      20.558  35.572 -11.590  0.00  0.00    +0.000 HD
ENDROOT
BRANCH  39  57
ATOM     57  C62 UNK     0      22.151  39.727 -11.644  0.00  0.00    +0.000 C 
ATOM     58  C63 UNK     0      22.856  38.770 -12.618  0.00  0.00    +0.000 C 
ATOM     59  C64 UNK     0      22.600  41.158 -11.974  0.00  0.00    +0.000 C 
ENDBRANCH  39  57
BRANCH  19  60
ATOM     60  C25 UNK     0      22.343  36.188  -5.007  0.00  0.00    +0.000 C 
ATOM     61  C30 UNK     0      23.522  36.038  -5.973  0.00  0.00    +0.000 C 
ATOM     62  C31 UNK     0      21.015  36.130  -5.766  0.00  0.00    +0.000 C 
ENDBRANCH  19  60
BRANCH  20  63
ATOM     63  O27 UNK     0      20.299  35.845  -2.584  0.00  0.00    +0.000 OA
ATOM     64  H34 UNK     0      20.125  35.847  -3.548  0.00  0.00    +0.000 HD
ENDBRANCH  20  63
BRANCH  27  65
ATOM     65  C45 UNK     0      22.297  40.880  -5.721  0.00  0.00    +0.000 C 
ATOM     66  C46 UNK     0      22.940  42.108  -6.352  0.00  0.00    +0.000 C 
ENDBRANCH  27  65
BRANCH  23  67
ATOM     67  C34 UNK     0      20.627  38.250  -0.314  0.00  0.00    +0.000 C 
BRANCH  67  68
ATOM     68  C35 UNK     0      20.414  36.803   0.230  0.00  0.00    +0.000 C 
ATOM     69  C41 UNK     0      18.947  36.396   0.398  0.00  0.00    +0.000 C 
BRANCH  68  70
ATOM     70  C36 UNK     0      21.179  36.641   1.572  0.00  0.00    +0.000 C 
BRANCH  70  71
ATOM     71  C37 UNK     0      22.261  35.594   1.527  0.00  0.00    +0.000 C 
ATOM     72  C38 UNK     0      22.075  34.345   1.074  0.00  0.00    +0.000 C 
ATOM     73  C39 UNK     0      23.142  33.302   1.036  0.00  0.00    +0.000 C 
ENDBRANCH  70  71
ENDBRANCH  68  70
ENDBRANCH  67  68
BRANCH  67  74
ATOM     74  O40 UNK     0      21.710  38.809   0.463  0.00  0.00    +0.000 OA
ATOM     75  H54 UNK     0      22.029  38.077   1.029  0.00  0.00    +0.000 HD
ENDBRANCH  67  74
ENDBRANCH  23  67
BRANCH  34  76
ATOM     76  C57 UNK     0      19.255  43.241  -9.356  0.00  0.00    +0.000 C 
BRANCH  76  77
ATOM     77  C58 UNK     0      20.709  43.611  -9.710  0.00  0.00    +0.000 C 
ATOM     78  C59 UNK     0      20.821  44.333 -11.053  0.00  0.00    +0.000 C 
ATOM     79  C76 UNK     0      21.297  44.494  -8.603  0.00  0.00    +0.000 C 
ENDBRANCH  76  77
ENDBRANCH  34  76
BRANCH  12  80
ATOM     80  C21 UNK     0      19.655  32.578  -5.253  0.00  0.00    +0.000 C 
BRANCH  80  81
ATOM     81  C82 UNK     0      18.435  32.872  -6.149  0.00  0.00    +0.000 C 
ATOM     82  C83 UNK     0      17.657  31.607  -6.508  0.00  0.00    +0.000 C 
ATOM     83  C84 UNK     0      18.894  33.573  -7.431  0.00  0.00    +0.000 C 
ENDBRANCH  80  81
ENDBRANCH  12  80
BRANCH  42  84
ATOM     84  C75 UNK     0      16.754  36.508 -10.900  0.00  0.00    +0.000 C 
BRANCH  84  85
ATOM     85  C79 UNK     0      16.368  35.862  -9.553  0.00  0.00    +0.000 C 
ATOM     86  C80 UNK     0      17.230  36.348  -8.388  0.00  0.00    +0.000 C 
ATOM     87  C81 UNK     0      16.476  34.338  -9.664  0.00  0.00    +0.000 C 
ENDBRANCH  84  85
ENDBRANCH  42  84
BRANCH   9  88
ATOM     88  C15 UNK     0      22.697  29.037  -8.712  0.00  0.00    +0.000 C 
BRANCH  88  89
ATOM     89  C16 UNK     0      22.310  27.543  -8.597  0.00  0.00    +0.000 C 
ATOM     90  C17 UNK     0      20.849  27.330  -8.208  0.00  0.00    +0.000 C 
ATOM     91  C18 UNK     0      22.598  26.832  -9.922  0.00  0.00    +0.000 C 
ENDBRANCH  88  89
ENDBRANCH   9  88
TORSDOF 17
ENDMDL
