MODEL 1
REMARK VINA RESULT:      -6.5      0.000      0.000
REMARK  Name = Danazol.pdbqt.pdb
REMARK  2 active torsions:
REMARK  status: ('A' for Active; 'I' for Inactive)
REMARK    1  A    between atoms: C_9  and  O_23
REMARK    2  A    between atoms: C_9  and  C_25
REMARK                            x       y       z     vdW  Elec       q    Type
REMARK                         _______ _______ _______ _____ _____    ______ ____
ROOT
ATOM      1  O   UNL     1      12.357  40.509  17.986  0.00  0.00    +0.000 OA
ATOM      2  N   UNL     1      11.931  40.735  19.312  0.00  0.00    +0.000 NA
ATOM      3  C   UNL     1       9.954  33.634  15.771  0.00  0.00    +0.000 C 
ATOM      4  C   UNL     1       8.890  32.876  16.726  0.00  0.00    +0.000 C 
ATOM      5  C   UNL     1      10.084  35.103  15.728  0.00  0.00    +0.000 C 
ATOM      6  C   UNL     1       9.392  36.085  16.634  0.00  0.00    +0.000 C 
ATOM      7  C   UNL     1       9.456  37.620  16.457  0.00  0.00    +0.000 C 
ATOM      8  C   UNL     1       8.383  33.920  17.630  0.00  0.00    +0.000 C 
ATOM      9  C   UNL     1       9.771  31.691  17.422  0.00  0.00    +0.000 C 
ATOM     10  C   UNL     1       8.588  35.413  17.595  0.00  0.00    +0.000 C 
ATOM     11  C   UNL     1      11.073  32.782  15.550  0.00  0.00    +0.000 C 
ATOM     12  C   UNL     1      11.009  35.732  14.863  0.00  0.00    +0.000 C 
ATOM     13  C   UNL     1      10.932  31.637  16.509  0.00  0.00    +0.000 C 
ATOM     14  C   UNL     1      10.750  38.168  15.573  0.00  0.00    +0.000 C 
ATOM     15  C   UNL     1       7.751  32.361  15.773  0.00  0.00    +0.000 C 
ATOM     16  C   UNL     1      11.362  37.186  14.756  0.00  0.00    +0.000 C 
ATOM     17  C   UNL     1       9.631  38.286  17.797  0.00  0.00    +0.000 C 
ATOM     18  C   UNL     1       8.169  38.112  15.737  0.00  0.00    +0.000 C 
ATOM     19  C   UNL     1      11.521  39.064  16.150  0.00  0.00    +0.000 C 
ATOM     20  C   UNL     1      10.544  39.238  18.337  0.00  0.00    +0.000 A 
ATOM     21  C   UNL     1      11.509  39.625  17.448  0.00  0.00    +0.000 A 
ATOM     22  C   UNL     1      10.838  39.962  19.489  0.00  0.00    +0.000 A 
ENDROOT
BRANCH   9  23
ATOM     23  O   UNL     1       9.135  30.404  17.451  0.00  0.00    +0.000 OA
ATOM     24  H   UNL     1       9.191  30.069  18.363  0.00  0.00    +0.000 HD
ENDBRANCH   9  23
BRANCH   9  25
ATOM     25  C   UNL     1      10.186  32.066  18.796  0.00  0.00    +0.000 C 
ATOM     26  C   UNL     1      10.496  32.378  19.907  0.00  0.00    +0.000 C 
ENDBRANCH   9  25
TORSDOF 2
ENDMDL
MODEL 2
REMARK VINA RESULT:      -6.4     25.404     29.548
REMARK  Name = Danazol.pdbqt.pdb
REMARK  2 active torsions:
REMARK  status: ('A' for Active; 'I' for Inactive)
REMARK    1  A    between atoms: C_9  and  O_23
REMARK    2  A    between atoms: C_9  and  C_25
REMARK                            x       y       z     vdW  Elec       q    Type
REMARK                         _______ _______ _______ _____ _____    ______ ____
ROOT
ATOM      1  O   UNL     1      -9.806  12.499  20.520  0.00  0.00    +0.000 OA
ATOM      2  N   UNL     1      -8.490  12.128  20.870  0.00  0.00    +0.000 NA
ATOM      3  C   UNL     1      -9.723  15.534  13.539  0.00  0.00    +0.000 C 
ATOM      4  C   UNL     1      -8.360  15.387  12.682  0.00  0.00    +0.000 C 
ATOM      5  C   UNL     1     -10.108  14.582  14.599  0.00  0.00    +0.000 C 
ATOM      6  C   UNL     1      -9.262  13.460  15.137  0.00  0.00    +0.000 C 
ATOM      7  C   UNL     1      -9.765  12.406  16.151  0.00  0.00    +0.000 C 
ATOM      8  C   UNL     1      -7.583  14.351  13.380  0.00  0.00    +0.000 C 
ATOM      9  C   UNL     1      -7.727  16.892  12.700  0.00  0.00    +0.000 C 
ATOM     10  C   UNL     1      -7.988  13.435  14.508  0.00  0.00    +0.000 C 
ATOM     11  C   UNL     1     -10.085  16.910  13.609  0.00  0.00    +0.000 C 
ATOM     12  C   UNL     1     -11.320  14.730  15.312  0.00  0.00    +0.000 C 
ATOM     13  C   UNL     1      -8.912  17.685  13.087  0.00  0.00    +0.000 C 
ATOM     14  C   UNL     1     -11.088  12.869  17.041  0.00  0.00    +0.000 C 
ATOM     15  C   UNL     1      -8.801  14.888  11.258  0.00  0.00    +0.000 C 
ATOM     16  C   UNL     1     -11.827  13.940  16.482  0.00  0.00    +0.000 C 
ATOM     17  C   UNL     1      -8.707  12.146  17.191  0.00  0.00    +0.000 C 
ATOM     18  C   UNL     1     -10.155  11.105  15.394  0.00  0.00    +0.000 C 
ATOM     19  C   UNL     1     -10.967  12.814  18.349  0.00  0.00    +0.000 C 
ATOM     20  C   UNL     1      -8.674  12.149  18.616  0.00  0.00    +0.000 A 
ATOM     21  C   UNL     1      -9.870  12.494  19.183  0.00  0.00    +0.000 A 
ATOM     22  C   UNL     1      -7.839  11.919  19.706  0.00  0.00    +0.000 A 
ENDROOT
BRANCH   9  23
ATOM     23  O   UNL     1      -7.243  17.359  11.431  0.00  0.00    +0.000 OA
ATOM     24  H   UNL     1      -6.680  18.135  11.598  0.00  0.00    +0.000 HD
ENDBRANCH   9  23
BRANCH   9  25
ATOM     25  C   UNL     1      -6.648  17.009  13.712  0.00  0.00    +0.000 C 
ATOM     26  C   UNL     1      -5.777  17.131  14.521  0.00  0.00    +0.000 C 
ENDBRANCH   9  25
TORSDOF 2
ENDMDL
MODEL 3
REMARK VINA RESULT:      -6.3     18.338     20.668
REMARK  Name = Danazol.pdbqt.pdb
REMARK  2 active torsions:
REMARK  status: ('A' for Active; 'I' for Inactive)
REMARK    1  A    between atoms: C_9  and  O_23
REMARK    2  A    between atoms: C_9  and  C_25
REMARK                            x       y       z     vdW  Elec       q    Type
REMARK                         _______ _______ _______ _____ _____    ______ ____
ROOT
ATOM      1  O   UNL     1     -10.671  44.114  19.087  0.00  0.00    +0.000 OA
ATOM      2  N   UNL     1      -9.733  43.623  20.020  0.00  0.00    +0.000 NA
ATOM      3  C   UNL     1      -8.714  41.708  12.136  0.00  0.00    +0.000 C 
ATOM      4  C   UNL     1      -7.556  40.582  12.038  0.00  0.00    +0.000 C 
ATOM      5  C   UNL     1      -9.577  41.866  13.322  0.00  0.00    +0.000 C 
ATOM      6  C   UNL     1      -9.427  41.145  14.634  0.00  0.00    +0.000 C 
ATOM      7  C   UNL     1     -10.441  41.246  15.798  0.00  0.00    +0.000 C 
ATOM      8  C   UNL     1      -7.433  40.047  13.403  0.00  0.00    +0.000 C 
ATOM      9  C   UNL     1      -6.265  41.404  11.471  0.00  0.00    +0.000 C 
ATOM     10  C   UNL     1      -8.299  40.280  14.615  0.00  0.00    +0.000 C 
ATOM     11  C   UNL     1      -8.352  42.821  11.326  0.00  0.00    +0.000 C 
ATOM     12  C   UNL     1     -10.595  42.847  13.362  0.00  0.00    +0.000 C 
ATOM     13  C   UNL     1      -6.922  42.610  10.926  0.00  0.00    +0.000 C 
ATOM     14  C   UNL     1     -11.409  42.594  15.766  0.00  0.00    +0.000 C 
ATOM     15  C   UNL     1      -8.107  39.485  11.056  0.00  0.00    +0.000 C 
ATOM     16  C   UNL     1     -11.490  43.230  14.503  0.00  0.00    +0.000 C 
ATOM     17  C   UNL     1      -9.709  41.362  17.110  0.00  0.00    +0.000 C 
ATOM     18  C   UNL     1     -11.380  40.007  15.775  0.00  0.00    +0.000 C 
ATOM     19  C   UNL     1     -11.403  43.349  16.843  0.00  0.00    +0.000 C 
ATOM     20  C   UNL     1      -9.757  42.263  18.214  0.00  0.00    +0.000 A 
ATOM     21  C   UNL     1     -10.656  43.280  18.041  0.00  0.00    +0.000 A 
ATOM     22  C   UNL     1      -9.207  42.508  19.468  0.00  0.00    +0.000 A 
ENDROOT
BRANCH   9  23
ATOM     23  O   UNL     1      -5.544  40.744  10.419  0.00  0.00    +0.000 OA
ATOM     24  H   UNL     1      -5.839  39.817  10.396  0.00  0.00    +0.000 HD
ENDBRANCH   9  23
BRANCH   9  25
ATOM     25  C   UNL     1      -5.327  41.753  12.567  0.00  0.00    +0.000 C 
ATOM     26  C   UNL     1      -4.578  42.061  13.446  0.00  0.00    +0.000 C 
ENDBRANCH   9  25
TORSDOF 2
ENDMDL
MODEL 4
REMARK VINA RESULT:      -6.0     27.292     30.305
REMARK  Name = Danazol.pdbqt.pdb
REMARK  2 active torsions:
REMARK  status: ('A' for Active; 'I' for Inactive)
REMARK    1  A    between atoms: C_9  and  O_23
REMARK    2  A    between atoms: C_9  and  C_25
REMARK                            x       y       z     vdW  Elec       q    Type
REMARK                         _______ _______ _______ _____ _____    ______ ____
ROOT
ATOM      1  O   UNL     1      -1.744  58.901  15.432  0.00  0.00    +0.000 OA
ATOM      2  N   UNL     1      -2.940  58.273  15.025  0.00  0.00    +0.000 NA
ATOM      3  C   UNL     1       0.013  64.332  10.396  0.00  0.00    +0.000 C 
ATOM      4  C   UNL     1      -1.111  64.718   9.298  0.00  0.00    +0.000 C 
ATOM      5  C   UNL     1      -0.322  63.766  11.717  0.00  0.00    +0.000 C 
ATOM      6  C   UNL     1      -1.686  63.329  12.178  0.00  0.00    +0.000 C 
ATOM      7  C   UNL     1      -2.006  62.869  13.620  0.00  0.00    +0.000 C 
ATOM      8  C   UNL     1      -2.359  64.134   9.812  0.00  0.00    +0.000 C 
ATOM      9  C   UNL     1      -0.535  64.075   7.913  0.00  0.00    +0.000 C 
ATOM     10  C   UNL     1      -2.652  63.502  11.150  0.00  0.00    +0.000 C 
ATOM     11  C   UNL     1       1.223  63.994   9.727  0.00  0.00    +0.000 C 
ATOM     12  C   UNL     1       0.686  63.462  12.661  0.00  0.00    +0.000 C 
ATOM     13  C   UNL     1       0.884  63.874   8.270  0.00  0.00    +0.000 C 
ATOM     14  C   UNL     1      -0.694  62.352  14.495  0.00  0.00    +0.000 C 
ATOM     15  C   UNL     1      -1.189  66.289   9.299  0.00  0.00    +0.000 C 
ATOM     16  C   UNL     1       0.557  62.788  13.994  0.00  0.00    +0.000 C 
ATOM     17  C   UNL     1      -2.912  61.666  13.588  0.00  0.00    +0.000 C 
ATOM     18  C   UNL     1      -2.646  64.047  14.408  0.00  0.00    +0.000 C 
ATOM     19  C   UNL     1      -0.769  61.145  15.012  0.00  0.00    +0.000 C 
ATOM     20  C   UNL     1      -2.879  60.365  14.169  0.00  0.00    +0.000 A 
ATOM     21  C   UNL     1      -1.752  60.133  14.909  0.00  0.00    +0.000 A 
ATOM     22  C   UNL     1      -3.601  59.180  14.274  0.00  0.00    +0.000 A 
ENDROOT
BRANCH   9  23
ATOM     23  O   UNL     1      -0.615  64.937   6.768  0.00  0.00    +0.000 OA
ATOM     24  H   UNL     1      -0.889  65.817   7.080  0.00  0.00    +0.000 HD
ENDBRANCH   9  23
BRANCH   9  25
ATOM     25  C   UNL     1      -1.198  62.784   7.604  0.00  0.00    +0.000 C 
ATOM     26  C   UNL     1      -1.720  61.744   7.330  0.00  0.00    +0.000 C 
ENDBRANCH   9  25
TORSDOF 2
ENDMDL
MODEL 5
REMARK VINA RESULT:      -6.0     18.527     21.041
REMARK  Name = Danazol.pdbqt.pdb
REMARK  2 active torsions:
REMARK  status: ('A' for Active; 'I' for Inactive)
REMARK    1  A    between atoms: C_9  and  O_23
REMARK    2  A    between atoms: C_9  and  C_25
REMARK                            x       y       z     vdW  Elec       q    Type
REMARK                         _______ _______ _______ _____ _____    ______ ____
ROOT
ATOM      1  O   UNL     1     -12.278  43.321  19.089  0.00  0.00    +0.000 OA
ATOM      2  N   UNL     1     -11.877  44.602  19.523  0.00  0.00    +0.000 NA
ATOM      3  C   UNL     1      -8.216  41.426  12.937  0.00  0.00    +0.000 C 
ATOM      4  C   UNL     1      -6.953  42.365  12.564  0.00  0.00    +0.000 C 
ATOM      5  C   UNL     1      -8.734  41.294  14.312  0.00  0.00    +0.000 C 
ATOM      6  C   UNL     1      -8.295  42.092  15.510  0.00  0.00    +0.000 C 
ATOM      7  C   UNL     1      -8.773  41.820  16.955  0.00  0.00    +0.000 C 
ATOM      8  C   UNL     1      -6.707  43.168  13.771  0.00  0.00    +0.000 C 
ATOM      9  C   UNL     1      -7.458  43.187  11.247  0.00  0.00    +0.000 C 
ATOM     10  C   UNL     1      -7.305  43.047  15.151  0.00  0.00    +0.000 C 
ATOM     11  C   UNL     1      -9.075  41.326  11.806  0.00  0.00    +0.000 C 
ATOM     12  C   UNL     1      -9.826  40.445  14.606  0.00  0.00    +0.000 C 
ATOM     13  C   UNL     1      -8.596  42.348  10.817  0.00  0.00    +0.000 C 
ATOM     14  C   UNL     1     -10.199  40.978  17.072  0.00  0.00    +0.000 C 
ATOM     15  C   UNL     1      -5.755  41.384  12.293  0.00  0.00    +0.000 C 
ATOM     16  C   UNL     1     -10.557  40.263  15.902  0.00  0.00    +0.000 C 
ATOM     17  C   UNL     1      -9.067  43.121  17.654  0.00  0.00    +0.000 C 
ATOM     18  C   UNL     1      -7.692  40.996  17.710  0.00  0.00    +0.000 C 
ATOM     19  C   UNL     1     -11.158  41.538  17.776  0.00  0.00    +0.000 C 
ATOM     20  C   UNL     1     -10.180  43.649  18.372  0.00  0.00    +0.000 A 
ATOM     21  C   UNL     1     -11.247  42.794  18.420  0.00  0.00    +0.000 A 
ATOM     22  C   UNL     1     -10.612  44.766  19.082  0.00  0.00    +0.000 A 
ENDROOT
BRANCH   9  23
ATOM     23  O   UNL     1      -6.501  43.264  10.179  0.00  0.00    +0.000 OA
ATOM     24  H   UNL     1      -5.672  43.611  10.551  0.00  0.00    +0.000 HD
ENDBRANCH   9  23
BRANCH   9  25
ATOM     25  C   UNL     1      -7.906  44.555  11.606  0.00  0.00    +0.000 C 
ATOM     26  C   UNL     1      -8.292  45.649  11.892  0.00  0.00    +0.000 C 
ENDBRANCH   9  25
TORSDOF 2
ENDMDL
MODEL 6
REMARK VINA RESULT:      -5.8      3.359      5.826
REMARK  Name = Danazol.pdbqt.pdb
REMARK  2 active torsions:
REMARK  status: ('A' for Active; 'I' for Inactive)
REMARK    1  A    between atoms: C_9  and  O_23
REMARK    2  A    between atoms: C_9  and  C_25
REMARK                            x       y       z     vdW  Elec       q    Type
REMARK                         _______ _______ _______ _____ _____    ______ ____
ROOT
ATOM      1  O   UNL     1      10.470  36.182  24.282  0.00  0.00    +0.000 OA
ATOM      2  N   UNL     1      11.791  36.624  24.504  0.00  0.00    +0.000 NA
ATOM      3  C   UNL     1       9.330  35.511  16.786  0.00  0.00    +0.000 C 
ATOM      4  C   UNL     1      10.627  35.616  15.826  0.00  0.00    +0.000 C 
ATOM      5  C   UNL     1       9.409  35.064  18.190  0.00  0.00    +0.000 C 
ATOM      6  C   UNL     1      10.669  34.796  18.969  0.00  0.00    +0.000 C 
ATOM      7  C   UNL     1      10.694  34.199  20.395  0.00  0.00    +0.000 C 
ATOM      8  C   UNL     1      11.779  35.456  16.726  0.00  0.00    +0.000 C 
ATOM      9  C   UNL     1      10.468  37.079  15.119  0.00  0.00    +0.000 C 
ATOM     10  C   UNL     1      11.822  35.059  18.180  0.00  0.00    +0.000 C 
ATOM     11  C   UNL     1       8.356  36.458  16.361  0.00  0.00    +0.000 C 
ATOM     12  C   UNL     1       8.250  34.962  18.993  0.00  0.00    +0.000 C 
ATOM     13  C   UNL     1       9.036  37.351  15.365  0.00  0.00    +0.000 C 
ATOM     14  C   UNL     1       9.282  34.372  21.250  0.00  0.00    +0.000 C 
ATOM     15  C   UNL     1      10.523  34.403  14.830  0.00  0.00    +0.000 C 
ATOM     16  C   UNL     1       8.141  34.638  20.454  0.00  0.00    +0.000 C 
ATOM     17  C   UNL     1      11.714  34.919  21.238  0.00  0.00    +0.000 C 
ATOM     18  C   UNL     1      10.995  32.675  20.312  0.00  0.00    +0.000 C 
ATOM     19  C   UNL     1       9.371  34.960  22.423  0.00  0.00    +0.000 C 
ATOM     20  C   UNL     1      11.694  35.566  22.508  0.00  0.00    +0.000 A 
ATOM     21  C   UNL     1      10.460  35.560  23.098  0.00  0.00    +0.000 A 
ATOM     22  C   UNL     1      12.502  36.233  23.424  0.00  0.00    +0.000 A 
ENDROOT
BRANCH   9  23
ATOM     23  O   UNL     1      10.713  37.097  13.705  0.00  0.00    +0.000 OA
ATOM     24  H   UNL     1       9.851  37.143  13.257  0.00  0.00    +0.000 HD
ENDBRANCH   9  23
BRANCH   9  25
ATOM     25  C   UNL     1      11.327  38.092  15.781  0.00  0.00    +0.000 C 
ATOM     26  C   UNL     1      12.005  38.928  16.300  0.00  0.00    +0.000 C 
ENDBRANCH   9  25
TORSDOF 2
ENDMDL
MODEL 7
REMARK VINA RESULT:      -5.8     20.090     22.122
REMARK  Name = Danazol.pdbqt.pdb
REMARK  2 active torsions:
REMARK  status: ('A' for Active; 'I' for Inactive)
REMARK    1  A    between atoms: C_9  and  O_23
REMARK    2  A    between atoms: C_9  and  C_25
REMARK                            x       y       z     vdW  Elec       q    Type
REMARK                         _______ _______ _______ _____ _____    ______ ____
ROOT
ATOM      1  O   UNL     1     -12.615  43.398  18.633  0.00  0.00    +0.000 OA
ATOM      2  N   UNL     1     -12.916  44.759  18.413  0.00  0.00    +0.000 NA
ATOM      3  C   UNL     1      -9.476  40.527  12.320  0.00  0.00    +0.000 C 
ATOM      4  C   UNL     1      -9.047  41.573  11.163  0.00  0.00    +0.000 C 
ATOM      5  C   UNL     1      -9.554  40.901  13.746  0.00  0.00    +0.000 C 
ATOM      6  C   UNL     1      -9.407  42.287  14.311  0.00  0.00    +0.000 C 
ATOM      7  C   UNL     1      -9.362  42.605  15.825  0.00  0.00    +0.000 C 
ATOM      8  C   UNL     1      -9.058  42.889  11.818  0.00  0.00    +0.000 C 
ATOM      9  C   UNL     1     -10.167  41.342   9.999  0.00  0.00    +0.000 C 
ATOM     10  C   UNL     1      -9.205  43.242  13.277  0.00  0.00    +0.000 C 
ATOM     11  C   UNL     1     -10.336  39.539  11.762  0.00  0.00    +0.000 C 
ATOM     12  C   UNL     1      -9.910  39.953  14.733  0.00  0.00    +0.000 C 
ATOM     13  C   UNL     1     -10.708  40.024  10.392  0.00  0.00    +0.000 C 
ATOM     14  C   UNL     1     -10.026  41.439  16.803  0.00  0.00    +0.000 C 
ATOM     15  C   UNL     1      -7.586  41.171  10.742  0.00  0.00    +0.000 C 
ATOM     16  C   UNL     1     -10.148  40.164  16.199  0.00  0.00    +0.000 C 
ATOM     17  C   UNL     1     -10.185  43.831  16.119  0.00  0.00    +0.000 C 
ATOM     18  C   UNL     1      -7.883  42.787  16.270  0.00  0.00    +0.000 C 
ATOM     19  C   UNL     1     -10.976  41.831  17.624  0.00  0.00    +0.000 C 
ATOM     20  C   UNL     1     -11.238  44.143  17.027  0.00  0.00    +0.000 A 
ATOM     21  C   UNL     1     -11.618  43.079  17.799  0.00  0.00    +0.000 A 
ATOM     22  C   UNL     1     -12.068  45.178  17.448  0.00  0.00    +0.000 A 
ENDROOT
BRANCH   9  23
ATOM     23  O   UNL     1      -9.644  41.256   8.664  0.00  0.00    +0.000 OA
ATOM     24  H   UNL     1      -8.783  40.806   8.714  0.00  0.00    +0.000 HD
ENDBRANCH   9  23
BRANCH   9  25
ATOM     25  C   UNL     1     -11.218  42.389  10.049  0.00  0.00    +0.000 C 
ATOM     26  C   UNL     1     -12.045  43.250  10.092  0.00  0.00    +0.000 C 
ENDBRANCH   9  25
TORSDOF 2
ENDMDL
MODEL 8
REMARK VINA RESULT:      -5.7     23.092     25.879
REMARK  Name = Danazol.pdbqt.pdb
REMARK  2 active torsions:
REMARK  status: ('A' for Active; 'I' for Inactive)
REMARK    1  A    between atoms: C_9  and  O_23
REMARK    2  A    between atoms: C_9  and  C_25
REMARK                            x       y       z     vdW  Elec       q    Type
REMARK                         _______ _______ _______ _____ _____    ______ ____
ROOT
ATOM      1  O   UNL     1      17.492  32.767  -6.918  0.00  0.00    +0.000 OA
ATOM      2  N   UNL     1      18.188  32.077  -5.903  0.00  0.00    +0.000 NA
ATOM      3  C   UNL     1      19.122  40.185  -6.404  0.00  0.00    +0.000 C 
ATOM      4  C   UNL     1      20.327  40.613  -5.414  0.00  0.00    +0.000 C 
ATOM      5  C   UNL     1      19.043  38.855  -7.040  0.00  0.00    +0.000 C 
ATOM      6  C   UNL     1      19.944  37.682  -6.762  0.00  0.00    +0.000 C 
ATOM      7  C   UNL     1      19.905  36.354  -7.554  0.00  0.00    +0.000 C 
ATOM      8  C   UNL     1      21.049  39.363  -5.133  0.00  0.00    +0.000 C 
ATOM      9  C   UNL     1      19.561  41.300  -4.147  0.00  0.00    +0.000 C 
ATOM     10  C   UNL     1      20.900  37.999  -5.758  0.00  0.00    +0.000 C 
ATOM     11  C   UNL     1      17.949  40.912  -6.054  0.00  0.00    +0.000 C 
ATOM     12  C   UNL     1      17.987  38.524  -7.919  0.00  0.00    +0.000 C 
ATOM     13  C   UNL     1      18.237  41.579  -4.742  0.00  0.00    +0.000 C 
ATOM     14  C   UNL     1      18.481  36.060  -8.355  0.00  0.00    +0.000 C 
ATOM     15  C   UNL     1      21.227  41.604  -6.239  0.00  0.00    +0.000 C 
ATOM     16  C   UNL     1      17.677  37.207  -8.567  0.00  0.00    +0.000 C 
ATOM     17  C   UNL     1      20.034  35.187  -6.610  0.00  0.00    +0.000 C 
ATOM     18  C   UNL     1      21.037  36.356  -8.620  0.00  0.00    +0.000 C 
ATOM     19  C   UNL     1      17.880  34.922  -8.087  0.00  0.00    +0.000 C 
ATOM     20  C   UNL     1      19.287  33.996  -6.376  0.00  0.00    +0.000 A 
ATOM     21  C   UNL     1      18.178  33.889  -7.168  0.00  0.00    +0.000 A 
ATOM     22  C   UNL     1      19.263  32.837  -5.605  0.00  0.00    +0.000 A 
ENDROOT
BRANCH   9  23
ATOM     23  O   UNL     1      20.138  42.531  -3.686  0.00  0.00    +0.000 OA
ATOM     24  H   UNL     1      20.607  42.344  -2.855  0.00  0.00    +0.000 HD
ENDBRANCH   9  23
BRANCH   9  25
ATOM     25  C   UNL     1      19.449  40.353  -3.010  0.00  0.00    +0.000 C 
ATOM     26  C   UNL     1      19.383  39.598  -2.085  0.00  0.00    +0.000 C 
ENDBRANCH   9  25
TORSDOF 2
ENDMDL
MODEL 9
REMARK VINA RESULT:      -5.7     12.769     14.915
REMARK  Name = Danazol.pdbqt.pdb
REMARK  2 active torsions:
REMARK  status: ('A' for Active; 'I' for Inactive)
REMARK    1  A    between atoms: C_9  and  O_23
REMARK    2  A    between atoms: C_9  and  C_25
REMARK                            x       y       z     vdW  Elec       q    Type
REMARK                         _______ _______ _______ _____ _____    ______ ____
ROOT
ATOM      1  O   UNL     1      20.512  44.735   7.541  0.00  0.00    +0.000 OA
ATOM      2  N   UNL     1      20.511  45.661   6.476  0.00  0.00    +0.000 NA
ATOM      3  C   UNL     1      14.464  46.079  11.964  0.00  0.00    +0.000 C 
ATOM      4  C   UNL     1      13.346  47.104  11.402  0.00  0.00    +0.000 C 
ATOM      5  C   UNL     1      15.349  45.297  11.080  0.00  0.00    +0.000 C 
ATOM      6  C   UNL     1      15.459  45.434   9.586  0.00  0.00    +0.000 C 
ATOM      7  C   UNL     1      16.302  44.496   8.690  0.00  0.00    +0.000 C 
ATOM      8  C   UNL     1      13.641  47.236   9.967  0.00  0.00    +0.000 C 
ATOM      9  C   UNL     1      13.562  48.446  12.305  0.00  0.00    +0.000 C 
ATOM     10  C   UNL     1      14.603  46.461   9.102  0.00  0.00    +0.000 C 
ATOM     11  C   UNL     1      14.896  46.517  13.249  0.00  0.00    +0.000 C 
ATOM     12  C   UNL     1      16.300  44.393  11.607  0.00  0.00    +0.000 C 
ATOM     13  C   UNL     1      14.334  47.895  13.439  0.00  0.00    +0.000 C 
ATOM     14  C   UNL     1      17.511  43.677   9.480  0.00  0.00    +0.000 C 
ATOM     15  C   UNL     1      11.962  46.391  11.623  0.00  0.00    +0.000 C 
ATOM     16  C   UNL     1      17.349  43.602  10.885  0.00  0.00    +0.000 C 
ATOM     17  C   UNL     1      17.036  45.300   7.649  0.00  0.00    +0.000 C 
ATOM     18  C   UNL     1      15.375  43.430   8.041  0.00  0.00    +0.000 C 
ATOM     19  C   UNL     1      18.727  43.816   9.001  0.00  0.00    +0.000 C 
ATOM     20  C   UNL     1      18.394  45.402   7.229  0.00  0.00    +0.000 A 
ATOM     21  C   UNL     1      19.244  44.610   7.951  0.00  0.00    +0.000 A 
ATOM     22  C   UNL     1      19.225  46.037   6.310  0.00  0.00    +0.000 A 
ENDROOT
BRANCH   9  23
ATOM     23  O   UNL     1      12.353  49.040  12.804  0.00  0.00    +0.000 OA
ATOM     24  H   UNL     1      12.049  49.687  12.144  0.00  0.00    +0.000 HD
ENDBRANCH   9  23
BRANCH   9  25
ATOM     25  C   UNL     1      14.346  49.469  11.570  0.00  0.00    +0.000 C 
ATOM     26  C   UNL     1      14.990  50.299  11.000  0.00  0.00    +0.000 C 
ENDBRANCH   9  25
TORSDOF 2
ENDMDL
