MODEL 1
REMARK VINA RESULT:      -8.1      0.000      0.000
REMARK  Name = Dasatinib.pdbqt.pdb
REMARK  5 active torsions:
REMARK  status: ('A' for Active; 'I' for Inactive)
REMARK    1  A    between atoms: N_1  and  C_3
REMARK    2  A    between atoms: N_13  and  C_16
REMARK    3  A    between atoms: C_17  and  O_18
REMARK    4  A    between atoms: C_22  and  C_25
REMARK    5  A    between atoms: N_27  and  C_29
REMARK                            x       y       z     vdW  Elec       q    Type
REMARK                         _______ _______ _______ _____ _____    ______ ____
ROOT
ATOM      1  N   UNL     1       8.270  28.124  14.670  0.00  0.00    +0.000 N 
ATOM      2  H   UNL     1       7.758  27.253  14.605  0.00  0.00    +0.000 HD
ATOM      3  C   UNL     1       7.567  29.203  15.085  0.00  0.00    +0.000 A 
ATOM      4  S   UNL     1       5.861  29.050  15.319  0.00  0.00    +0.000 S 
ATOM      5  C   UNL     1       5.766  30.700  15.771  0.00  0.00    +0.000 A 
ATOM      6  C   UNL     1       7.025  31.247  15.702  0.00  0.00    +0.000 A 
ATOM      7  N   UNL     1       8.034  30.415  15.289  0.00  0.00    +0.000 NA
ENDROOT
BRANCH   1   8
ATOM      8  C   UNL     1       9.652  27.935  14.891  0.00  0.00    +0.000 A 
ATOM      9  N   UNL     1      10.542  28.020  13.896  0.00  0.00    +0.000 NA
ATOM     10  C   UNL     1      11.821  27.769  14.195  0.00  0.00    +0.000 A 
ATOM     11  N   UNL     1      12.288  27.455  15.409  0.00  0.00    +0.000 NA
ATOM     12  C   UNL     1      12.827  27.882  13.087  0.00  0.00    +0.000 C 
ATOM     13  C   UNL     1      11.391  27.386  16.408  0.00  0.00    +0.000 A 
ATOM     14  C   UNL     1      10.043  27.611  16.178  0.00  0.00    +0.000 A 
ATOM     15  N   UNL     1      11.806  27.017  17.716  0.00  0.00    +0.000 N 
ATOM     16  C   UNL     1      11.106  27.630  18.876  0.00  0.00    +0.000 C 
ATOM     17  C   UNL     1      11.732  28.328  20.113  0.00  0.00    +0.000 C 
ATOM     18  N   UNL     1      13.141  28.600  20.517  0.00  0.00    +0.000 N 
ATOM     19  C   UNL     1      13.785  27.967  19.332  0.00  0.00    +0.000 C 
ATOM     20  C   UNL     1      13.230  27.258  18.069  0.00  0.00    +0.000 C 
BRANCH  18  21
ATOM     21  C   UNL     1      13.423  27.738  21.656  0.00  0.00    +0.000 C 
ATOM     22  C   UNL     1      13.721  26.829  22.856  0.00  0.00    +0.000 C 
BRANCH  22  23
ATOM     23  O   UNL     1      13.980  26.040  23.892  0.00  0.00    +0.000 OA
ATOM     24  H   UNL     1      14.759  25.487  23.712  0.00  0.00    +0.000 HD
ENDBRANCH  22  23
ENDBRANCH  18  21
ENDBRANCH   1   8
BRANCH   5  25
ATOM     25  C   UNL     1       4.508  31.299  16.159  0.00  0.00    +0.000 C 
ATOM     26  O   UNL     1       4.323  31.825  17.253  0.00  0.00    +0.000 OA
ATOM     27  N   UNL     1       3.494  31.156  15.221  0.00  0.00    +0.000 N 
ATOM     28  H   UNL     1       3.539  30.315  14.647  0.00  0.00    +0.000 HD
BRANCH  27  29
ATOM     29  C   UNL     1       2.176  31.682  15.387  0.00  0.00    +0.000 A 
ATOM     30  C   UNL     1       1.126  30.769  15.616  0.00  0.00    +0.000 A 
ATOM     31  C   UNL     1      -0.183  31.202  15.821  0.00  0.00    +0.000 A 
ATOM     32  C   UNL     1       1.398  29.279  15.663  0.00  0.00    +0.000 C 
ATOM     33  C   UNL     1      -0.476  32.559  15.782  0.00  0.00    +0.000 A 
ATOM     34  C   UNL     1       0.532  33.471  15.490  0.00  0.00    +0.000 A 
ATOM     35  C   UNL     1       1.847  33.044  15.284  0.00  0.00    +0.000 A 
ATOM     36 CL   UNL     1       2.927  34.244  14.666  0.00  0.00    +0.000 Cl
ENDBRANCH  27  29
ENDBRANCH   5  25
TORSDOF 5
ENDMDL
MODEL 2
REMARK VINA RESULT:      -7.8      5.906     10.839
REMARK  Name = Dasatinib.pdbqt.pdb
REMARK  5 active torsions:
REMARK  status: ('A' for Active; 'I' for Inactive)
REMARK    1  A    between atoms: N_1  and  C_3
REMARK    2  A    between atoms: N_13  and  C_16
REMARK    3  A    between atoms: C_17  and  O_18
REMARK    4  A    between atoms: C_22  and  C_25
REMARK    5  A    between atoms: N_27  and  C_29
REMARK                            x       y       z     vdW  Elec       q    Type
REMARK                         _______ _______ _______ _____ _____    ______ ____
ROOT
ATOM      1  N   UNL     1       8.284  31.677  16.523  0.00  0.00    +0.000 N 
ATOM      2  H   UNL     1       9.116  31.103  16.591  0.00  0.00    +0.000 HD
ATOM      3  C   UNL     1       8.485  33.001  16.327  0.00  0.00    +0.000 A 
ATOM      4  S   UNL     1      10.101  33.615  16.360  0.00  0.00    +0.000 S 
ATOM      5  C   UNL     1       9.514  35.200  16.079  0.00  0.00    +0.000 A 
ATOM      6  C   UNL     1       8.143  35.151  15.993  0.00  0.00    +0.000 A 
ATOM      7  N   UNL     1       7.561  33.920  16.160  0.00  0.00    +0.000 NA
ENDROOT
BRANCH   1   8
ATOM      8  C   UNL     1       7.157  30.961  16.064  0.00  0.00    +0.000 A 
ATOM      9  N   UNL     1       7.217  29.652  15.794  0.00  0.00    +0.000 NA
ATOM     10  C   UNL     1       6.112  29.075  15.310  0.00  0.00    +0.000 A 
ATOM     11  N   UNL     1       4.946  29.693  15.089  0.00  0.00    +0.000 NA
ATOM     12  C   UNL     1       6.167  27.603  15.023  0.00  0.00    +0.000 C 
ATOM     13  C   UNL     1       4.887  31.005  15.377  0.00  0.00    +0.000 A 
ATOM     14  C   UNL     1       5.995  31.683  15.862  0.00  0.00    +0.000 A 
ATOM     15  N   UNL     1       3.695  31.737  15.129  0.00  0.00    +0.000 N 
ATOM     16  C   UNL     1       3.346  32.849  16.054  0.00  0.00    +0.000 C 
ATOM     17  C   UNL     1       1.995  33.107  16.774  0.00  0.00    +0.000 C 
ATOM     18  N   UNL     1       0.696  32.377  16.780  0.00  0.00    +0.000 N 
ATOM     19  C   UNL     1       1.103  31.291  15.845  0.00  0.00    +0.000 C 
ATOM     20  C   UNL     1       2.422  30.971  15.094  0.00  0.00    +0.000 C 
BRANCH  18  21
ATOM     21  C   UNL     1      -0.256  33.213  16.062  0.00  0.00    +0.000 C 
ATOM     22  C   UNL     1      -1.261  34.091  15.304  0.00  0.00    +0.000 C 
BRANCH  22  23
ATOM     23  O   UNL     1      -2.131  34.849  14.648  0.00  0.00    +0.000 OA
ATOM     24  H   UNL     1      -2.142  35.748  15.016  0.00  0.00    +0.000 HD
ENDBRANCH  22  23
ENDBRANCH  18  21
ENDBRANCH   1   8
BRANCH   5  25
ATOM     25  C   UNL     1      10.417  36.322  15.957  0.00  0.00    +0.000 C 
ATOM     26  O   UNL     1      11.149  36.494  14.985  0.00  0.00    +0.000 OA
ATOM     27  N   UNL     1      10.452  37.152  17.070  0.00  0.00    +0.000 N 
ATOM     28  H   UNL     1      10.272  36.698  17.964  0.00  0.00    +0.000 HD
BRANCH  27  29
ATOM     29  C   UNL     1      11.260  38.327  17.162  0.00  0.00    +0.000 A 
ATOM     30  C   UNL     1      10.675  39.560  16.806  0.00  0.00    +0.000 A 
ATOM     31  C   UNL     1      11.385  40.755  16.898  0.00  0.00    +0.000 A 
ATOM     32  C   UNL     1       9.239  39.620  16.327  0.00  0.00    +0.000 C 
ATOM     33  C   UNL     1      12.705  40.744  17.329  0.00  0.00    +0.000 A 
ATOM     34  C   UNL     1      13.322  39.533  17.620  0.00  0.00    +0.000 A 
ATOM     35  C   UNL     1      12.616  38.329  17.530  0.00  0.00    +0.000 A 
ATOM     36 CL   UNL     1      13.576  36.897  17.651  0.00  0.00    +0.000 Cl
ENDBRANCH  27  29
ENDBRANCH   5  25
TORSDOF 5
ENDMDL
MODEL 3
REMARK VINA RESULT:      -7.6      6.417     11.664
REMARK  Name = Dasatinib.pdbqt.pdb
REMARK  5 active torsions:
REMARK  status: ('A' for Active; 'I' for Inactive)
REMARK    1  A    between atoms: N_1  and  C_3
REMARK    2  A    between atoms: N_13  and  C_16
REMARK    3  A    between atoms: C_17  and  O_18
REMARK    4  A    between atoms: C_22  and  C_25
REMARK    5  A    between atoms: N_27  and  C_29
REMARK                            x       y       z     vdW  Elec       q    Type
REMARK                         _______ _______ _______ _____ _____    ______ ____
ROOT
ATOM      1  N   UNL     1       7.170  33.657  17.422  0.00  0.00    +0.000 N 
ATOM      2  H   UNL     1       7.681  33.272  18.207  0.00  0.00    +0.000 HD
ATOM      3  C   UNL     1       7.666  34.796  16.886  0.00  0.00    +0.000 A 
ATOM      4  S   UNL     1       9.008  35.569  17.657  0.00  0.00    +0.000 S 
ATOM      5  C   UNL     1       8.984  36.809  16.476  0.00  0.00    +0.000 A 
ATOM      6  C   UNL     1       7.961  36.556  15.594  0.00  0.00    +0.000 A 
ATOM      7  N   UNL     1       7.201  35.441  15.839  0.00  0.00    +0.000 NA
ENDROOT
BRANCH   1   8
ATOM      8  C   UNL     1       6.450  32.680  16.701  0.00  0.00    +0.000 A 
ATOM      9  N   UNL     1       6.992  31.498  16.386  0.00  0.00    +0.000 NA
ATOM     10  C   UNL     1       6.250  30.661  15.651  0.00  0.00    +0.000 A 
ATOM     11  N   UNL     1       5.007  30.900  15.220  0.00  0.00    +0.000 NA
ATOM     12  C   UNL     1       6.845  29.325  15.311  0.00  0.00    +0.000 C 
ATOM     13  C   UNL     1       4.462  32.083  15.552  0.00  0.00    +0.000 A 
ATOM     14  C   UNL     1       5.172  33.015  16.293  0.00  0.00    +0.000 A 
ATOM     15  N   UNL     1       3.161  32.424  15.094  0.00  0.00    +0.000 N 
ATOM     16  C   UNL     1       2.299  33.253  15.978  0.00  0.00    +0.000 C 
ATOM     17  C   UNL     1       0.831  32.986  16.408  0.00  0.00    +0.000 C 
ATOM     18  N   UNL     1      -0.128  31.887  16.104  0.00  0.00    +0.000 N 
ATOM     19  C   UNL     1       0.782  31.101  15.224  0.00  0.00    +0.000 C 
ATOM     20  C   UNL     1       2.246  31.304  14.754  0.00  0.00    +0.000 C 
BRANCH  18  21
ATOM     21  C   UNL     1      -1.156  32.456  15.242  0.00  0.00    +0.000 C 
ATOM     22  C   UNL     1      -2.239  33.053  14.335  0.00  0.00    +0.000 C 
BRANCH  22  23
ATOM     23  O   UNL     1      -3.178  33.568  13.550  0.00  0.00    +0.000 OA
ATOM     24  H   UNL     1      -3.592  34.337  13.976  0.00  0.00    +0.000 HD
ENDBRANCH  22  23
ENDBRANCH  18  21
ENDBRANCH   1   8
BRANCH   5  25
ATOM     25  C   UNL     1       9.949  37.886  16.501  0.00  0.00    +0.000 C 
ATOM     26  O   UNL     1       9.857  38.888  15.796  0.00  0.00    +0.000 OA
ATOM     27  N   UNL     1      11.039  37.657  17.331  0.00  0.00    +0.000 N 
ATOM     28  H   UNL     1      11.313  36.682  17.439  0.00  0.00    +0.000 HD
BRANCH  27  29
ATOM     29  C   UNL     1      12.104  38.590  17.521  0.00  0.00    +0.000 A 
ATOM     30  C   UNL     1      13.288  38.399  16.779  0.00  0.00    +0.000 A 
ATOM     31  C   UNL     1      14.361  39.283  16.881  0.00  0.00    +0.000 A 
ATOM     32  C   UNL     1      13.419  37.228  15.827  0.00  0.00    +0.000 C 
ATOM     33  C   UNL     1      14.283  40.368  17.745  0.00  0.00    +0.000 A 
ATOM     34  C   UNL     1      13.153  40.536  18.536  0.00  0.00    +0.000 A 
ATOM     35  C   UNL     1      12.072  39.654  18.439  0.00  0.00    +0.000 A 
ATOM     36 CL   UNL     1      10.866  39.822  19.665  0.00  0.00    +0.000 Cl
ENDBRANCH  27  29
ENDBRANCH   5  25
TORSDOF 5
ENDMDL
MODEL 4
REMARK VINA RESULT:      -7.4     16.167     21.025
REMARK  Name = Dasatinib.pdbqt.pdb
REMARK  5 active torsions:
REMARK  status: ('A' for Active; 'I' for Inactive)
REMARK    1  A    between atoms: N_1  and  C_3
REMARK    2  A    between atoms: N_13  and  C_16
REMARK    3  A    between atoms: C_17  and  O_18
REMARK    4  A    between atoms: C_22  and  C_25
REMARK    5  A    between atoms: N_27  and  C_29
REMARK                            x       y       z     vdW  Elec       q    Type
REMARK                         _______ _______ _______ _____ _____    ______ ____
ROOT
ATOM      1  N   UNL     1      -5.645  41.632  18.515  0.00  0.00    +0.000 N 
ATOM      2  H   UNL     1      -5.331  40.877  19.112  0.00  0.00    +0.000 HD
ATOM      3  C   UNL     1      -4.721  42.155  17.675  0.00  0.00    +0.000 A 
ATOM      4  S   UNL     1      -3.083  41.612  17.792  0.00  0.00    +0.000 S 
ATOM      5  C   UNL     1      -2.630  42.677  16.528  0.00  0.00    +0.000 A 
ATOM      6  C   UNL     1      -3.744  43.371  16.120  0.00  0.00    +0.000 A 
ATOM      7  N   UNL     1      -4.914  43.099  16.782  0.00  0.00    +0.000 NA
ENDROOT
BRANCH   1   8
ATOM      8  C   UNL     1      -7.031  41.587  18.251  0.00  0.00    +0.000 A 
ATOM      9  N   UNL     1      -7.926  42.091  19.108  0.00  0.00    +0.000 NA
ATOM     10  C   UNL     1      -9.219  41.949  18.797  0.00  0.00    +0.000 A 
ATOM     11  N   UNL     1      -9.692  41.361  17.692  0.00  0.00    +0.000 NA
ATOM     12  C   UNL     1     -10.228  42.529  19.744  0.00  0.00    +0.000 C 
ATOM     13  C   UNL     1      -8.788  40.870  16.827  0.00  0.00    +0.000 A 
ATOM     14  C   UNL     1      -7.428  40.957  17.086  0.00  0.00    +0.000 A 
ATOM     15  N   UNL     1      -9.216  40.194  15.653  0.00  0.00    +0.000 N 
ATOM     16  C   UNL     1      -8.390  40.329  14.423  0.00  0.00    +0.000 C 
ATOM     17  C   UNL     1      -8.858  40.711  12.993  0.00  0.00    +0.000 C 
ATOM     18  N   UNL     1     -10.191  41.051  12.422  0.00  0.00    +0.000 N 
ATOM     19  C   UNL     1     -10.965  40.898  13.685  0.00  0.00    +0.000 C 
ATOM     20  C   UNL     1     -10.571  40.522  15.137  0.00  0.00    +0.000 C 
BRANCH  18  21
ATOM     21  C   UNL     1     -10.572  39.940  11.560  0.00  0.00    +0.000 C 
ATOM     22  C   UNL     1     -10.973  38.771  10.651  0.00  0.00    +0.000 C 
BRANCH  22  23
ATOM     23  O   UNL     1     -11.321  37.761   9.862  0.00  0.00    +0.000 OA
ATOM     24  H   UNL     1     -10.536  37.376   9.438  0.00  0.00    +0.000 HD
ENDBRANCH  22  23
ENDBRANCH  18  21
ENDBRANCH   1   8
BRANCH   5  25
ATOM     25  C   UNL     1      -1.268  42.732  16.048  0.00  0.00    +0.000 C 
ATOM     26  O   UNL     1      -0.847  42.024  15.136  0.00  0.00    +0.000 OA
ATOM     27  N   UNL     1      -0.445  43.596  16.760  0.00  0.00    +0.000 N 
ATOM     28  H   UNL     1      -0.677  43.713  17.745  0.00  0.00    +0.000 HD
BRANCH  27  29
ATOM     29  C   UNL     1       0.932  43.819  16.450  0.00  0.00    +0.000 A 
ATOM     30  C   UNL     1       1.255  44.931  15.645  0.00  0.00    +0.000 A 
ATOM     31  C   UNL     1       2.576  45.238  15.325  0.00  0.00    +0.000 A 
ATOM     32  C   UNL     1       0.165  45.843  15.119  0.00  0.00    +0.000 C 
ATOM     33  C   UNL     1       3.605  44.426  15.785  0.00  0.00    +0.000 A 
ATOM     34  C   UNL     1       3.304  43.286  16.522  0.00  0.00    +0.000 A 
ATOM     35  C   UNL     1       1.981  42.973  16.848  0.00  0.00    +0.000 A 
ATOM     36 CL   UNL     1       1.737  41.401  17.523  0.00  0.00    +0.000 Cl
ENDBRANCH  27  29
ENDBRANCH   5  25
TORSDOF 5
ENDMDL
MODEL 5
REMARK VINA RESULT:      -7.3     16.098     21.755
REMARK  Name = Dasatinib.pdbqt.pdb
REMARK  5 active torsions:
REMARK  status: ('A' for Active; 'I' for Inactive)
REMARK    1  A    between atoms: N_1  and  C_3
REMARK    2  A    between atoms: N_13  and  C_16
REMARK    3  A    between atoms: C_17  and  O_18
REMARK    4  A    between atoms: C_22  and  C_25
REMARK    5  A    between atoms: N_27  and  C_29
REMARK                            x       y       z     vdW  Elec       q    Type
REMARK                         _______ _______ _______ _____ _____    ______ ____
ROOT
ATOM      1  N   UNL     1      -5.403  41.620  18.769  0.00  0.00    +0.000 N 
ATOM      2  H   UNL     1      -5.091  40.834  19.325  0.00  0.00    +0.000 HD
ATOM      3  C   UNL     1      -4.493  42.154  17.921  0.00  0.00    +0.000 A 
ATOM      4  S   UNL     1      -2.867  41.566  17.963  0.00  0.00    +0.000 S 
ATOM      5  C   UNL     1      -2.427  42.672  16.730  0.00  0.00    +0.000 A 
ATOM      6  C   UNL     1      -3.534  43.409  16.386  0.00  0.00    +0.000 A 
ATOM      7  N   UNL     1      -4.690  43.139  17.074  0.00  0.00    +0.000 NA
ENDROOT
BRANCH   1   8
ATOM      8  C   UNL     1      -6.798  41.620  18.549  0.00  0.00    +0.000 A 
ATOM      9  N   UNL     1      -7.372  40.782  17.679  0.00  0.00    +0.000 NA
ATOM     10  C   UNL     1      -8.693  40.897  17.498  0.00  0.00    +0.000 A 
ATOM     11  N   UNL     1      -9.490  41.768  18.128  0.00  0.00    +0.000 NA
ATOM     12  C   UNL     1      -9.346  39.947  16.538  0.00  0.00    +0.000 C 
ATOM     13  C   UNL     1      -8.909  42.597  19.013  0.00  0.00    +0.000 A 
ATOM     14  C   UNL     1      -7.543  42.557  19.242  0.00  0.00    +0.000 A 
ATOM     15  N   UNL     1      -9.685  43.576  19.689  0.00  0.00    +0.000 N 
ATOM     16  C   UNL     1      -9.312  43.930  21.085  0.00  0.00    +0.000 C 
ATOM     17  C   UNL     1     -10.232  43.995  22.334  0.00  0.00    +0.000 C 
ATOM     18  N   UNL     1     -11.685  43.738  22.535  0.00  0.00    +0.000 N 
ATOM     19  C   UNL     1     -11.999  43.396  21.119  0.00  0.00    +0.000 C 
ATOM     20  C   UNL     1     -11.141  43.311  19.830  0.00  0.00    +0.000 C 
BRANCH  18  21
ATOM     21  C   UNL     1     -12.305  45.029  22.801  0.00  0.00    +0.000 C 
ATOM     22  C   UNL     1     -12.958  46.389  23.083  0.00  0.00    +0.000 C 
BRANCH  22  23
ATOM     23  O   UNL     1     -13.524  47.564  23.329  0.00  0.00    +0.000 OA
ATOM     24  H   UNL     1     -12.870  48.187  23.688  0.00  0.00    +0.000 HD
ENDBRANCH  22  23
ENDBRANCH  18  21
ENDBRANCH   1   8
BRANCH   5  25
ATOM     25  C   UNL     1      -1.079  42.713  16.208  0.00  0.00    +0.000 C 
ATOM     26  O   UNL     1      -0.679  41.965  15.319  0.00  0.00    +0.000 OA
ATOM     27  N   UNL     1      -0.243  43.616  16.853  0.00  0.00    +0.000 N 
ATOM     28  H   UNL     1      -0.448  43.778  17.838  0.00  0.00    +0.000 HD
BRANCH  27  29
ATOM     29  C   UNL     1       1.122  43.833  16.493  0.00  0.00    +0.000 A 
ATOM     30  C   UNL     1       1.415  44.920  15.644  0.00  0.00    +0.000 A 
ATOM     31  C   UNL     1       2.724  45.221  15.272  0.00  0.00    +0.000 A 
ATOM     32  C   UNL     1       0.306  45.811  15.123  0.00  0.00    +0.000 C 
ATOM     33  C   UNL     1       3.770  44.427  15.725  0.00  0.00    +0.000 A 
ATOM     34  C   UNL     1       3.497  43.311  16.507  0.00  0.00    +0.000 A 
ATOM     35  C   UNL     1       2.186  43.003  16.884  0.00  0.00    +0.000 A 
ATOM     36 CL   UNL     1       1.971  41.453  17.616  0.00  0.00    +0.000 Cl
ENDBRANCH  27  29
ENDBRANCH   5  25
TORSDOF 5
ENDMDL
MODEL 6
REMARK VINA RESULT:      -7.0     21.804     26.978
REMARK  Name = Dasatinib.pdbqt.pdb
REMARK  5 active torsions:
REMARK  status: ('A' for Active; 'I' for Inactive)
REMARK    1  A    between atoms: N_1  and  C_3
REMARK    2  A    between atoms: N_13  and  C_16
REMARK    3  A    between atoms: C_17  and  O_18
REMARK    4  A    between atoms: C_22  and  C_25
REMARK    5  A    between atoms: N_27  and  C_29
REMARK                            x       y       z     vdW  Elec       q    Type
REMARK                         _______ _______ _______ _____ _____    ______ ____
ROOT
ATOM      1  N   UNL     1     -16.744  39.505   5.762  0.00  0.00    +0.000 N 
ATOM      2  H   UNL     1     -16.716  39.681   4.765  0.00  0.00    +0.000 HD
ATOM      3  C   UNL     1     -16.886  38.213   6.138  0.00  0.00    +0.000 A 
ATOM      4  S   UNL     1     -17.153  37.012   4.923  0.00  0.00    +0.000 S 
ATOM      5  C   UNL     1     -17.234  35.797   6.128  0.00  0.00    +0.000 A 
ATOM      6  C   UNL     1     -17.064  36.387   7.358  0.00  0.00    +0.000 A 
ATOM      7  N   UNL     1     -16.897  37.748   7.368  0.00  0.00    +0.000 NA
ENDROOT
BRANCH   1   8
ATOM      8  C   UNL     1     -16.066  40.489   6.514  0.00  0.00    +0.000 A 
ATOM      9  N   UNL     1     -16.597  41.697   6.732  0.00  0.00    +0.000 NA
ATOM     10  C   UNL     1     -15.852  42.580   7.408  0.00  0.00    +0.000 A 
ATOM     11  N   UNL     1     -14.629  42.350   7.899  0.00  0.00    +0.000 NA
ATOM     12  C   UNL     1     -16.449  43.931   7.673  0.00  0.00    +0.000 C 
ATOM     13  C   UNL     1     -14.107  41.129   7.690  0.00  0.00    +0.000 A 
ATOM     14  C   UNL     1     -14.805  40.164   6.980  0.00  0.00    +0.000 A 
ATOM     15  N   UNL     1     -12.796  40.825   8.144  0.00  0.00    +0.000 N 
ATOM     16  C   UNL     1     -12.514  39.439   8.603  0.00  0.00    +0.000 C 
ATOM     17  C   UNL     1     -11.841  38.987   9.928  0.00  0.00    +0.000 C 
ATOM     18  N   UNL     1     -11.301  39.738  11.096  0.00  0.00    +0.000 N 
ATOM     19  C   UNL     1     -11.606  41.102  10.581  0.00  0.00    +0.000 C 
ATOM     20  C   UNL     1     -12.269  41.626   9.281  0.00  0.00    +0.000 C 
BRANCH  18  21
ATOM     21  C   UNL     1      -9.853  39.589  11.054  0.00  0.00    +0.000 C 
ATOM     22  C   UNL     1      -8.327  39.433  11.008  0.00  0.00    +0.000 C 
BRANCH  22  23
ATOM     23  O   UNL     1      -7.007  39.296  10.967  0.00  0.00    +0.000 OA
ATOM     24  H   UNL     1      -6.574  40.161  11.059  0.00  0.00    +0.000 HD
ENDBRANCH  22  23
ENDBRANCH  18  21
ENDBRANCH   1   8
BRANCH   5  25
ATOM     25  C   UNL     1     -17.435  34.409   5.779  0.00  0.00    +0.000 C 
ATOM     26  O   UNL     1     -18.267  33.691   6.330  0.00  0.00    +0.000 OA
ATOM     27  N   UNL     1     -16.552  33.925   4.823  0.00  0.00    +0.000 N 
ATOM     28  H   UNL     1     -15.628  34.356   4.819  0.00  0.00    +0.000 HD
BRANCH  27  29
ATOM     29  C   UNL     1     -16.578  32.589   4.318  0.00  0.00    +0.000 A 
ATOM     30  C   UNL     1     -15.664  31.662   4.860  0.00  0.00    +0.000 A 
ATOM     31  C   UNL     1     -15.646  30.331   4.447  0.00  0.00    +0.000 A 
ATOM     32  C   UNL     1     -14.679  32.087   5.931  0.00  0.00    +0.000 C 
ATOM     33  C   UNL     1     -16.530  29.900   3.466  0.00  0.00    +0.000 A 
ATOM     34  C   UNL     1     -17.392  30.813   2.869  0.00  0.00    +0.000 A 
ATOM     35  C   UNL     1     -17.416  32.150   3.279  0.00  0.00    +0.000 A 
ATOM     36 CL   UNL     1     -18.330  33.217   2.273  0.00  0.00    +0.000 Cl
ENDBRANCH  27  29
ENDBRANCH   5  25
TORSDOF 5
ENDMDL
MODEL 7
REMARK VINA RESULT:      -6.9      7.494      9.168
REMARK  Name = Dasatinib.pdbqt.pdb
REMARK  5 active torsions:
REMARK  status: ('A' for Active; 'I' for Inactive)
REMARK    1  A    between atoms: N_1  and  C_3
REMARK    2  A    between atoms: N_13  and  C_16
REMARK    3  A    between atoms: C_17  and  O_18
REMARK    4  A    between atoms: C_22  and  C_25
REMARK    5  A    between atoms: N_27  and  C_29
REMARK                            x       y       z     vdW  Elec       q    Type
REMARK                         _______ _______ _______ _____ _____    ______ ____
ROOT
ATOM      1  N   UNL     1       9.286  35.866  18.461  0.00  0.00    +0.000 N 
ATOM      2  H   UNL     1       8.381  36.136  18.827  0.00  0.00    +0.000 HD
ATOM      3  C   UNL     1       9.292  34.836  17.583  0.00  0.00    +0.000 A 
ATOM      4  S   UNL     1       7.817  33.987  17.278  0.00  0.00    +0.000 S 
ATOM      5  C   UNL     1       8.631  32.945  16.189  0.00  0.00    +0.000 A 
ATOM      6  C   UNL     1       9.956  33.307  16.143  0.00  0.00    +0.000 A 
ATOM      7  N   UNL     1      10.336  34.351  16.947  0.00  0.00    +0.000 NA
ENDROOT
BRANCH   1   8
ATOM      8  C   UNL     1      10.219  36.925  18.461  0.00  0.00    +0.000 A 
ATOM      9  N   UNL     1      10.135  37.936  19.334  0.00  0.00    +0.000 NA
ATOM     10  C   UNL     1      11.032  38.921  19.217  0.00  0.00    +0.000 A 
ATOM     11  N   UNL     1      12.016  38.972  18.312  0.00  0.00    +0.000 NA
ATOM     12  C   UNL     1      10.956  40.049  20.205  0.00  0.00    +0.000 C 
ATOM     13  C   UNL     1      12.105  37.946  17.448  0.00  0.00    +0.000 A 
ATOM     14  C   UNL     1      11.201  36.896  17.488  0.00  0.00    +0.000 A 
ATOM     15  N   UNL     1      13.098  37.952  16.432  0.00  0.00    +0.000 N 
ATOM     16  C   UNL     1      13.689  36.651  16.018  0.00  0.00    +0.000 C 
ATOM     17  C   UNL     1      15.191  36.280  15.889  0.00  0.00    +0.000 C 
ATOM     18  N   UNL     1      16.447  37.046  16.125  0.00  0.00    +0.000 N 
ATOM     19  C   UNL     1      15.797  38.324  16.529  0.00  0.00    +0.000 C 
ATOM     20  C   UNL     1      14.317  38.765  16.680  0.00  0.00    +0.000 C 
BRANCH  18  21
ATOM     21  C   UNL     1      17.048  37.276  14.819  0.00  0.00    +0.000 C 
ATOM     22  C   UNL     1      17.682  37.518  13.443  0.00  0.00    +0.000 C 
BRANCH  22  23
ATOM     23  O   UNL     1      18.233  37.727  12.253  0.00  0.00    +0.000 OA
ATOM     24  H   UNL     1      19.202  37.752  12.328  0.00  0.00    +0.000 HD
ENDBRANCH  22  23
ENDBRANCH  18  21
ENDBRANCH   1   8
BRANCH   5  25
ATOM     25  C   UNL     1       7.924  31.902  15.480  0.00  0.00    +0.000 C 
ATOM     26  O   UNL     1       8.040  31.712  14.272  0.00  0.00    +0.000 OA
ATOM     27  N   UNL     1       7.034  31.180  16.265  0.00  0.00    +0.000 N 
ATOM     28  H   UNL     1       6.610  31.694  17.036  0.00  0.00    +0.000 HD
BRANCH  27  29
ATOM     29  C   UNL     1       6.242  30.096  15.777  0.00  0.00    +0.000 A 
ATOM     30  C   UNL     1       4.839  30.209  15.872  0.00  0.00    +0.000 A 
ATOM     31  C   UNL     1       3.994  29.211  15.389  0.00  0.00    +0.000 A 
ATOM     32  C   UNL     1       4.206  31.440  16.489  0.00  0.00    +0.000 C 
ATOM     33  C   UNL     1       4.534  28.065  14.819  0.00  0.00    +0.000 A 
ATOM     34  C   UNL     1       5.914  27.902  14.778  0.00  0.00    +0.000 A 
ATOM     35  C   UNL     1       6.767  28.900  15.260  0.00  0.00    +0.000 A 
ATOM     36 CL   UNL     1       8.430  28.449  15.396  0.00  0.00    +0.000 Cl
ENDBRANCH  27  29
ENDBRANCH   5  25
TORSDOF 5
ENDMDL
MODEL 8
REMARK VINA RESULT:      -6.6      7.795      8.856
REMARK  Name = Dasatinib.pdbqt.pdb
REMARK  5 active torsions:
REMARK  status: ('A' for Active; 'I' for Inactive)
REMARK    1  A    between atoms: N_1  and  C_3
REMARK    2  A    between atoms: N_13  and  C_16
REMARK    3  A    between atoms: C_17  and  O_18
REMARK    4  A    between atoms: C_22  and  C_25
REMARK    5  A    between atoms: N_27  and  C_29
REMARK                            x       y       z     vdW  Elec       q    Type
REMARK                         _______ _______ _______ _____ _____    ______ ____
ROOT
ATOM      1  N   UNL     1       9.226  35.392  17.678  0.00  0.00    +0.000 N 
ATOM      2  H   UNL     1       8.388  35.836  18.033  0.00  0.00    +0.000 HD
ATOM      3  C   UNL     1       9.043  34.290  16.914  0.00  0.00    +0.000 A 
ATOM      4  S   UNL     1       7.445  33.653  16.734  0.00  0.00    +0.000 S 
ATOM      5  C   UNL     1       8.050  32.392  15.744  0.00  0.00    +0.000 A 
ATOM      6  C   UNL     1       9.412  32.538  15.631  0.00  0.00    +0.000 A 
ATOM      7  N   UNL     1       9.976  33.587  16.311  0.00  0.00    +0.000 NA
ENDROOT
BRANCH   1   8
ATOM      8  C   UNL     1      10.309  36.289  17.544  0.00  0.00    +0.000 A 
ATOM      9  N   UNL     1      10.855  36.558  16.353  0.00  0.00    +0.000 NA
ATOM     10  C   UNL     1      11.913  37.376  16.336  0.00  0.00    +0.000 A 
ATOM     11  N   UNL     1      12.460  37.961  17.408  0.00  0.00    +0.000 NA
ATOM     12  C   UNL     1      12.519  37.698  15.001  0.00  0.00    +0.000 C 
ATOM     13  C   UNL     1      11.898  37.698  18.600  0.00  0.00    +0.000 A 
ATOM     14  C   UNL     1      10.811  36.844  18.706  0.00  0.00    +0.000 A 
ATOM     15  N   UNL     1      12.450  38.250  19.787  0.00  0.00    +0.000 N 
ATOM     16  C   UNL     1      11.523  38.612  20.892  0.00  0.00    +0.000 C 
ATOM     17  C   UNL     1      11.442  39.951  21.674  0.00  0.00    +0.000 C 
ATOM     18  N   UNL     1      12.206  41.226  21.578  0.00  0.00    +0.000 N 
ATOM     19  C   UNL     1      13.109  40.805  20.471  0.00  0.00    +0.000 C 
ATOM     20  C   UNL     1      13.248  39.496  19.649  0.00  0.00    +0.000 C 
BRANCH  18  21
ATOM     21  C   UNL     1      13.028  41.312  22.778  0.00  0.00    +0.000 C 
ATOM     22  C   UNL     1      13.892  41.404  24.042  0.00  0.00    +0.000 C 
BRANCH  22  23
ATOM     23  O   UNL     1      14.639  41.486  25.136  0.00  0.00    +0.000 OA
ATOM     24  H   UNL     1      14.899  40.600  25.437  0.00  0.00    +0.000 HD
ENDBRANCH  22  23
ENDBRANCH  18  21
ENDBRANCH   1   8
BRANCH   5  25
ATOM     25  C   UNL     1       7.166  31.405  15.167  0.00  0.00    +0.000 C 
ATOM     26  O   UNL     1       7.207  31.076  13.984  0.00  0.00    +0.000 OA
ATOM     27  N   UNL     1       6.205  30.914  16.042  0.00  0.00    +0.000 N 
ATOM     28  H   UNL     1       5.894  31.565  16.763  0.00  0.00    +0.000 HD
BRANCH  27  29
ATOM     29  C   UNL     1       5.240  29.922  15.690  0.00  0.00    +0.000 A 
ATOM     30  C   UNL     1       3.879  30.217  15.917  0.00  0.00    +0.000 A 
ATOM     31  C   UNL     1       2.873  29.318  15.571  0.00  0.00    +0.000 A 
ATOM     32  C   UNL     1       3.470  31.541  16.530  0.00  0.00    +0.000 C 
ATOM     33  C   UNL     1       3.205  28.091  15.009  0.00  0.00    +0.000 A 
ATOM     34  C   UNL     1       4.543  27.753  14.841  0.00  0.00    +0.000 A 
ATOM     35  C   UNL     1       5.558  28.651  15.185  0.00  0.00    +0.000 A 
ATOM     36 CL   UNL     1       7.158  27.997  15.180  0.00  0.00    +0.000 Cl
ENDBRANCH  27  29
ENDBRANCH   5  25
TORSDOF 5
ENDMDL
MODEL 9
REMARK VINA RESULT:      -6.5     23.620     25.428
REMARK  Name = Dasatinib.pdbqt.pdb
REMARK  5 active torsions:
REMARK  status: ('A' for Active; 'I' for Inactive)
REMARK    1  A    between atoms: N_1  and  C_3
REMARK    2  A    between atoms: N_13  and  C_16
REMARK    3  A    between atoms: C_17  and  O_18
REMARK    4  A    between atoms: C_22  and  C_25
REMARK    5  A    between atoms: N_27  and  C_29
REMARK                            x       y       z     vdW  Elec       q    Type
REMARK                         _______ _______ _______ _____ _____    ______ ____
ROOT
ATOM      1  N   UNL     1     -13.956  19.852  24.629  0.00  0.00    +0.000 N 
ATOM      2  H   UNL     1     -13.701  18.989  24.165  0.00  0.00    +0.000 HD
ATOM      3  C   UNL     1     -14.700  20.723  23.908  0.00  0.00    +0.000 A 
ATOM      4  S   UNL     1     -15.020  20.372  22.245  0.00  0.00    +0.000 S 
ATOM      5  C   UNL     1     -15.904  21.832  22.098  0.00  0.00    +0.000 A 
ATOM      6  C   UNL     1     -15.884  22.481  23.309  0.00  0.00    +0.000 A 
ATOM      7  N   UNL     1     -15.184  21.873  24.320  0.00  0.00    +0.000 NA
ENDROOT
BRANCH   1   8
ATOM      8  C   UNL     1     -14.008  19.727  26.035  0.00  0.00    +0.000 A 
ATOM      9  N   UNL     1     -15.074  19.208  26.655  0.00  0.00    +0.000 NA
ATOM     10  C   UNL     1     -15.052  19.184  27.993  0.00  0.00    +0.000 A 
ATOM     11  N   UNL     1     -14.047  19.620  28.761  0.00  0.00    +0.000 NA
ATOM     12  C   UNL     1     -16.236  18.586  28.694  0.00  0.00    +0.000 C 
ATOM     13  C   UNL     1     -12.972  20.126  28.131  0.00  0.00    +0.000 A 
ATOM     14  C   UNL     1     -12.925  20.206  26.748  0.00  0.00    +0.000 A 
ATOM     15  N   UNL     1     -11.885  20.646  28.882  0.00  0.00    +0.000 N 
ATOM     16  C   UNL     1     -10.511  20.492  28.331  0.00  0.00    +0.000 C 
ATOM     17  C   UNL     1      -9.250  19.938  29.045  0.00  0.00    +0.000 C 
ATOM     18  N   UNL     1      -9.014  19.410  30.418  0.00  0.00    +0.000 N 
ATOM     19  C   UNL     1     -10.407  19.591  30.915  0.00  0.00    +0.000 C 
ATOM     20  C   UNL     1     -11.707  20.133  30.266  0.00  0.00    +0.000 C 
BRANCH  18  21
ATOM     21  C   UNL     1      -8.192  20.394  31.110  0.00  0.00    +0.000 C 
ATOM     22  C   UNL     1      -7.327  21.432  31.837  0.00  0.00    +0.000 C 
BRANCH  22  23
ATOM     23  O   UNL     1      -6.580  22.331  32.464  0.00  0.00    +0.000 OA
ATOM     24  H   UNL     1      -7.088  22.761  33.172  0.00  0.00    +0.000 HD
ENDBRANCH  22  23
ENDBRANCH  18  21
ENDBRANCH   1   8
BRANCH   5  25
ATOM     25  C   UNL     1     -16.537  22.202  20.852  0.00  0.00    +0.000 C 
ATOM     26  O   UNL     1     -17.020  23.313  20.647  0.00  0.00    +0.000 OA
ATOM     27  N   UNL     1     -16.630  21.168  19.928  0.00  0.00    +0.000 N 
ATOM     28  H   UNL     1     -16.716  20.232  20.323  0.00  0.00    +0.000 HD
BRANCH  27  29
ATOM     29  C   UNL     1     -17.203  21.312  18.628  0.00  0.00    +0.000 A 
ATOM     30  C   UNL     1     -18.565  20.984  18.468  0.00  0.00    +0.000 A 
ATOM     31  C   UNL     1     -19.209  21.127  17.240  0.00  0.00    +0.000 A 
ATOM     32  C   UNL     1     -19.379  20.480  19.643  0.00  0.00    +0.000 C 
ATOM     33  C   UNL     1     -18.498  21.582  16.137  0.00  0.00    +0.000 A 
ATOM     34  C   UNL     1     -17.139  21.846  16.256  0.00  0.00    +0.000 A 
ATOM     35  C   UNL     1     -16.487  21.705  17.485  0.00  0.00    +0.000 A 
ATOM     36 CL   UNL     1     -14.762  21.799  17.423  0.00  0.00    +0.000 Cl
ENDBRANCH  27  29
ENDBRANCH   5  25
TORSDOF 5
ENDMDL
