MODEL 1
REMARK VINA RESULT:      -5.8      0.000      0.000
REMARK  Name = Decitabine.pdbqt.pdb
REMARK  4 active torsions:
REMARK  status: ('A' for Active; 'I' for Inactive)
REMARK    1  A    between atoms: N_2  and  C1*_8
REMARK    2  A    between atoms: C4*_10  and  C5*_13
REMARK    3  A    between atoms: C3*_11  and  O3*_16
REMARK    4  A    between atoms: C5*_13  and  O5*_14
REMARK                            x       y       z     vdW  Elec       q    Type
REMARK                         _______ _______ _______ _____ _____    ______ ____
ROOT
ATOM      1  O   UNL     1       3.668  41.327  16.086  0.00  0.00    +0.000 OA
ATOM      2  N   UNL     1       2.199  43.106  16.278  0.00  0.00    +0.000 N 
ATOM      3  N   UNL     1       4.520  43.438  16.303  0.00  0.00    +0.000 NA
ATOM      4  N   UNL     1       3.026  45.278  16.523  0.00  0.00    +0.000 NA
ATOM      5  C   UNL     1       3.464  42.530  16.211  0.00  0.00    +0.000 A 
ATOM      6  C   UNL     1       2.235  44.427  16.425  0.00  0.00    +0.000 A 
ATOM      7  C   UNL     1       4.289  44.719  16.436  0.00  0.00    +0.000 A 
ATOM      8  N   UNL     1       5.350  45.561  16.515  0.00  0.00    +0.000 N 
ATOM      9  H   UNL     1       5.164  46.423  17.011  0.00  0.00    +0.000 HD
ATOM     10  H   UNL     1       6.212  45.097  16.777  0.00  0.00    +0.000 HD
ENDROOT
BRANCH   2  11
ATOM     11  C1* UNL     1       1.011  42.450  16.212  0.00  0.00    +0.000 A 
ATOM     12  O4* UNL     1       0.534  41.895  15.019  0.00  0.00    +0.000 OA
ATOM     13  C4* UNL     1      -0.698  41.297  15.314  0.00  0.00    +0.000 A 
ATOM     14  C3* UNL     1      -0.994  41.487  16.711  0.00  0.00    +0.000 A 
ATOM     15  C2* UNL     1       0.093  42.197  17.250  0.00  0.00    +0.000 A 
BRANCH  14  16
ATOM     16  O3* UNL     1      -1.736  40.574  17.404  0.00  0.00    +0.000 OA
ATOM     17  H3* UNL     1      -2.064  39.872  16.816  0.00  0.00    +0.000 HD
ENDBRANCH  14  16
BRANCH  13  18
ATOM     18  C5* UNL     1      -1.390  40.491  14.389  0.00  0.00    +0.000 C 
BRANCH  18  19
ATOM     19  O5* UNL     1      -2.039  39.729  13.513  0.00  0.00    +0.000 OA
ATOM     20  H5* UNL     1      -2.967  40.013  13.443  0.00  0.00    +0.000 HD
ENDBRANCH  18  19
ENDBRANCH  13  18
ENDBRANCH   2  11
TORSDOF 4
ENDMDL
MODEL 2
REMARK VINA RESULT:      -5.5      3.524      6.059
REMARK  Name = Decitabine.pdbqt.pdb
REMARK  4 active torsions:
REMARK  status: ('A' for Active; 'I' for Inactive)
REMARK    1  A    between atoms: N_2  and  C1*_8
REMARK    2  A    between atoms: C4*_10  and  C5*_13
REMARK    3  A    between atoms: C3*_11  and  O3*_16
REMARK    4  A    between atoms: C5*_13  and  O5*_14
REMARK                            x       y       z     vdW  Elec       q    Type
REMARK                         _______ _______ _______ _____ _____    ______ ____
ROOT
ATOM      1  O   UNL     1      -2.501  41.649  17.660  0.00  0.00    +0.000 OA
ATOM      2  N   UNL     1      -0.764  40.933  16.308  0.00  0.00    +0.000 N 
ATOM      3  N   UNL     1      -2.520  39.494  16.894  0.00  0.00    +0.000 NA
ATOM      4  N   UNL     1      -0.732  38.733  15.519  0.00  0.00    +0.000 NA
ATOM      5  C   UNL     1      -1.960  40.768  16.999  0.00  0.00    +0.000 A 
ATOM      6  C   UNL     1      -0.371  39.831  15.675  0.00  0.00    +0.000 A 
ATOM      7  C   UNL     1      -1.934  38.564  16.185  0.00  0.00    +0.000 A 
ATOM      8  N   UNL     1      -2.522  37.343  16.109  0.00  0.00    +0.000 N 
ATOM      9  H   UNL     1      -1.882  36.581  15.929  0.00  0.00    +0.000 HD
ATOM     10  H   UNL     1      -3.189  37.173  16.852  0.00  0.00    +0.000 HD
ENDROOT
BRANCH   2  11
ATOM     11  C1* UNL     1      -0.019  42.068  16.246  0.00  0.00    +0.000 A 
ATOM     12  O4* UNL     1      -0.393  43.160  15.456  0.00  0.00    +0.000 OA
ATOM     13  C4* UNL     1       0.586  44.145  15.635  0.00  0.00    +0.000 A 
ATOM     14  C3* UNL     1       1.589  43.656  16.546  0.00  0.00    +0.000 A 
ATOM     15  C2* UNL     1       1.181  42.364  16.923  0.00  0.00    +0.000 A 
BRANCH  14  16
ATOM     16  O3* UNL     1       2.280  44.510  17.357  0.00  0.00    +0.000 OA
ATOM     17  H3* UNL     1       3.120  44.780  16.946  0.00  0.00    +0.000 HD
ENDBRANCH  14  16
BRANCH  13  18
ATOM     18  C5* UNL     1       0.450  45.451  15.125  0.00  0.00    +0.000 C 
BRANCH  18  19
ATOM     19  O5* UNL     1       0.326  46.685  14.645  0.00  0.00    +0.000 OA
ATOM     20  H5* UNL     1      -0.476  46.754  14.098  0.00  0.00    +0.000 HD
ENDBRANCH  18  19
ENDBRANCH  13  18
ENDBRANCH   2  11
TORSDOF 4
ENDMDL
MODEL 3
REMARK VINA RESULT:      -5.4      3.114      6.029
REMARK  Name = Decitabine.pdbqt.pdb
REMARK  4 active torsions:
REMARK  status: ('A' for Active; 'I' for Inactive)
REMARK    1  A    between atoms: N_2  and  C1*_8
REMARK    2  A    between atoms: C4*_10  and  C5*_13
REMARK    3  A    between atoms: C3*_11  and  O3*_16
REMARK    4  A    between atoms: C5*_13  and  O5*_14
REMARK                            x       y       z     vdW  Elec       q    Type
REMARK                         _______ _______ _______ _____ _____    ______ ____
ROOT
ATOM      1  O   UNL     1      -1.760  42.393  17.818  0.00  0.00    +0.000 OA
ATOM      2  N   UNL     1      -0.234  41.535  16.304  0.00  0.00    +0.000 N 
ATOM      3  N   UNL     1      -2.053  40.259  17.051  0.00  0.00    +0.000 NA
ATOM      4  N   UNL     1      -0.483  39.350  15.510  0.00  0.00    +0.000 NA
ATOM      5  C   UNL     1      -1.369  41.474  17.106  0.00  0.00    +0.000 A 
ATOM      6  C   UNL     1      -0.008  40.409  15.633  0.00  0.00    +0.000 A 
ATOM      7  C   UNL     1      -1.626  39.287  16.288  0.00  0.00    +0.000 A 
ATOM      8  N   UNL     1      -2.331  38.127  16.265  0.00  0.00    +0.000 N 
ATOM      9  H   UNL     1      -1.785  37.310  16.023  0.00  0.00    +0.000 HD
ATOM     10  H   UNL     1      -2.937  38.010  17.069  0.00  0.00    +0.000 HD
ENDROOT
BRANCH   2  11
ATOM     11  C1* UNL     1       0.605  42.596  16.174  0.00  0.00    +0.000 A 
ATOM     12  O4* UNL     1       1.982  42.486  16.395  0.00  0.00    +0.000 OA
ATOM     13  C4* UNL     1       2.532  43.754  16.168  0.00  0.00    +0.000 A 
ATOM     14  C3* UNL     1       1.480  44.669  15.805  0.00  0.00    +0.000 A 
ATOM     15  C2* UNL     1       0.291  43.919  15.803  0.00  0.00    +0.000 A 
BRANCH  14  16
ATOM     16  O3* UNL     1       1.722  45.728  14.978  0.00  0.00    +0.000 OA
ATOM     17  H3* UNL     1       1.312  45.591  14.106  0.00  0.00    +0.000 HD
ENDBRANCH  14  16
BRANCH  13  18
ATOM     18  C5* UNL     1       3.922  43.982  16.131  0.00  0.00    +0.000 C 
BRANCH  18  19
ATOM     19  O5* UNL     1       5.235  44.192  16.097  0.00  0.00    +0.000 OA
ATOM     20  H5* UNL     1       5.709  43.416  16.442  0.00  0.00    +0.000 HD
ENDBRANCH  18  19
ENDBRANCH  13  18
ENDBRANCH   2  11
TORSDOF 4
ENDMDL
MODEL 4
REMARK VINA RESULT:      -5.2      3.810      6.375
REMARK  Name = Decitabine.pdbqt.pdb
REMARK  4 active torsions:
REMARK  status: ('A' for Active; 'I' for Inactive)
REMARK    1  A    between atoms: N_2  and  C1*_8
REMARK    2  A    between atoms: C4*_10  and  C5*_13
REMARK    3  A    between atoms: C3*_11  and  O3*_16
REMARK    4  A    between atoms: C5*_13  and  O5*_14
REMARK                            x       y       z     vdW  Elec       q    Type
REMARK                         _______ _______ _______ _____ _____    ______ ____
ROOT
ATOM      1  O   UNL     1      -3.469  41.247  16.922  0.00  0.00    +0.000 OA
ATOM      2  N   UNL     1      -1.394  40.774  16.010  0.00  0.00    +0.000 N 
ATOM      3  N   UNL     1      -2.861  39.060  16.647  0.00  0.00    +0.000 NA
ATOM      4  N   UNL     1      -0.723  38.552  15.731  0.00  0.00    +0.000 NA
ATOM      5  C   UNL     1      -2.630  40.433  16.549  0.00  0.00    +0.000 A 
ATOM      6  C   UNL     1      -0.653  39.716  15.692  0.00  0.00    +0.000 A 
ATOM      7  C   UNL     1      -1.959  38.201  16.246  0.00  0.00    +0.000 A 
ATOM      8  N   UNL     1      -2.235  36.877  16.357  0.00  0.00    +0.000 N 
ATOM      9  H   UNL     1      -1.418  36.285  16.437  0.00  0.00    +0.000 HD
ATOM     10  H   UNL     1      -2.973  36.675  17.021  0.00  0.00    +0.000 HD
ENDROOT
BRANCH   2  11
ATOM     11  C1* UNL     1      -0.924  42.033  15.806  0.00  0.00    +0.000 A 
ATOM     12  O4* UNL     1       0.177  42.537  16.506  0.00  0.00    +0.000 OA
ATOM     13  C4* UNL     1       0.388  43.843  16.046  0.00  0.00    +0.000 A 
ATOM     14  C3* UNL     1      -0.602  44.158  15.047  0.00  0.00    +0.000 A 
ATOM     15  C2* UNL     1      -1.398  43.008  14.906  0.00  0.00    +0.000 A 
BRANCH  14  16
ATOM     16  O3* UNL     1      -0.326  45.030  14.033  0.00  0.00    +0.000 OA
ATOM     17  H3* UNL     1      -1.077  45.628  13.873  0.00  0.00    +0.000 HD
ENDBRANCH  14  16
BRANCH  13  18
ATOM     18  C5* UNL     1       1.519  44.601  16.407  0.00  0.00    +0.000 C 
BRANCH  18  19
ATOM     19  O5* UNL     1       2.584  45.320  16.748  0.00  0.00    +0.000 OA
ATOM     20  H5* UNL     1       2.763  45.225  17.699  0.00  0.00    +0.000 HD
ENDBRANCH  18  19
ENDBRANCH  13  18
ENDBRANCH   2  11
TORSDOF 4
ENDMDL
MODEL 5
REMARK VINA RESULT:      -5.0      9.223     10.191
REMARK  Name = Decitabine.pdbqt.pdb
REMARK  4 active torsions:
REMARK  status: ('A' for Active; 'I' for Inactive)
REMARK    1  A    between atoms: N_2  and  C1*_8
REMARK    2  A    between atoms: C4*_10  and  C5*_13
REMARK    3  A    between atoms: C3*_11  and  O3*_16
REMARK    4  A    between atoms: C5*_13  and  O5*_14
REMARK                            x       y       z     vdW  Elec       q    Type
REMARK                         _______ _______ _______ _____ _____    ______ ____
ROOT
ATOM      1  O   UNL     1      -8.579  44.945  12.180  0.00  0.00    +0.000 OA
ATOM      2  N   UNL     1      -6.837  43.680  11.331  0.00  0.00    +0.000 N 
ATOM      3  N   UNL     1      -6.858  46.015  11.121  0.00  0.00    +0.000 NA
ATOM      4  N   UNL     1      -5.067  44.730  10.221  0.00  0.00    +0.000 NA
ATOM      5  C   UNL     1      -7.505  44.872  11.592  0.00  0.00    +0.000 A 
ATOM      6  C   UNL     1      -5.697  43.855  10.668  0.00  0.00    +0.000 A 
ATOM      7  C   UNL     1      -5.713  45.923  10.495  0.00  0.00    +0.000 A 
ATOM      8  N   UNL     1      -5.121  47.065  10.062  0.00  0.00    +0.000 N 
ATOM      9  H   UNL     1      -4.506  46.942   9.268  0.00  0.00    +0.000 HD
ATOM     10  H   UNL     1      -5.762  47.846   9.987  0.00  0.00    +0.000 HD
ENDROOT
BRANCH   2  11
ATOM     11  C1* UNL     1      -7.247  42.432  11.680  0.00  0.00    +0.000 A 
ATOM     12  O4* UNL     1      -8.185  41.720  10.925  0.00  0.00    +0.000 OA
ATOM     13  C4* UNL     1      -8.367  40.486  11.562  0.00  0.00    +0.000 A 
ATOM     14  C3* UNL     1      -7.533  40.432  12.736  0.00  0.00    +0.000 A 
ATOM     15  C2* UNL     1      -6.836  41.652  12.779  0.00  0.00    +0.000 A 
BRANCH  14  16
ATOM     16  O3* UNL     1      -7.034  39.245  13.191  0.00  0.00    +0.000 OA
ATOM     17  H3* UNL     1      -6.620  39.352  14.065  0.00  0.00    +0.000 HD
ENDBRANCH  14  16
BRANCH  13  18
ATOM     18  C5* UNL     1      -9.116  39.440  10.988  0.00  0.00    +0.000 C 
BRANCH  18  19
ATOM     19  O5* UNL     1      -9.820  38.449  10.450  0.00  0.00    +0.000 OA
ATOM     20  H5* UNL     1      -9.224  37.787  10.058  0.00  0.00    +0.000 HD
ENDBRANCH  18  19
ENDBRANCH  13  18
ENDBRANCH   2  11
TORSDOF 4
ENDMDL
MODEL 6
REMARK VINA RESULT:      -4.9      2.643      3.223
REMARK  Name = Decitabine.pdbqt.pdb
REMARK  4 active torsions:
REMARK  status: ('A' for Active; 'I' for Inactive)
REMARK    1  A    between atoms: N_2  and  C1*_8
REMARK    2  A    between atoms: C4*_10  and  C5*_13
REMARK    3  A    between atoms: C3*_11  and  O3*_16
REMARK    4  A    between atoms: C5*_13  and  O5*_14
REMARK                            x       y       z     vdW  Elec       q    Type
REMARK                         _______ _______ _______ _____ _____    ______ ____
ROOT
ATOM      1  O   UNL     1       2.597  45.436  16.548  0.00  0.00    +0.000 OA
ATOM      2  N   UNL     1       1.576  44.000  18.049  0.00  0.00    +0.000 N 
ATOM      3  N   UNL     1       2.366  46.102  18.723  0.00  0.00    +0.000 NA
ATOM      4  N   UNL     1       1.337  44.630  20.287  0.00  0.00    +0.000 NA
ATOM      5  C   UNL     1       2.203  45.186  17.683  0.00  0.00    +0.000 A 
ATOM      6  C   UNL     1       1.251  43.958  19.338  0.00  0.00    +0.000 A 
ATOM      7  C   UNL     1       1.941  45.824  19.929  0.00  0.00    +0.000 A 
ATOM      8  N   UNL     1       2.117  46.750  20.905  0.00  0.00    +0.000 N 
ATOM      9  H   UNL     1       2.168  46.368  21.840  0.00  0.00    +0.000 HD
ATOM     10  H   UNL     1       2.832  47.433  20.685  0.00  0.00    +0.000 HD
ENDROOT
BRANCH   2  11
ATOM     11  C1* UNL     1       1.297  42.950  17.232  0.00  0.00    +0.000 A 
ATOM     12  O4* UNL     1       0.204  42.958  16.359  0.00  0.00    +0.000 OA
ATOM     13  C4* UNL     1       0.223  41.737  15.673  0.00  0.00    +0.000 A 
ATOM     14  C3* UNL     1       1.342  40.954  16.131  0.00  0.00    +0.000 A 
ATOM     15  C2* UNL     1       2.003  41.739  17.092  0.00  0.00    +0.000 A 
BRANCH  14  16
ATOM     16  O3* UNL     1       1.967  40.067  15.302  0.00  0.00    +0.000 OA
ATOM     17  H3* UNL     1       1.332  39.434  14.925  0.00  0.00    +0.000 HD
ENDBRANCH  14  16
BRANCH  13  18
ATOM     18  C5* UNL     1      -0.633  41.464  14.588  0.00  0.00    +0.000 C 
BRANCH  18  19
ATOM     19  O5* UNL     1      -1.437  41.203  13.561  0.00  0.00    +0.000 OA
ATOM     20  H5* UNL     1      -1.518  41.986  12.990  0.00  0.00    +0.000 HD
ENDBRANCH  18  19
ENDBRANCH  13  18
ENDBRANCH   2  11
TORSDOF 4
ENDMDL
MODEL 7
REMARK VINA RESULT:      -4.9      2.225      2.530
REMARK  Name = Decitabine.pdbqt.pdb
REMARK  4 active torsions:
REMARK  status: ('A' for Active; 'I' for Inactive)
REMARK    1  A    between atoms: N_2  and  C1*_8
REMARK    2  A    between atoms: C4*_10  and  C5*_13
REMARK    3  A    between atoms: C3*_11  and  O3*_16
REMARK    4  A    between atoms: C5*_13  and  O5*_14
REMARK                            x       y       z     vdW  Elec       q    Type
REMARK                         _______ _______ _______ _____ _____    ______ ____
ROOT
ATOM      1  O   UNL     1       2.806  41.137  17.009  0.00  0.00    +0.000 OA
ATOM      2  N   UNL     1       1.918  43.275  17.055  0.00  0.00    +0.000 N 
ATOM      3  N   UNL     1       3.915  42.812  15.918  0.00  0.00    +0.000 NA
ATOM      4  N   UNL     1       3.030  45.022  15.972  0.00  0.00    +0.000 NA
ATOM      5  C   UNL     1       2.862  42.320  16.690  0.00  0.00    +0.000 A 
ATOM      6  C   UNL     1       2.202  44.491  16.600  0.00  0.00    +0.000 A 
ATOM      7  C   UNL     1       3.964  44.076  15.585  0.00  0.00    +0.000 A 
ATOM      8  N   UNL     1       5.006  44.504  14.827  0.00  0.00    +0.000 N 
ATOM      9  H   UNL     1       5.230  45.484  14.939  0.00  0.00    +0.000 HD
ATOM     10  H   UNL     1       5.803  43.880  14.853  0.00  0.00    +0.000 HD
ENDROOT
BRANCH   2  11
ATOM     11  C1* UNL     1       0.802  43.060  17.801  0.00  0.00    +0.000 A 
ATOM     12  O4* UNL     1      -0.301  42.357  17.302  0.00  0.00    +0.000 OA
ATOM     13  C4* UNL     1      -1.255  42.318  18.327  0.00  0.00    +0.000 A 
ATOM     14  C3* UNL     1      -0.740  43.013  19.479  0.00  0.00    +0.000 A 
ATOM     15  C2* UNL     1       0.548  43.453  19.130  0.00  0.00    +0.000 A 
BRANCH  14  16
ATOM     16  O3* UNL     1      -1.112  42.653  20.743  0.00  0.00    +0.000 OA
ATOM     17  H3* UNL     1      -2.010  42.277  20.749  0.00  0.00    +0.000 HD
ENDBRANCH  14  16
BRANCH  13  18
ATOM     18  C5* UNL     1      -2.428  41.543  18.241  0.00  0.00    +0.000 C 
BRANCH  18  19
ATOM     19  O5* UNL     1      -3.534  40.809  18.164  0.00  0.00    +0.000 OA
ATOM     20  H5* UNL     1      -3.844  40.763  17.243  0.00  0.00    +0.000 HD
ENDBRANCH  18  19
ENDBRANCH  13  18
ENDBRANCH   2  11
TORSDOF 4
ENDMDL
MODEL 8
REMARK VINA RESULT:      -4.7      2.011      2.580
REMARK  Name = Decitabine.pdbqt.pdb
REMARK  4 active torsions:
REMARK  status: ('A' for Active; 'I' for Inactive)
REMARK    1  A    between atoms: N_2  and  C1*_8
REMARK    2  A    between atoms: C4*_10  and  C5*_13
REMARK    3  A    between atoms: C3*_11  and  O3*_16
REMARK    4  A    between atoms: C5*_13  and  O5*_14
REMARK                            x       y       z     vdW  Elec       q    Type
REMARK                         _______ _______ _______ _____ _____    ______ ____
ROOT
ATOM      1  O   UNL     1      -0.551  42.931  18.666  0.00  0.00    +0.000 OA
ATOM      2  N   UNL     1       0.760  42.737  16.767  0.00  0.00    +0.000 N 
ATOM      3  N   UNL     1       1.208  44.366  18.393  0.00  0.00    +0.000 NA
ATOM      4  N   UNL     1       2.555  44.197  16.437  0.00  0.00    +0.000 NA
ATOM      5  C   UNL     1       0.398  43.305  17.985  0.00  0.00    +0.000 A 
ATOM      6  C   UNL     1       1.817  43.323  16.212  0.00  0.00    +0.000 A 
ATOM      7  C   UNL     1       2.218  44.755  17.658  0.00  0.00    +0.000 A 
ATOM      8  N   UNL     1       2.979  45.788  18.102  0.00  0.00    +0.000 N 
ATOM      9  H   UNL     1       3.447  46.307  17.371  0.00  0.00    +0.000 HD
ATOM     10  H   UNL     1       2.514  46.358  18.798  0.00  0.00    +0.000 HD
ENDROOT
BRANCH   2  11
ATOM     11  C1* UNL     1       0.141  41.697  16.149  0.00  0.00    +0.000 A 
ATOM     12  O4* UNL     1      -0.891  41.890  15.223  0.00  0.00    +0.000 OA
ATOM     13  C4* UNL     1      -1.285  40.620  14.785  0.00  0.00    +0.000 A 
ATOM     14  C3* UNL     1      -0.490  39.621  15.452  0.00  0.00    +0.000 A 
ATOM     15  C2* UNL     1       0.400  40.319  16.286  0.00  0.00    +0.000 A 
BRANCH  14  16
ATOM     16  O3* UNL     1      -0.203  38.430  14.847  0.00  0.00    +0.000 OA
ATOM     17  H3* UNL     1       0.719  38.410  14.537  0.00  0.00    +0.000 HD
ENDBRANCH  14  16
BRANCH  13  18
ATOM     18  C5* UNL     1      -2.188  40.433  13.720  0.00  0.00    +0.000 C 
BRANCH  18  19
ATOM     19  O5* UNL     1      -3.038  40.256  12.712  0.00  0.00    +0.000 OA
ATOM     20  H5* UNL     1      -2.599  39.789  11.981  0.00  0.00    +0.000 HD
ENDBRANCH  18  19
ENDBRANCH  13  18
ENDBRANCH   2  11
TORSDOF 4
ENDMDL
MODEL 9
REMARK VINA RESULT:      -4.7     12.677     13.959
REMARK  Name = Decitabine.pdbqt.pdb
REMARK  4 active torsions:
REMARK  status: ('A' for Active; 'I' for Inactive)
REMARK    1  A    between atoms: N_2  and  C1*_8
REMARK    2  A    between atoms: C4*_10  and  C5*_13
REMARK    3  A    between atoms: C3*_11  and  O3*_16
REMARK    4  A    between atoms: C5*_13  and  O5*_14
REMARK                            x       y       z     vdW  Elec       q    Type
REMARK                         _______ _______ _______ _____ _____    ______ ____
ROOT
ATOM      1  O   UNL     1      12.594  47.928  10.117  0.00  0.00    +0.000 OA
ATOM      2  N   UNL     1      12.622  48.467  12.368  0.00  0.00    +0.000 N 
ATOM      3  N   UNL     1      13.886  46.678  11.531  0.00  0.00    +0.000 NA
ATOM      4  N   UNL     1      13.911  47.203  13.853  0.00  0.00    +0.000 NA
ATOM      5  C   UNL     1      12.997  47.719  11.257  0.00  0.00    +0.000 A 
ATOM      6  C   UNL     1      13.182  48.041  13.497  0.00  0.00    +0.000 A 
ATOM      7  C   UNL     1      14.308  46.466  12.750  0.00  0.00    +0.000 A 
ATOM      8  N   UNL     1      15.177  45.445  12.964  0.00  0.00    +0.000 N 
ATOM      9  H   UNL     1      15.151  45.063  13.900  0.00  0.00    +0.000 HD
ATOM     10  H   UNL     1      15.174  44.755  12.223  0.00  0.00    +0.000 HD
ENDROOT
BRANCH   2  11
ATOM     11  C1* UNL     1      11.774  49.529  12.375  0.00  0.00    +0.000 A 
ATOM     12  O4* UNL     1      12.229  50.842  12.543  0.00  0.00    +0.000 OA
ATOM     13  C4* UNL     1      11.102  51.672  12.492  0.00  0.00    +0.000 A 
ATOM     14  C3* UNL     1       9.927  50.863  12.296  0.00  0.00    +0.000 A 
ATOM     15  C2* UNL     1      10.375  49.532  12.213  0.00  0.00    +0.000 A 
BRANCH  14  16
ATOM     16  O3* UNL     1       8.840  51.350  11.628  0.00  0.00    +0.000 OA
ATOM     17  H3* UNL     1       8.595  50.768  10.888  0.00  0.00    +0.000 HD
ENDBRANCH  14  16
BRANCH  13  18
ATOM     18  C5* UNL     1      11.197  53.077  12.455  0.00  0.00    +0.000 C 
BRANCH  18  19
ATOM     19  O5* UNL     1      11.282  54.404  12.418  0.00  0.00    +0.000 OA
ATOM     20  H5* UNL     1      11.091  54.728  11.521  0.00  0.00    +0.000 HD
ENDBRANCH  18  19
ENDBRANCH  13  18
ENDBRANCH   2  11
TORSDOF 4
ENDMDL
