MODEL 1
REMARK VINA RESULT:      -5.1      0.000      0.000
REMARK  Name = Deferoxamine.pdbqt.pdb
REMARK  19 active torsions:
REMARK  status: ('A' for Active; 'I' for Inactive)
REMARK    1  A    between atoms: C_1  and  C_2
REMARK    2  A    between atoms: C_3  and  C_4
REMARK    3  A    between atoms: C_4  and  N_5
REMARK    4  A    between atoms: C_6  and  C_9
REMARK    5  A    between atoms: C_10  and  C_11
REMARK    6  A    between atoms: N_13  and  O_14
REMARK    7  A    between atoms: N_13  and  C_16
REMARK    8  A    between atoms: C_17  and  C_18
REMARK    9  A    between atoms: C_19  and  C_20
REMARK   10  A    between atoms: C_20  and  N_21
REMARK   11  A    between atoms: C_24  and  N_25
REMARK   12  A    between atoms: N_25  and  O_28
REMARK   13  A    between atoms: C_26  and  C_30
REMARK   14  A    between atoms: C_31  and  C_32
REMARK   15  A    between atoms: N_34  and  C_36
REMARK   16  A    between atoms: C_37  and  C_38
REMARK   17  A    between atoms: C_38  and  C_39
REMARK   18  A    between atoms: C_40  and  N_41
REMARK   19  A    between atoms: N_41  and  O_45
REMARK                            x       y       z     vdW  Elec       q    Type
REMARK                         _______ _______ _______ _____ _____    ______ ____
ROOT
ATOM      1  C   UNL     1      -4.766  22.155   2.741  0.00  0.00    +0.000 C 
ATOM      2  C   UNL     1      -5.619  22.375   1.924  0.00  0.00    +0.000 C 
ENDROOT
BRANCH   2   3
ATOM      3  N   UNL     1      -6.577  22.624   1.008  0.00  0.00    +0.000 N 
ATOM      4  C   UNL     1      -7.831  22.063   0.838  0.00  0.00    +0.000 C 
ATOM      5  O   UNL     1      -8.240  21.069   1.428  0.00  0.00    +0.000 OA
BRANCH   4   6
ATOM      6  C   UNL     1      -8.710  22.677  -0.136  0.00  0.00    +0.000 C 
ATOM      7  C   UNL     1      -9.430  23.183  -0.954  0.00  0.00    +0.000 C 
BRANCH   7   8
ATOM      8  C   UNL     1     -10.276  23.797  -1.948  0.00  0.00    +0.000 C 
ATOM      9  O   UNL     1     -10.927  23.083  -2.696  0.00  0.00    +0.000 OA
ATOM     10  N   UNL     1     -10.266  25.174  -1.955  0.00  0.00    +0.000 N 
ATOM     11  H   UNL     1      -9.676  25.621  -1.266  0.00  0.00    +0.000 HD
BRANCH  10  12
ATOM     12  C   UNL     1     -10.943  26.025  -2.757  0.00  0.00    +0.000 C 
ATOM     13  C   UNL     1     -11.540  26.783  -3.470  0.00  0.00    +0.000 C 
BRANCH  13  14
ATOM     14  C   UNL     1     -12.293  27.754  -4.385  0.00  0.00    +0.000 C 
BRANCH  14  15
ATOM     15  C   UNL     1     -13.041  28.722  -5.306  0.00  0.00    +0.000 C 
ATOM     16  C   UNL     1     -13.627  29.478  -6.031  0.00  0.00    +0.000 C 
BRANCH  16  17
ATOM     17  N   UNL     1     -14.286  30.322  -6.849  0.00  0.00    +0.000 N 
ATOM     18  C   UNL     1     -15.388  31.116  -6.635  0.00  0.00    +0.000 C 
ATOM     19  O   UNL     1     -16.063  31.267  -5.632  0.00  0.00    +0.000 OA
ATOM     20  C   UNL     1     -15.911  31.969  -7.764  0.00  0.00    +0.000 C 
BRANCH  17  21
ATOM     21  O   UNL     1     -13.664  30.319  -8.124  0.00  0.00    +0.000 OA
ATOM     22  H   UNL     1     -12.713  30.410  -7.908  0.00  0.00    +0.000 HD
ENDBRANCH  17  21
ENDBRANCH  16  17
ENDBRANCH  14  15
ENDBRANCH  13  14
ENDBRANCH  10  12
ENDBRANCH   7   8
ENDBRANCH   4   6
BRANCH   3  23
ATOM     23  O   UNL     1      -6.341  23.884   0.414  0.00  0.00    +0.000 OA
ATOM     24  H   UNL     1      -5.477  23.738  -0.015  0.00  0.00    +0.000 HD
ENDBRANCH   3  23
ENDBRANCH   2   3
BRANCH   1  25
ATOM     25  C   UNL     1      -3.690  21.877   3.794  0.00  0.00    +0.000 C 
ATOM     26  C   UNL     1      -2.843  21.648   4.612  0.00  0.00    +0.000 C 
BRANCH  26  27
ATOM     27  C   UNL     1      -1.757  21.343   5.649  0.00  0.00    +0.000 C 
BRANCH  27  28
ATOM     28  N   UNL     1      -0.811  21.079   6.577  0.00  0.00    +0.000 N 
ATOM     29  C   UNL     1      -0.184  19.889   6.860  0.00  0.00    +0.000 C 
ATOM     30  O   UNL     1      -0.385  18.823   6.295  0.00  0.00    +0.000 OA
ATOM     31  H   UNL     1      -0.532  21.881   7.128  0.00  0.00    +0.000 HD
BRANCH  29  32
ATOM     32  C   UNL     1       0.792  19.944   7.921  0.00  0.00    +0.000 C 
ATOM     33  C   UNL     1       1.622  19.987   8.788  0.00  0.00    +0.000 C 
BRANCH  33  34
ATOM     34  C   UNL     1       2.638  20.048   9.819  0.00  0.00    +0.000 C 
ATOM     35  O   UNL     1       2.309  20.484  10.917  0.00  0.00    +0.000 OA
ATOM     36  N   UNL     1       3.918  19.644   9.478  0.00  0.00    +0.000 N 
BRANCH  36  37
ATOM     37  C   UNL     1       5.014  19.456  10.241  0.00  0.00    +0.000 C 
ATOM     38  C   UNL     1       5.988  19.292  10.922  0.00  0.00    +0.000 C 
BRANCH  38  39
ATOM     39  C   UNL     1       7.235  19.088  11.790  0.00  0.00    +0.000 C 
ATOM     40  C   UNL     1       8.208  18.930  12.473  0.00  0.00    +0.000 C 
BRANCH  40  41
ATOM     41  C   UNL     1       9.447  18.727  13.349  0.00  0.00    +0.000 C 
BRANCH  41  42
ATOM     42  N   UNL     1      10.624  18.535  14.180  0.00  0.00    +0.000 NA
ATOM     43  H   UNL     1      10.353  18.274  15.127  0.00  0.00    +0.000 HD
ATOM     44  H   UNL     1      11.188  17.764  13.826  0.00  0.00    +0.000 HD
ENDBRANCH  41  42
ENDBRANCH  40  41
ENDBRANCH  38  39
ENDBRANCH  36  37
BRANCH  36  45
ATOM     45  O   UNL     1       4.084  18.975   8.244  0.00  0.00    +0.000 OA
ATOM     46  H   UNL     1       4.165  18.049   8.535  0.00  0.00    +0.000 HD
ENDBRANCH  36  45
ENDBRANCH  33  34
ENDBRANCH  29  32
ENDBRANCH  27  28
ENDBRANCH  26  27
ENDBRANCH   1  25
TORSDOF 19
ENDMDL
MODEL 2
REMARK VINA RESULT:      -5.0      2.399     21.916
REMARK  Name = Deferoxamine.pdbqt.pdb
REMARK  19 active torsions:
REMARK  status: ('A' for Active; 'I' for Inactive)
REMARK    1  A    between atoms: C_1  and  C_2
REMARK    2  A    between atoms: C_3  and  C_4
REMARK    3  A    between atoms: C_4  and  N_5
REMARK    4  A    between atoms: C_6  and  C_9
REMARK    5  A    between atoms: C_10  and  C_11
REMARK    6  A    between atoms: N_13  and  O_14
REMARK    7  A    between atoms: N_13  and  C_16
REMARK    8  A    between atoms: C_17  and  C_18
REMARK    9  A    between atoms: C_19  and  C_20
REMARK   10  A    between atoms: C_20  and  N_21
REMARK   11  A    between atoms: C_24  and  N_25
REMARK   12  A    between atoms: N_25  and  O_28
REMARK   13  A    between atoms: C_26  and  C_30
REMARK   14  A    between atoms: C_31  and  C_32
REMARK   15  A    between atoms: N_34  and  C_36
REMARK   16  A    between atoms: C_37  and  C_38
REMARK   17  A    between atoms: C_38  and  C_39
REMARK   18  A    between atoms: C_40  and  N_41
REMARK   19  A    between atoms: N_41  and  O_45
REMARK                            x       y       z     vdW  Elec       q    Type
REMARK                         _______ _______ _______ _____ _____    ______ ____
ROOT
ATOM      1  C   UNL     1      -2.683  22.127   3.621  0.00  0.00    +0.000 C 
ATOM      2  C   UNL     1      -1.758  21.815   4.321  0.00  0.00    +0.000 C 
ENDROOT
BRANCH   2   3
ATOM      3  N   UNL     1      -0.718  21.464   5.106  0.00  0.00    +0.000 N 
ATOM      4  C   UNL     1      -0.606  20.474   6.066  0.00  0.00    +0.000 C 
ATOM      5  O   UNL     1      -1.542  19.816   6.506  0.00  0.00    +0.000 OA
BRANCH   4   6
ATOM      6  C   UNL     1       0.711  20.221   6.613  0.00  0.00    +0.000 C 
ATOM      7  C   UNL     1       1.807  20.004   7.056  0.00  0.00    +0.000 C 
BRANCH   7   8
ATOM      8  C   UNL     1       3.121  19.723   7.578  0.00  0.00    +0.000 C 
ATOM      9  O   UNL     1       4.003  19.373   6.807  0.00  0.00    +0.000 OA
ATOM     10  N   UNL     1       3.258  19.882   8.939  0.00  0.00    +0.000 N 
ATOM     11  H   UNL     1       2.431  20.183   9.439  0.00  0.00    +0.000 HD
BRANCH  10  12
ATOM     12  C   UNL     1       4.350  19.696   9.712  0.00  0.00    +0.000 C 
ATOM     13  C   UNL     1       5.320  19.525  10.397  0.00  0.00    +0.000 C 
BRANCH  13  14
ATOM     14  C   UNL     1       6.559  19.299  11.270  0.00  0.00    +0.000 C 
BRANCH  14  15
ATOM     15  C   UNL     1       7.801  19.077  12.137  0.00  0.00    +0.000 C 
ATOM     16  C   UNL     1       8.776  18.906  12.816  0.00  0.00    +0.000 C 
BRANCH  16  17
ATOM     17  N   UNL     1       9.870  18.722  13.580  0.00  0.00    +0.000 N 
ATOM     18  C   UNL     1      10.518  19.562  14.453  0.00  0.00    +0.000 C 
ATOM     19  O   UNL     1      10.264  20.711  14.771  0.00  0.00    +0.000 OA
ATOM     20  C   UNL     1      11.746  19.068  15.178  0.00  0.00    +0.000 C 
BRANCH  17  21
ATOM     21  O   UNL     1      10.368  17.408  13.376  0.00  0.00    +0.000 OA
ATOM     22  H   UNL     1      10.915  17.252  14.173  0.00  0.00    +0.000 HD
ENDBRANCH  17  21
ENDBRANCH  16  17
ENDBRANCH  14  15
ENDBRANCH  13  14
ENDBRANCH  10  12
ENDBRANCH   7   8
ENDBRANCH   4   6
BRANCH   3  23
ATOM     23  O   UNL     1       0.478  21.977   4.555  0.00  0.00    +0.000 OA
ATOM     24  H   UNL     1       0.872  22.422   5.329  0.00  0.00    +0.000 HD
ENDBRANCH   3  23
ENDBRANCH   2   3
BRANCH   1  25
ATOM     25  C   UNL     1      -3.865  22.508   2.725  0.00  0.00    +0.000 C 
ATOM     26  C   UNL     1      -4.794  22.794   2.022  0.00  0.00    +0.000 C 
BRANCH  26  27
ATOM     27  C   UNL     1      -5.983  23.145   1.122  0.00  0.00    +0.000 C 
BRANCH  27  28
ATOM     28  N   UNL     1      -7.036  23.437   0.328  0.00  0.00    +0.000 N 
ATOM     29  C   UNL     1      -8.129  22.662   0.019  0.00  0.00    +0.000 C 
ATOM     30  O   UNL     1      -8.342  21.530   0.429  0.00  0.00    +0.000 OA
ATOM     31  H   UNL     1      -7.004  24.360  -0.085  0.00  0.00    +0.000 HD
BRANCH  29  32
ATOM     32  C   UNL     1      -9.088  23.275  -0.867  0.00  0.00    +0.000 C 
ATOM     33  C   UNL     1      -9.889  23.804  -1.590  0.00  0.00    +0.000 C 
BRANCH  33  34
ATOM     34  C   UNL     1     -10.848  24.462  -2.453  0.00  0.00    +0.000 C 
ATOM     35  O   UNL     1     -11.911  23.887  -2.665  0.00  0.00    +0.000 OA
ATOM     36  N   UNL     1     -10.480  25.676  -3.007  0.00  0.00    +0.000 N 
BRANCH  36  37
ATOM     37  C   UNL     1     -11.196  26.573  -3.717  0.00  0.00    +0.000 C 
ATOM     38  C   UNL     1     -11.832  27.373  -4.346  0.00  0.00    +0.000 C 
BRANCH  38  39
ATOM     39  C   UNL     1     -12.644  28.399  -5.144  0.00  0.00    +0.000 C 
ATOM     40  C   UNL     1     -13.277  29.206  -5.766  0.00  0.00    +0.000 C 
BRANCH  40  41
ATOM     41  C   UNL     1     -14.083  30.239  -6.559  0.00  0.00    +0.000 C 
BRANCH  41  42
ATOM     42  N   UNL     1     -14.847  31.220  -7.311  0.00  0.00    +0.000 NA
ATOM     43  H   UNL     1     -15.319  31.864  -6.678  0.00  0.00    +0.000 HD
ATOM     44  H   UNL     1     -14.227  31.790  -7.884  0.00  0.00    +0.000 HD
ENDBRANCH  41  42
ENDBRANCH  40  41
ENDBRANCH  38  39
ENDBRANCH  36  37
BRANCH  36  45
ATOM     45  O   UNL     1      -9.317  26.299  -2.501  0.00  0.00    +0.000 OA
ATOM     46  H   UNL     1      -9.427  26.163  -1.541  0.00  0.00    +0.000 HD
ENDBRANCH  36  45
ENDBRANCH  33  34
ENDBRANCH  29  32
ENDBRANCH  27  28
ENDBRANCH  26  27
ENDBRANCH   1  25
TORSDOF 19
ENDMDL
MODEL 3
REMARK VINA RESULT:      -4.9      1.874      2.599
REMARK  Name = Deferoxamine.pdbqt.pdb
REMARK  19 active torsions:
REMARK  status: ('A' for Active; 'I' for Inactive)
REMARK    1  A    between atoms: C_1  and  C_2
REMARK    2  A    between atoms: C_3  and  C_4
REMARK    3  A    between atoms: C_4  and  N_5
REMARK    4  A    between atoms: C_6  and  C_9
REMARK    5  A    between atoms: C_10  and  C_11
REMARK    6  A    between atoms: N_13  and  O_14
REMARK    7  A    between atoms: N_13  and  C_16
REMARK    8  A    between atoms: C_17  and  C_18
REMARK    9  A    between atoms: C_19  and  C_20
REMARK   10  A    between atoms: C_20  and  N_21
REMARK   11  A    between atoms: C_24  and  N_25
REMARK   12  A    between atoms: N_25  and  O_28
REMARK   13  A    between atoms: C_26  and  C_30
REMARK   14  A    between atoms: C_31  and  C_32
REMARK   15  A    between atoms: N_34  and  C_36
REMARK   16  A    between atoms: C_37  and  C_38
REMARK   17  A    between atoms: C_38  and  C_39
REMARK   18  A    between atoms: C_40  and  N_41
REMARK   19  A    between atoms: N_41  and  O_45
REMARK                            x       y       z     vdW  Elec       q    Type
REMARK                         _______ _______ _______ _____ _____    ______ ____
ROOT
ATOM      1  C   UNL     1      -5.488  22.998   0.785  0.00  0.00    +0.000 C 
ATOM      2  C   UNL     1      -6.285  23.422  -0.007  0.00  0.00    +0.000 C 
ENDROOT
BRANCH   2   3
ATOM      3  N   UNL     1      -7.178  23.900  -0.899  0.00  0.00    +0.000 N 
ATOM      4  C   UNL     1      -8.521  23.613  -1.072  0.00  0.00    +0.000 C 
ATOM      5  O   UNL     1      -9.120  22.699  -0.515  0.00  0.00    +0.000 OA
BRANCH   4   6
ATOM      6  C   UNL     1      -9.263  24.434  -2.007  0.00  0.00    +0.000 C 
ATOM      7  C   UNL     1      -9.888  25.117  -2.772  0.00  0.00    +0.000 C 
BRANCH   7   8
ATOM      8  C   UNL     1     -10.658  25.930  -3.681  0.00  0.00    +0.000 C 
ATOM      9  O   UNL     1     -10.595  25.701  -4.880  0.00  0.00    +0.000 OA
ATOM     10  N   UNL     1     -11.413  26.917  -3.088  0.00  0.00    +0.000 N 
ATOM     11  H   UNL     1     -11.360  26.975  -2.079  0.00  0.00    +0.000 HD
BRANCH  10  12
ATOM     12  C   UNL     1     -12.228  27.827  -3.665  0.00  0.00    +0.000 C 
ATOM     13  C   UNL     1     -12.948  28.638  -4.179  0.00  0.00    +0.000 C 
BRANCH  13  14
ATOM     14  C   UNL     1     -13.858  29.678  -4.840  0.00  0.00    +0.000 C 
BRANCH  14  15
ATOM     15  C   UNL     1     -14.768  30.722  -5.493  0.00  0.00    +0.000 C 
ATOM     16  C   UNL     1     -15.479  31.544  -6.003  0.00  0.00    +0.000 C 
BRANCH  16  17
ATOM     17  N   UNL     1     -16.273  32.470  -6.574  0.00  0.00    +0.000 N 
ATOM     18  C   UNL     1     -17.642  32.576  -6.637  0.00  0.00    +0.000 C 
ATOM     19  O   UNL     1     -18.507  31.848  -6.181  0.00  0.00    +0.000 OA
ATOM     20  C   UNL     1     -18.258  33.745  -7.364  0.00  0.00    +0.000 C 
BRANCH  17  21
ATOM     21  O   UNL     1     -15.467  33.460  -7.194  0.00  0.00    +0.000 OA
ATOM     22  H   UNL     1     -14.566  33.243  -6.877  0.00  0.00    +0.000 HD
ENDBRANCH  17  21
ENDBRANCH  16  17
ENDBRANCH  14  15
ENDBRANCH  13  14
ENDBRANCH  10  12
ENDBRANCH   7   8
ENDBRANCH   4   6
BRANCH   3  23
ATOM     23  O   UNL     1      -6.693  25.109  -1.446  0.00  0.00    +0.000 OA
ATOM     24  H   UNL     1      -7.246  25.766  -0.983  0.00  0.00    +0.000 HD
ENDBRANCH   3  23
ENDBRANCH   2   3
BRANCH   1  25
ATOM     25  C   UNL     1      -4.465  22.470   1.795  0.00  0.00    +0.000 C 
ATOM     26  C   UNL     1      -3.654  22.066   2.581  0.00  0.00    +0.000 C 
BRANCH  26  27
ATOM     27  C   UNL     1      -2.609  21.559   3.580  0.00  0.00    +0.000 C 
BRANCH  27  28
ATOM     28  N   UNL     1      -1.698  21.118   4.475  0.00  0.00    +0.000 N 
ATOM     29  C   UNL     1      -1.671  21.288   5.838  0.00  0.00    +0.000 C 
ATOM     30  O   UNL     1      -2.502  21.892   6.501  0.00  0.00    +0.000 OA
ATOM     31  H   UNL     1      -0.939  20.584   4.069  0.00  0.00    +0.000 HD
BRANCH  29  32
ATOM     32  C   UNL     1      -0.548  20.682   6.512  0.00  0.00    +0.000 C 
ATOM     33  C   UNL     1       0.387  20.160   7.057  0.00  0.00    +0.000 C 
BRANCH  33  34
ATOM     34  C   UNL     1       1.520  19.522   7.694  0.00  0.00    +0.000 C 
ATOM     35  O   UNL     1       1.784  18.370   7.366  0.00  0.00    +0.000 OA
ATOM     36  N   UNL     1       2.203  20.247   8.657  0.00  0.00    +0.000 N 
BRANCH  36  37
ATOM     37  C   UNL     1       3.356  19.983   9.304  0.00  0.00    +0.000 C 
ATOM     38  C   UNL     1       4.382  19.744   9.879  0.00  0.00    +0.000 C 
BRANCH  38  39
ATOM     39  C   UNL     1       5.690  19.433  10.614  0.00  0.00    +0.000 C 
ATOM     40  C   UNL     1       6.714  19.194  11.192  0.00  0.00    +0.000 C 
BRANCH  40  41
ATOM     41  C   UNL     1       8.020  18.893  11.933  0.00  0.00    +0.000 C 
BRANCH  41  42
ATOM     42  N   UNL     1       9.259  18.607  12.636  0.00  0.00    +0.000 NA
ATOM     43  H   UNL     1       9.075  18.420  13.621  0.00  0.00    +0.000 HD
ATOM     44  H   UNL     1       9.692  17.762  12.266  0.00  0.00    +0.000 HD
ENDBRANCH  41  42
ENDBRANCH  40  41
ENDBRANCH  38  39
ENDBRANCH  36  37
BRANCH  36  45
ATOM     45  O   UNL     1       1.907  21.625   8.767  0.00  0.00    +0.000 OA
ATOM     46  H   UNL     1       0.955  21.602   8.977  0.00  0.00    +0.000 HD
ENDBRANCH  36  45
ENDBRANCH  33  34
ENDBRANCH  29  32
ENDBRANCH  27  28
ENDBRANCH  26  27
ENDBRANCH   1  25
TORSDOF 19
ENDMDL
MODEL 4
REMARK VINA RESULT:      -4.8      2.955     21.889
REMARK  Name = Deferoxamine.pdbqt.pdb
REMARK  19 active torsions:
REMARK  status: ('A' for Active; 'I' for Inactive)
REMARK    1  A    between atoms: C_1  and  C_2
REMARK    2  A    between atoms: C_3  and  C_4
REMARK    3  A    between atoms: C_4  and  N_5
REMARK    4  A    between atoms: C_6  and  C_9
REMARK    5  A    between atoms: C_10  and  C_11
REMARK    6  A    between atoms: N_13  and  O_14
REMARK    7  A    between atoms: N_13  and  C_16
REMARK    8  A    between atoms: C_17  and  C_18
REMARK    9  A    between atoms: C_19  and  C_20
REMARK   10  A    between atoms: C_20  and  N_21
REMARK   11  A    between atoms: C_24  and  N_25
REMARK   12  A    between atoms: N_25  and  O_28
REMARK   13  A    between atoms: C_26  and  C_30
REMARK   14  A    between atoms: C_31  and  C_32
REMARK   15  A    between atoms: N_34  and  C_36
REMARK   16  A    between atoms: C_37  and  C_38
REMARK   17  A    between atoms: C_38  and  C_39
REMARK   18  A    between atoms: C_40  and  N_41
REMARK   19  A    between atoms: N_41  and  O_45
REMARK                            x       y       z     vdW  Elec       q    Type
REMARK                         _______ _______ _______ _____ _____    ______ ____
ROOT
ATOM      1  C   UNL     1      -2.074  21.370   4.366  0.00  0.00    +0.000 C 
ATOM      2  C   UNL     1      -1.303  20.929   5.176  0.00  0.00    +0.000 C 
ENDROOT
BRANCH   2   3
ATOM      3  N   UNL     1      -0.439  20.433   6.085  0.00  0.00    +0.000 N 
ATOM      4  C   UNL     1      -0.550  19.349   6.938  0.00  0.00    +0.000 C 
ATOM      5  O   UNL     1      -1.583  18.718   7.139  0.00  0.00    +0.000 OA
BRANCH   4   6
ATOM      6  C   UNL     1       0.634  18.954   7.673  0.00  0.00    +0.000 C 
ATOM      7  C   UNL     1       1.623  18.637   8.276  0.00  0.00    +0.000 C 
BRANCH   7   8
ATOM      8  C   UNL     1       2.824  18.261   8.981  0.00  0.00    +0.000 C 
ATOM      9  O   UNL     1       3.103  17.076   9.088  0.00  0.00    +0.000 OA
ATOM     10  N   UNL     1       3.563  19.310   9.480  0.00  0.00    +0.000 N 
ATOM     11  H   UNL     1       3.199  20.237   9.302  0.00  0.00    +0.000 HD
BRANCH  10  12
ATOM     12  C   UNL     1       4.720  19.280  10.176  0.00  0.00    +0.000 C 
ATOM     13  C   UNL     1       5.745  19.255  10.800  0.00  0.00    +0.000 C 
BRANCH  13  14
ATOM     14  C   UNL     1       7.048  19.223  11.604  0.00  0.00    +0.000 C 
BRANCH  14  15
ATOM     15  C   UNL     1       8.351  19.182  12.408  0.00  0.00    +0.000 C 
ATOM     16  C   UNL     1       9.374  19.150  13.035  0.00  0.00    +0.000 C 
BRANCH  16  17
ATOM     17  N   UNL     1      10.525  19.115  13.734  0.00  0.00    +0.000 N 
ATOM     18  C   UNL     1      11.111  20.043  14.562  0.00  0.00    +0.000 C 
ATOM     19  O   UNL     1      10.732  21.155  14.886  0.00  0.00    +0.000 OA
ATOM     20  C   UNL     1      12.432  19.718  15.215  0.00  0.00    +0.000 C 
BRANCH  17  21
ATOM     21  O   UNL     1      11.173  17.873  13.509  0.00  0.00    +0.000 OA
ATOM     22  H   UNL     1      12.114  18.078  13.686  0.00  0.00    +0.000 HD
ENDBRANCH  17  21
ENDBRANCH  16  17
ENDBRANCH  14  15
ENDBRANCH  13  14
ENDBRANCH  10  12
ENDBRANCH   7   8
ENDBRANCH   4   6
BRANCH   3  23
ATOM     23  O   UNL     1       0.861  20.912   5.805  0.00  0.00    +0.000 OA
ATOM     24  H   UNL     1       0.996  21.544   6.536  0.00  0.00    +0.000 HD
ENDBRANCH   3  23
ENDBRANCH   2   3
BRANCH   1  25
ATOM     25  C   UNL     1      -3.068  21.931   3.345  0.00  0.00    +0.000 C 
ATOM     26  C   UNL     1      -3.851  22.379   2.555  0.00  0.00    +0.000 C 
BRANCH  26  27
ATOM     27  C   UNL     1      -4.856  22.961   1.555  0.00  0.00    +0.000 C 
BRANCH  27  28
ATOM     28  N   UNL     1      -5.729  23.488   0.670  0.00  0.00    +0.000 N 
ATOM     29  C   UNL     1      -5.972  23.118  -0.632  0.00  0.00    +0.000 C 
ATOM     30  O   UNL     1      -5.413  22.212  -1.234  0.00  0.00    +0.000 OA
ATOM     31  H   UNL     1      -6.279  24.256   1.033  0.00  0.00    +0.000 HD
BRANCH  29  32
ATOM     32  C   UNL     1      -6.983  23.889  -1.313  0.00  0.00    +0.000 C 
ATOM     33  C   UNL     1      -7.841  24.519  -1.870  0.00  0.00    +0.000 C 
BRANCH  33  34
ATOM     34  C   UNL     1      -8.890  25.275  -2.523  0.00  0.00    +0.000 C 
ATOM     35  O   UNL     1      -8.643  25.759  -3.622  0.00  0.00    +0.000 OA
ATOM     36  N   UNL     1     -10.086  25.427  -1.841  0.00  0.00    +0.000 N 
BRANCH  36  37
ATOM     37  C   UNL     1     -11.267  25.942  -2.241  0.00  0.00    +0.000 C 
ATOM     38  C   UNL     1     -12.319  26.396  -2.596  0.00  0.00    +0.000 C 
BRANCH  38  39
ATOM     39  C   UNL     1     -13.664  26.971  -3.054  0.00  0.00    +0.000 C 
ATOM     40  C   UNL     1     -14.718  27.417  -3.413  0.00  0.00    +0.000 C 
BRANCH  40  41
ATOM     41  C   UNL     1     -16.066  27.981  -3.872  0.00  0.00    +0.000 C 
BRANCH  41  42
ATOM     42  N   UNL     1     -17.345  28.517  -4.307  0.00  0.00    +0.000 NA
ATOM     43  H   UNL     1     -18.105  28.101  -3.772  0.00  0.00    +0.000 HD
ATOM     44  H   UNL     1     -17.390  29.519  -4.127  0.00  0.00    +0.000 HD
ENDBRANCH  41  42
ENDBRANCH  40  41
ENDBRANCH  38  39
ENDBRANCH  36  37
BRANCH  36  45
ATOM     45  O   UNL     1     -10.284  24.636  -0.687  0.00  0.00    +0.000 OA
ATOM     46  H   UNL     1     -10.863  25.212  -0.154  0.00  0.00    +0.000 HD
ENDBRANCH  36  45
ENDBRANCH  33  34
ENDBRANCH  29  32
ENDBRANCH  27  28
ENDBRANCH  26  27
ENDBRANCH   1  25
TORSDOF 19
ENDMDL
MODEL 5
REMARK VINA RESULT:      -4.7     21.705     27.331
REMARK  Name = Deferoxamine.pdbqt.pdb
REMARK  19 active torsions:
REMARK  status: ('A' for Active; 'I' for Inactive)
REMARK    1  A    between atoms: C_1  and  C_2
REMARK    2  A    between atoms: C_3  and  C_4
REMARK    3  A    between atoms: C_4  and  N_5
REMARK    4  A    between atoms: C_6  and  C_9
REMARK    5  A    between atoms: C_10  and  C_11
REMARK    6  A    between atoms: N_13  and  O_14
REMARK    7  A    between atoms: N_13  and  C_16
REMARK    8  A    between atoms: C_17  and  C_18
REMARK    9  A    between atoms: C_19  and  C_20
REMARK   10  A    between atoms: C_20  and  N_21
REMARK   11  A    between atoms: C_24  and  N_25
REMARK   12  A    between atoms: N_25  and  O_28
REMARK   13  A    between atoms: C_26  and  C_30
REMARK   14  A    between atoms: C_31  and  C_32
REMARK   15  A    between atoms: N_34  and  C_36
REMARK   16  A    between atoms: C_37  and  C_38
REMARK   17  A    between atoms: C_38  and  C_39
REMARK   18  A    between atoms: C_40  and  N_41
REMARK   19  A    between atoms: N_41  and  O_45
REMARK                            x       y       z     vdW  Elec       q    Type
REMARK                         _______ _______ _______ _____ _____    ______ ____
ROOT
ATOM      1  C   UNL     1     -14.828  43.469  -0.961  0.00  0.00    +0.000 C 
ATOM      2  C   UNL     1     -14.641  42.549  -1.711  0.00  0.00    +0.000 C 
ENDROOT
BRANCH   2   3
ATOM      3  N   UNL     1     -14.430  41.516  -2.553  0.00  0.00    +0.000 N 
ATOM      4  C   UNL     1     -14.917  41.275  -3.826  0.00  0.00    +0.000 C 
ATOM      5  O   UNL     1     -15.806  41.921  -4.370  0.00  0.00    +0.000 OA
BRANCH   4   6
ATOM      6  C   UNL     1     -14.356  40.155  -4.554  0.00  0.00    +0.000 C 
ATOM      7  C   UNL     1     -13.887  39.235  -5.168  0.00  0.00    +0.000 C 
BRANCH   7   8
ATOM      8  C   UNL     1     -13.330  38.141  -5.925  0.00  0.00    +0.000 C 
ATOM      9  O   UNL     1     -12.329  37.578  -5.506  0.00  0.00    +0.000 OA
ATOM     10  N   UNL     1     -14.004  37.828  -7.084  0.00  0.00    +0.000 N 
ATOM     11  H   UNL     1     -14.822  38.387  -7.290  0.00  0.00    +0.000 HD
BRANCH  10  12
ATOM     12  C   UNL     1     -13.731  36.867  -7.993  0.00  0.00    +0.000 C 
ATOM     13  C   UNL     1     -13.495  36.013  -8.802  0.00  0.00    +0.000 C 
BRANCH  13  14
ATOM     14  C   UNL     1     -13.202  34.922  -9.837  0.00  0.00    +0.000 C 
BRANCH  14  15
ATOM     15  C   UNL     1     -12.905  33.838 -10.877  0.00  0.00    +0.000 C 
ATOM     16  C   UNL     1     -12.675  32.988 -11.693  0.00  0.00    +0.000 C 
BRANCH  16  17
ATOM     17  N   UNL     1     -12.423  32.035 -12.611  0.00  0.00    +0.000 N 
ATOM     18  C   UNL     1     -11.280  31.325 -12.890  0.00  0.00    +0.000 C 
ATOM     19  O   UNL     1     -10.180  31.372 -12.367  0.00  0.00    +0.000 OA
ATOM     20  C   UNL     1     -11.298  30.306 -14.002  0.00  0.00    +0.000 C 
BRANCH  17  21
ATOM     21  O   UNL     1     -13.596  31.797 -13.373  0.00  0.00    +0.000 OA
ATOM     22  H   UNL     1     -14.139  31.241 -12.777  0.00  0.00    +0.000 HD
ENDBRANCH  17  21
ENDBRANCH  16  17
ENDBRANCH  14  15
ENDBRANCH  13  14
ENDBRANCH  10  12
ENDBRANCH   7   8
ENDBRANCH   4   6
BRANCH   3  23
ATOM     23  O   UNL     1     -13.266  40.820  -2.157  0.00  0.00    +0.000 OA
ATOM     24  H   UNL     1     -13.563  39.893  -2.218  0.00  0.00    +0.000 HD
ENDBRANCH   3  23
ENDBRANCH   2   3
BRANCH   1  25
ATOM     25  C   UNL     1     -15.057  44.651  -0.016  0.00  0.00    +0.000 C 
ATOM     26  C   UNL     1     -15.231  45.569   0.736  0.00  0.00    +0.000 C 
BRANCH  26  27
ATOM     27  C   UNL     1     -15.448  46.735   1.707  0.00  0.00    +0.000 C 
BRANCH  27  28
ATOM     28  N   UNL     1     -15.636  47.751   2.576  0.00  0.00    +0.000 N 
ATOM     29  C   UNL     1     -16.444  47.802   3.688  0.00  0.00    +0.000 C 
ATOM     30  O   UNL     1     -17.159  46.897   4.093  0.00  0.00    +0.000 OA
ATOM     31  H   UNL     1     -15.095  48.582   2.371  0.00  0.00    +0.000 HD
BRANCH  29  32
ATOM     32  C   UNL     1     -16.416  49.048   4.413  0.00  0.00    +0.000 C 
ATOM     33  C   UNL     1     -16.371  50.092   5.007  0.00  0.00    +0.000 C 
BRANCH  33  34
ATOM     34  C   UNL     1     -16.306  51.359   5.706  0.00  0.00    +0.000 C 
ATOM     35  O   UNL     1     -17.344  51.795   6.193  0.00  0.00    +0.000 OA
ATOM     36  N   UNL     1     -15.082  52.006   5.741  0.00  0.00    +0.000 N 
BRANCH  36  37
ATOM     37  C   UNL     1     -14.685  53.101   6.421  0.00  0.00    +0.000 C 
ATOM     38  C   UNL     1     -14.329  54.074   7.027  0.00  0.00    +0.000 C 
BRANCH  38  39
ATOM     39  C   UNL     1     -13.871  55.312   7.805  0.00  0.00    +0.000 C 
ATOM     40  C   UNL     1     -13.509  56.278   8.418  0.00  0.00    +0.000 C 
BRANCH  40  41
ATOM     41  C   UNL     1     -13.045  57.509   9.201  0.00  0.00    +0.000 C 
BRANCH  41  42
ATOM     42  N   UNL     1     -12.603  58.678   9.944  0.00  0.00    +0.000 NA
ATOM     43  H   UNL     1     -11.631  58.891   9.725  0.00  0.00    +0.000 HD
ATOM     44  H   UNL     1     -13.140  59.498   9.668  0.00  0.00    +0.000 HD
ENDBRANCH  41  42
ENDBRANCH  40  41
ENDBRANCH  38  39
ENDBRANCH  36  37
BRANCH  36  45
ATOM     45  O   UNL     1     -13.947  51.277   5.319  0.00  0.00    +0.000 OA
ATOM     46  H   UNL     1     -14.286  50.836   4.519  0.00  0.00    +0.000 HD
ENDBRANCH  36  45
ENDBRANCH  33  34
ENDBRANCH  29  32
ENDBRANCH  27  28
ENDBRANCH  26  27
ENDBRANCH   1  25
TORSDOF 19
ENDMDL
MODEL 6
REMARK VINA RESULT:      -4.5     22.068     29.217
REMARK  Name = Deferoxamine.pdbqt.pdb
REMARK  19 active torsions:
REMARK  status: ('A' for Active; 'I' for Inactive)
REMARK    1  A    between atoms: C_1  and  C_2
REMARK    2  A    between atoms: C_3  and  C_4
REMARK    3  A    between atoms: C_4  and  N_5
REMARK    4  A    between atoms: C_6  and  C_9
REMARK    5  A    between atoms: C_10  and  C_11
REMARK    6  A    between atoms: N_13  and  O_14
REMARK    7  A    between atoms: N_13  and  C_16
REMARK    8  A    between atoms: C_17  and  C_18
REMARK    9  A    between atoms: C_19  and  C_20
REMARK   10  A    between atoms: C_20  and  N_21
REMARK   11  A    between atoms: C_24  and  N_25
REMARK   12  A    between atoms: N_25  and  O_28
REMARK   13  A    between atoms: C_26  and  C_30
REMARK   14  A    between atoms: C_31  and  C_32
REMARK   15  A    between atoms: N_34  and  C_36
REMARK   16  A    between atoms: C_37  and  C_38
REMARK   17  A    between atoms: C_38  and  C_39
REMARK   18  A    between atoms: C_40  and  N_41
REMARK   19  A    between atoms: N_41  and  O_45
REMARK                            x       y       z     vdW  Elec       q    Type
REMARK                         _______ _______ _______ _____ _____    ______ ____
ROOT
ATOM      1  C   UNL     1     -15.321  44.524  -0.014  0.00  0.00    +0.000 C 
ATOM      2  C   UNL     1     -15.551  45.374   0.803  0.00  0.00    +0.000 C 
ENDROOT
BRANCH   2   3
ATOM      3  N   UNL     1     -15.810  46.329   1.720  0.00  0.00    +0.000 N 
ATOM      4  C   UNL     1     -15.811  46.274   3.103  0.00  0.00    +0.000 C 
ATOM      5  O   UNL     1     -15.733  45.244   3.764  0.00  0.00    +0.000 OA
BRANCH   4   6
ATOM      6  C   UNL     1     -15.951  47.525   3.820  0.00  0.00    +0.000 C 
ATOM      7  C   UNL     1     -16.052  48.563   4.417  0.00  0.00    +0.000 C 
BRANCH   7   8
ATOM      8  C   UNL     1     -16.156  49.803   5.146  0.00  0.00    +0.000 C 
ATOM      9  O   UNL     1     -17.223  50.099   5.663  0.00  0.00    +0.000 OA
ATOM     10  N   UNL     1     -15.003  50.555   5.190  0.00  0.00    +0.000 N 
ATOM     11  H   UNL     1     -14.198  50.167   4.715  0.00  0.00    +0.000 HD
BRANCH  10  12
ATOM     12  C   UNL     1     -14.788  51.746   5.788  0.00  0.00    +0.000 C 
ATOM     13  C   UNL     1     -14.594  52.808   6.314  0.00  0.00    +0.000 C 
BRANCH  13  14
ATOM     14  C   UNL     1     -14.347  54.166   6.977  0.00  0.00    +0.000 C 
BRANCH  14  15
ATOM     15  C   UNL     1     -14.104  55.529   7.633  0.00  0.00    +0.000 C 
ATOM     16  C   UNL     1     -13.915  56.598   8.145  0.00  0.00    +0.000 C 
BRANCH  16  17
ATOM     17  N   UNL     1     -13.708  57.800   8.716  0.00  0.00    +0.000 N 
ATOM     18  C   UNL     1     -12.713  58.247   9.552  0.00  0.00    +0.000 C 
ATOM     19  O   UNL     1     -11.742  57.662   9.998  0.00  0.00    +0.000 OA
ATOM     20  C   UNL     1     -12.749  59.673  10.044  0.00  0.00    +0.000 C 
BRANCH  17  21
ATOM     21  O   UNL     1     -14.749  58.686   8.332  0.00  0.00    +0.000 OA
ATOM     22  H   UNL     1     -14.314  59.268   7.675  0.00  0.00    +0.000 HD
ENDBRANCH  17  21
ENDBRANCH  16  17
ENDBRANCH  14  15
ENDBRANCH  13  14
ENDBRANCH  10  12
ENDBRANCH   7   8
ENDBRANCH   4   6
BRANCH   3  23
ATOM     23  O   UNL     1     -15.693  47.602   1.118  0.00  0.00    +0.000 OA
ATOM     24  H   UNL     1     -16.562  47.994   1.323  0.00  0.00    +0.000 HD
ENDBRANCH   3  23
ENDBRANCH   2   3
BRANCH   1  25
ATOM     25  C   UNL     1     -15.043  43.437  -1.056  0.00  0.00    +0.000 C 
ATOM     26  C   UNL     1     -14.816  42.580  -1.864  0.00  0.00    +0.000 C 
BRANCH  26  27
ATOM     27  C   UNL     1     -14.518  41.479  -2.887  0.00  0.00    +0.000 C 
BRANCH  27  28
ATOM     28  N   UNL     1     -14.244  40.520  -3.798  0.00  0.00    +0.000 N 
ATOM     29  C   UNL     1     -15.107  39.665  -4.442  0.00  0.00    +0.000 C 
ATOM     30  O   UNL     1     -16.320  39.625  -4.290  0.00  0.00    +0.000 OA
ATOM     31  H   UNL     1     -13.263  40.437  -4.035  0.00  0.00    +0.000 HD
BRANCH  29  32
ATOM     32  C   UNL     1     -14.489  38.750  -5.370  0.00  0.00    +0.000 C 
ATOM     33  C   UNL     1     -13.963  38.007  -6.154  0.00  0.00    +0.000 C 
BRANCH  33  34
ATOM     34  C   UNL     1     -13.309  37.124  -7.098  0.00  0.00    +0.000 C 
ATOM     35  O   UNL     1     -13.420  35.915  -6.918  0.00  0.00    +0.000 OA
ATOM     36  N   UNL     1     -12.575  37.709  -8.115  0.00  0.00    +0.000 N 
BRANCH  36  37
ATOM     37  C   UNL     1     -11.988  37.166  -9.202  0.00  0.00    +0.000 C 
ATOM     38  C   UNL     1     -11.469  36.684 -10.171  0.00  0.00    +0.000 C 
BRANCH  38  39
ATOM     39  C   UNL     1     -10.812  36.066 -11.410  0.00  0.00    +0.000 C 
ATOM     40  C   UNL     1     -10.298  35.588 -12.382  0.00  0.00    +0.000 C 
BRANCH  40  41
ATOM     41  C   UNL     1      -9.642  34.981 -13.625  0.00  0.00    +0.000 C 
BRANCH  41  42
ATOM     42  N   UNL     1      -9.018  34.404 -14.805  0.00  0.00    +0.000 NA
ATOM     43  H   UNL     1      -8.658  33.475 -14.598  0.00  0.00    +0.000 HD
ATOM     44  H   UNL     1      -9.706  34.281 -15.546  0.00  0.00    +0.000 HD
ENDBRANCH  41  42
ENDBRANCH  40  41
ENDBRANCH  38  39
ENDBRANCH  36  37
BRANCH  36  45
ATOM     45  O   UNL     1     -12.719  39.102  -8.306  0.00  0.00    +0.000 OA
ATOM     46  H   UNL     1     -11.947  39.302  -8.867  0.00  0.00    +0.000 HD
ENDBRANCH  36  45
ENDBRANCH  33  34
ENDBRANCH  29  32
ENDBRANCH  27  28
ENDBRANCH  26  27
ENDBRANCH   1  25
TORSDOF 19
ENDMDL
MODEL 7
REMARK VINA RESULT:      -4.5      2.981     21.538
REMARK  Name = Deferoxamine.pdbqt.pdb
REMARK  19 active torsions:
REMARK  status: ('A' for Active; 'I' for Inactive)
REMARK    1  A    between atoms: C_1  and  C_2
REMARK    2  A    between atoms: C_3  and  C_4
REMARK    3  A    between atoms: C_4  and  N_5
REMARK    4  A    between atoms: C_6  and  C_9
REMARK    5  A    between atoms: C_10  and  C_11
REMARK    6  A    between atoms: N_13  and  O_14
REMARK    7  A    between atoms: N_13  and  C_16
REMARK    8  A    between atoms: C_17  and  C_18
REMARK    9  A    between atoms: C_19  and  C_20
REMARK   10  A    between atoms: C_20  and  N_21
REMARK   11  A    between atoms: C_24  and  N_25
REMARK   12  A    between atoms: N_25  and  O_28
REMARK   13  A    between atoms: C_26  and  C_30
REMARK   14  A    between atoms: C_31  and  C_32
REMARK   15  A    between atoms: N_34  and  C_36
REMARK   16  A    between atoms: C_37  and  C_38
REMARK   17  A    between atoms: C_38  and  C_39
REMARK   18  A    between atoms: C_40  and  N_41
REMARK   19  A    between atoms: N_41  and  O_45
REMARK                            x       y       z     vdW  Elec       q    Type
REMARK                         _______ _______ _______ _____ _____    ______ ____
ROOT
ATOM      1  C   UNL     1      -2.946  19.736   4.904  0.00  0.00    +0.000 C 
ATOM      2  C   UNL     1      -2.057  19.302   5.586  0.00  0.00    +0.000 C 
ENDROOT
BRANCH   2   3
ATOM      3  N   UNL     1      -1.059  18.813   6.351  0.00  0.00    +0.000 N 
ATOM      4  C   UNL     1      -0.335  17.638   6.246  0.00  0.00    +0.000 C 
ATOM      5  O   UNL     1      -0.607  16.712   5.490  0.00  0.00    +0.000 OA
BRANCH   4   6
ATOM      6  C   UNL     1       0.809  17.480   7.120  0.00  0.00    +0.000 C 
ATOM      7  C   UNL     1       1.757  17.362   7.850  0.00  0.00    +0.000 C 
BRANCH   7   8
ATOM      8  C   UNL     1       2.900  17.243   8.721  0.00  0.00    +0.000 C 
ATOM      9  O   UNL     1       3.166  16.152   9.204  0.00  0.00    +0.000 OA
ATOM     10  N   UNL     1       3.602  18.409   8.929  0.00  0.00    +0.000 N 
ATOM     11  H   UNL     1       3.255  19.231   8.451  0.00  0.00    +0.000 HD
BRANCH  10  12
ATOM     12  C   UNL     1       4.703  18.615   9.683  0.00  0.00    +0.000 C 
ATOM     13  C   UNL     1       5.684  18.802  10.349  0.00  0.00    +0.000 C 
BRANCH  13  14
ATOM     14  C   UNL     1       6.940  19.045  11.193  0.00  0.00    +0.000 C 
BRANCH  14  15
ATOM     15  C   UNL     1       8.195  19.280  12.037  0.00  0.00    +0.000 C 
ATOM     16  C   UNL     1       9.177  19.465  12.702  0.00  0.00    +0.000 C 
BRANCH  16  17
ATOM     17  N   UNL     1      10.276  19.670  13.454  0.00  0.00    +0.000 N 
ATOM     18  C   UNL     1      10.982  20.817  13.733  0.00  0.00    +0.000 C 
ATOM     19  O   UNL     1      10.790  21.964  13.369  0.00  0.00    +0.000 OA
ATOM     20  C   UNL     1      12.198  20.735  14.621  0.00  0.00    +0.000 C 
BRANCH  17  21
ATOM     21  O   UNL     1      10.704  18.435  14.005  0.00  0.00    +0.000 OA
ATOM     22  H   UNL     1       9.896  18.094  14.441  0.00  0.00    +0.000 HD
ENDBRANCH  17  21
ENDBRANCH  16  17
ENDBRANCH  14  15
ENDBRANCH  13  14
ENDBRANCH  10  12
ENDBRANCH   7   8
ENDBRANCH   4   6
BRANCH   3  23
ATOM     23  O   UNL     1      -0.494  19.862   7.111  0.00  0.00    +0.000 OA
ATOM     24  H   UNL     1       0.157  20.227   6.484  0.00  0.00    +0.000 HD
ENDBRANCH   3  23
ENDBRANCH   2   3
BRANCH   1  25
ATOM     25  C   UNL     1      -4.089  20.281   4.043  0.00  0.00    +0.000 C 
ATOM     26  C   UNL     1      -4.978  20.719   3.368  0.00  0.00    +0.000 C 
BRANCH  26  27
ATOM     27  C   UNL     1      -6.106  21.291   2.503  0.00  0.00    +0.000 C 
BRANCH  27  28
ATOM     28  N   UNL     1      -7.090  21.794   1.726  0.00  0.00    +0.000 N 
ATOM     29  C   UNL     1      -8.109  21.132   1.084  0.00  0.00    +0.000 C 
ATOM     30  O   UNL     1      -8.305  19.925   1.107  0.00  0.00    +0.000 OA
ATOM     31  H   UNL     1      -7.063  22.799   1.617  0.00  0.00    +0.000 HD
BRANCH  29  32
ATOM     32  C   UNL     1      -9.007  21.970   0.327  0.00  0.00    +0.000 C 
ATOM     33  C   UNL     1      -9.762  22.678  -0.283  0.00  0.00    +0.000 C 
BRANCH  33  34
ATOM     34  C   UNL     1     -10.668  23.549  -1.003  0.00  0.00    +0.000 C 
ATOM     35  O   UNL     1     -11.870  23.311  -0.923  0.00  0.00    +0.000 OA
ATOM     36  N   UNL     1     -10.111  24.565  -1.760  0.00  0.00    +0.000 N 
BRANCH  36  37
ATOM     37  C   UNL     1     -10.688  25.598  -2.408  0.00  0.00    +0.000 C 
ATOM     38  C   UNL     1     -11.202  26.518  -2.982  0.00  0.00    +0.000 C 
BRANCH  38  39
ATOM     39  C   UNL     1     -11.863  27.693  -3.709  0.00  0.00    +0.000 C 
ATOM     40  C   UNL     1     -12.376  28.616  -4.280  0.00  0.00    +0.000 C 
BRANCH  40  41
ATOM     41  C   UNL     1     -13.027  29.794  -5.010  0.00  0.00    +0.000 C 
BRANCH  41  42
ATOM     42  N   UNL     1     -13.646  30.912  -5.702  0.00  0.00    +0.000 NA
ATOM     43  H   UNL     1     -13.935  31.627  -5.036  0.00  0.00    +0.000 HD
ATOM     44  H   UNL     1     -12.974  31.362  -6.323  0.00  0.00    +0.000 HD
ENDBRANCH  41  42
ENDBRANCH  40  41
ENDBRANCH  38  39
ENDBRANCH  36  37
BRANCH  36  45
ATOM     45  O   UNL     1      -8.735  24.833  -1.580  0.00  0.00    +0.000 OA
ATOM     46  H   UNL     1      -8.532  25.352  -2.380  0.00  0.00    +0.000 HD
ENDBRANCH  36  45
ENDBRANCH  33  34
ENDBRANCH  29  32
ENDBRANCH  27  28
ENDBRANCH  26  27
ENDBRANCH   1  25
TORSDOF 19
ENDMDL
MODEL 8
REMARK VINA RESULT:      -4.4     19.117     27.464
REMARK  Name = Deferoxamine.pdbqt.pdb
REMARK  19 active torsions:
REMARK  status: ('A' for Active; 'I' for Inactive)
REMARK    1  A    between atoms: C_1  and  C_2
REMARK    2  A    between atoms: C_3  and  C_4
REMARK    3  A    between atoms: C_4  and  N_5
REMARK    4  A    between atoms: C_6  and  C_9
REMARK    5  A    between atoms: C_10  and  C_11
REMARK    6  A    between atoms: N_13  and  O_14
REMARK    7  A    between atoms: N_13  and  C_16
REMARK    8  A    between atoms: C_17  and  C_18
REMARK    9  A    between atoms: C_19  and  C_20
REMARK   10  A    between atoms: C_20  and  N_21
REMARK   11  A    between atoms: C_24  and  N_25
REMARK   12  A    between atoms: N_25  and  O_28
REMARK   13  A    between atoms: C_26  and  C_30
REMARK   14  A    between atoms: C_31  and  C_32
REMARK   15  A    between atoms: N_34  and  C_36
REMARK   16  A    between atoms: C_37  and  C_38
REMARK   17  A    between atoms: C_38  and  C_39
REMARK   18  A    between atoms: C_40  and  N_41
REMARK   19  A    between atoms: N_41  and  O_45
REMARK                            x       y       z     vdW  Elec       q    Type
REMARK                         _______ _______ _______ _____ _____    ______ ____
ROOT
ATOM      1  C   UNL     1     -15.214  40.981  -5.878  0.00  0.00    +0.000 C 
ATOM      2  C   UNL     1     -15.828  40.206  -5.195  0.00  0.00    +0.000 C 
ENDROOT
BRANCH   2   3
ATOM      3  N   UNL     1     -16.516  39.335  -4.428  0.00  0.00    +0.000 N 
ATOM      4  C   UNL     1     -17.872  39.237  -4.167  0.00  0.00    +0.000 C 
ATOM      5  O   UNL     1     -18.707  40.079  -4.479  0.00  0.00    +0.000 OA
BRANCH   4   6
ATOM      6  C   UNL     1     -18.329  38.070  -3.442  0.00  0.00    +0.000 C 
ATOM      7  C   UNL     1     -18.709  37.109  -2.829  0.00  0.00    +0.000 C 
BRANCH   7   8
ATOM      8  C   UNL     1     -19.154  35.964  -2.074  0.00  0.00    +0.000 C 
ATOM      9  O   UNL     1     -19.900  35.155  -2.608  0.00  0.00    +0.000 OA
ATOM     10  N   UNL     1     -18.678  35.891  -0.785  0.00  0.00    +0.000 N 
ATOM     11  H   UNL     1     -18.062  36.639  -0.493  0.00  0.00    +0.000 HD
BRANCH  10  12
ATOM     12  C   UNL     1     -18.911  34.951   0.157  0.00  0.00    +0.000 C 
ATOM     13  C   UNL     1     -19.120  34.120   0.997  0.00  0.00    +0.000 C 
BRANCH  13  14
ATOM     14  C   UNL     1     -19.388  33.067   2.076  0.00  0.00    +0.000 C 
BRANCH  14  15
ATOM     15  C   UNL     1     -19.649  32.010   3.153  0.00  0.00    +0.000 C 
ATOM     16  C   UNL     1     -19.851  31.181   3.998  0.00  0.00    +0.000 C 
BRANCH  16  17
ATOM     17  N   UNL     1     -20.071  30.253   4.949  0.00  0.00    +0.000 N 
ATOM     18  C   UNL     1     -19.220  29.366   5.565  0.00  0.00    +0.000 C 
ATOM     19  O   UNL     1     -18.025  29.189   5.408  0.00  0.00    +0.000 OA
ATOM     20  C   UNL     1     -19.766  28.427   6.611  0.00  0.00    +0.000 C 
BRANCH  17  21
ATOM     21  O   UNL     1     -21.444  30.268   5.309  0.00  0.00    +0.000 OA
ATOM     22  H   UNL     1     -21.896  30.414   4.453  0.00  0.00    +0.000 HD
ENDBRANCH  17  21
ENDBRANCH  16  17
ENDBRANCH  14  15
ENDBRANCH  13  14
ENDBRANCH  10  12
ENDBRANCH   7   8
ENDBRANCH   4   6
BRANCH   3  23
ATOM     23  O   UNL     1     -15.723  38.189  -4.194  0.00  0.00    +0.000 OA
ATOM     24  H   UNL     1     -14.823  38.549  -4.308  0.00  0.00    +0.000 HD
ENDBRANCH   3  23
ENDBRANCH   2   3
BRANCH   1  25
ATOM     25  C   UNL     1     -14.426  41.956  -6.757  0.00  0.00    +0.000 C 
ATOM     26  C   UNL     1     -13.800  42.722  -7.435  0.00  0.00    +0.000 C 
BRANCH  26  27
ATOM     27  C   UNL     1     -12.991  43.702  -8.291  0.00  0.00    +0.000 C 
BRANCH  27  28
ATOM     28  N   UNL     1     -12.293  44.570  -9.056  0.00  0.00    +0.000 N 
ATOM     29  C   UNL     1     -12.043  45.904  -8.843  0.00  0.00    +0.000 C 
ATOM     30  O   UNL     1     -12.426  46.560  -7.885  0.00  0.00    +0.000 OA
ATOM     31  H   UNL     1     -11.901  44.163  -9.896  0.00  0.00    +0.000 HD
BRANCH  29  32
ATOM     32  C   UNL     1     -11.252  46.553  -9.861  0.00  0.00    +0.000 C 
ATOM     33  C   UNL     1     -10.578  47.098 -10.692  0.00  0.00    +0.000 C 
BRANCH  33  34
ATOM     34  C   UNL     1      -9.747  47.751 -11.682  0.00  0.00    +0.000 C 
ATOM     35  O   UNL     1     -10.300  48.482 -12.498  0.00  0.00    +0.000 OA
ATOM     36  N   UNL     1      -8.390  47.473 -11.660  0.00  0.00    +0.000 N 
BRANCH  36  37
ATOM     37  C   UNL     1      -7.368  48.025 -12.345  0.00  0.00    +0.000 C 
ATOM     38  C   UNL     1      -6.459  48.514 -12.958  0.00  0.00    +0.000 C 
BRANCH  38  39
ATOM     39  C   UNL     1      -5.299  49.134 -13.744  0.00  0.00    +0.000 C 
ATOM     40  C   UNL     1      -4.387  49.618 -14.355  0.00  0.00    +0.000 C 
BRANCH  40  41
ATOM     41  C   UNL     1      -3.221  50.233 -15.133  0.00  0.00    +0.000 C 
BRANCH  41  42
ATOM     42  N   UNL     1      -2.114  50.818 -15.871  0.00  0.00    +0.000 NA
ATOM     43  H   UNL     1      -2.394  51.703 -16.291  0.00  0.00    +0.000 HD
ATOM     44  H   UNL     1      -1.343  51.037 -15.242  0.00  0.00    +0.000 HD
ENDBRANCH  41  42
ENDBRANCH  40  41
ENDBRANCH  38  39
ENDBRANCH  36  37
BRANCH  36  45
ATOM     45  O   UNL     1      -7.885  46.782 -10.536  0.00  0.00    +0.000 OA
ATOM     46  H   UNL     1      -7.151  47.364 -10.265  0.00  0.00    +0.000 HD
ENDBRANCH  36  45
ENDBRANCH  33  34
ENDBRANCH  29  32
ENDBRANCH  27  28
ENDBRANCH  26  27
ENDBRANCH   1  25
TORSDOF 19
ENDMDL
MODEL 9
REMARK VINA RESULT:      -4.2     32.837     39.682
REMARK  Name = Deferoxamine.pdbqt.pdb
REMARK  19 active torsions:
REMARK  status: ('A' for Active; 'I' for Inactive)
REMARK    1  A    between atoms: C_1  and  C_2
REMARK    2  A    between atoms: C_3  and  C_4
REMARK    3  A    between atoms: C_4  and  N_5
REMARK    4  A    between atoms: C_6  and  C_9
REMARK    5  A    between atoms: C_10  and  C_11
REMARK    6  A    between atoms: N_13  and  O_14
REMARK    7  A    between atoms: N_13  and  C_16
REMARK    8  A    between atoms: C_17  and  C_18
REMARK    9  A    between atoms: C_19  and  C_20
REMARK   10  A    between atoms: C_20  and  N_21
REMARK   11  A    between atoms: C_24  and  N_25
REMARK   12  A    between atoms: N_25  and  O_28
REMARK   13  A    between atoms: C_26  and  C_30
REMARK   14  A    between atoms: C_31  and  C_32
REMARK   15  A    between atoms: N_34  and  C_36
REMARK   16  A    between atoms: C_37  and  C_38
REMARK   17  A    between atoms: C_38  and  C_39
REMARK   18  A    between atoms: C_40  and  N_41
REMARK   19  A    between atoms: N_41  and  O_45
REMARK                            x       y       z     vdW  Elec       q    Type
REMARK                         _______ _______ _______ _____ _____    ______ ____
ROOT
ATOM      1  C   UNL     1      -8.387  57.213  11.279  0.00  0.00    +0.000 C 
ATOM      2  C   UNL     1      -7.502  57.740  11.897  0.00  0.00    +0.000 C 
ENDROOT
BRANCH   2   3
ATOM      3  N   UNL     1      -6.508  58.332  12.590  0.00  0.00    +0.000 N 
ATOM      4  C   UNL     1      -6.232  58.337  13.947  0.00  0.00    +0.000 C 
ATOM      5  O   UNL     1      -6.986  57.915  14.817  0.00  0.00    +0.000 OA
BRANCH   4   6
ATOM      6  C   UNL     1      -4.973  58.917  14.369  0.00  0.00    +0.000 C 
ATOM      7  C   UNL     1      -3.925  59.397  14.706  0.00  0.00    +0.000 C 
BRANCH   7   8
ATOM      8  C   UNL     1      -2.655  59.960  15.095  0.00  0.00    +0.000 C 
ATOM      9  O   UNL     1      -2.469  61.160  14.949  0.00  0.00    +0.000 OA
ATOM     10  N   UNL     1      -1.748  59.061  15.608  0.00  0.00    +0.000 N 
ATOM     11  H   UNL     1      -2.058  58.099  15.668  0.00  0.00    +0.000 HD
BRANCH  10  12
ATOM     12  C   UNL     1      -0.492  59.280  16.054  0.00  0.00    +0.000 C 
ATOM     13  C   UNL     1       0.624  59.480  16.448  0.00  0.00    +0.000 C 
BRANCH  13  14
ATOM     14  C   UNL     1       2.046  59.745  16.950  0.00  0.00    +0.000 C 
BRANCH  14  15
ATOM     15  C   UNL     1       3.467  60.019  17.453  0.00  0.00    +0.000 C 
ATOM     16  C   UNL     1       4.581  60.230  17.848  0.00  0.00    +0.000 C 
BRANCH  16  17
ATOM     17  N   UNL     1       5.832  60.461  18.288  0.00  0.00    +0.000 N 
ATOM     18  C   UNL     1       7.031  60.531  17.618  0.00  0.00    +0.000 C 
ATOM     19  O   UNL     1       7.273  60.404  16.431  0.00  0.00    +0.000 OA
ATOM     20  C   UNL     1       8.294  60.806  18.395  0.00  0.00    +0.000 C 
BRANCH  17  21
ATOM     21  O   UNL     1       5.807  60.648  19.695  0.00  0.00    +0.000 OA
ATOM     22  H   UNL     1       6.066  61.587  19.799  0.00  0.00    +0.000 HD
ENDBRANCH  17  21
ENDBRANCH  16  17
ENDBRANCH  14  15
ENDBRANCH  13  14
ENDBRANCH  10  12
ENDBRANCH   7   8
ENDBRANCH   4   6
BRANCH   3  23
ATOM     23  O   UNL     1      -5.452  58.657  11.709  0.00  0.00    +0.000 OA
ATOM     24  H   UNL     1      -5.651  58.081  10.947  0.00  0.00    +0.000 HD
ENDBRANCH   3  23
ENDBRANCH   2   3
BRANCH   1  25
ATOM     25  C   UNL     1      -9.505  56.531  10.485  0.00  0.00    +0.000 C 
ATOM     26  C   UNL     1     -10.374  55.999   9.851  0.00  0.00    +0.000 C 
BRANCH  26  27
ATOM     27  C   UNL     1     -11.477  55.324   9.029  0.00  0.00    +0.000 C 
BRANCH  27  28
ATOM     28  N   UNL     1     -12.462  54.736   8.317  0.00  0.00    +0.000 N 
ATOM     29  C   UNL     1     -13.794  54.599   8.629  0.00  0.00    +0.000 C 
ATOM     30  O   UNL     1     -14.335  55.004   9.648  0.00  0.00    +0.000 OA
ATOM     31  H   UNL     1     -12.162  54.353   7.429  0.00  0.00    +0.000 HD
BRANCH  29  32
ATOM     32  C   UNL     1     -14.590  53.914   7.641  0.00  0.00    +0.000 C 
ATOM     33  C   UNL     1     -15.264  53.330   6.835  0.00  0.00    +0.000 C 
BRANCH  33  34
ATOM     34  C   UNL     1     -16.092  52.623   5.879  0.00  0.00    +0.000 C 
ATOM     35  O   UNL     1     -17.265  52.967   5.779  0.00  0.00    +0.000 OA
ATOM     36  N   UNL     1     -15.508  51.584   5.175  0.00  0.00    +0.000 N 
BRANCH  36  37
ATOM     37  C   UNL     1     -15.971  50.853   4.140  0.00  0.00    +0.000 C 
ATOM     38  C   UNL     1     -16.386  50.201   3.222  0.00  0.00    +0.000 C 
BRANCH  38  39
ATOM     39  C   UNL     1     -16.918  49.364   2.053  0.00  0.00    +0.000 C 
ATOM     40  C   UNL     1     -17.333  48.714   1.135  0.00  0.00    +0.000 C 
BRANCH  40  41
ATOM     41  C   UNL     1     -17.862  47.886  -0.039  0.00  0.00    +0.000 C 
BRANCH  41  42
ATOM     42  N   UNL     1     -18.364  47.100  -1.154  0.00  0.00    +0.000 NA
ATOM     43  H   UNL     1     -18.870  47.694  -1.809  0.00  0.00    +0.000 HD
ATOM     44  H   UNL     1     -17.592  46.694  -1.680  0.00  0.00    +0.000 HD
ENDBRANCH  41  42
ENDBRANCH  40  41
ENDBRANCH  38  39
ENDBRANCH  36  37
BRANCH  36  45
ATOM     45  O   UNL     1     -14.103  51.452   5.252  0.00  0.00    +0.000 OA
ATOM     46  H   UNL     1     -13.876  52.164   5.879  0.00  0.00    +0.000 HD
ENDBRANCH  36  45
ENDBRANCH  33  34
ENDBRANCH  29  32
ENDBRANCH  27  28
ENDBRANCH  26  27
ENDBRANCH   1  25
TORSDOF 19
ENDMDL
