MODEL 1
REMARK VINA RESULT:      -8.5      0.000      0.000
REMARK  Name = 
REMARK  25 active torsions:
REMARK  status: ('A' for Active; 'I' for Inactive)
REMARK    1  A    between atoms: O_2  and  C_17
REMARK    2  A    between atoms: O_2  and  C_36
REMARK    3  A    between atoms: O_3  and  C_20
REMARK    4  A    between atoms: O_3  and  C_37
REMARK    5  A    between atoms: O_4  and  C_21
REMARK    6  A    between atoms: O_5  and  C_22
REMARK    7  A    between atoms: O_7  and  C_30
REMARK    8  A    between atoms: O_8  and  C_31
REMARK    9  A    between atoms: O_8  and  C_39
REMARK   10  A    between atoms: O_12  and  C_41
REMARK   11  A    between atoms: O_13  and  C_51
REMARK   12  A    between atoms: O_13  and  C_55
REMARK   13  A    between atoms: N_15  and  C_44
REMARK   14  A    between atoms: C_18  and  C_29
REMARK   15  A    between atoms: C_24  and  C_33
REMARK   16  A    between atoms: C_24  and  C_34
REMARK   17  A    between atoms: C_32  and  C_35
REMARK   18  A    between atoms: C_36  and  C_38
REMARK   19  A    between atoms: C_37  and  C_40
REMARK   20  A    between atoms: C_39  and  C_41
REMARK   21  A    between atoms: C_41  and  C_44
REMARK   22  A    between atoms: C_44  and  C_48
REMARK   23  A    between atoms: C_55  and  C_56
REMARK   24  A    between atoms: C_55  and  C_57
REMARK   25  A    between atoms: C_55  and  C_58
REMARK                            x       y       z     vdW  Elec       q    Type
REMARK                         _______ _______ _______ _____ _____    ______ ____
ROOT
ATOM      1  O   UNL     1       1.637  42.202  18.711  0.00  0.00    +0.000 OA
ATOM      2  O   UNL     1      -3.126  45.925  21.646  0.00  0.00    +0.000 OA
ATOM      3  C   UNL     1      -1.708  43.019  18.664  0.00  0.00    +0.000 C 
ATOM      4  C   UNL     1      -0.266  42.957  18.078  0.00  0.00    +0.000 C 
ATOM      5  C   UNL     1      -1.814  44.599  19.709  0.00  0.00    +0.000 C 
ATOM      6  C   UNL     1       0.496  42.723  19.447  0.00  0.00    +0.000 C 
ATOM      7  C   UNL     1      -3.000  42.581  17.393  0.00  0.00    +0.000 C 
ATOM      8  C   UNL     1      -4.877  42.440  17.178  0.00  0.00    +0.000 C 
ATOM      9  C   UNL     1      -0.720  44.380  20.835  0.00  0.00    +0.000 C 
ATOM     10  C   UNL     1       0.687  43.941  20.325  0.00  0.00    +0.000 C 
ATOM     11  C   UNL     1      -6.162  43.028  18.252  0.00  0.00    +0.000 C 
ATOM     12  C   UNL     1       0.644  41.714  17.724  0.00  0.00    +0.000 C 
ATOM     13  C   UNL     1      -3.325  45.320  20.570  0.00  0.00    +0.000 C 
ATOM     14  C   UNL     1      -5.213  43.271  15.855  0.00  0.00    +0.000 C 
ATOM     15  C   UNL     1      -5.986  44.583  18.586  0.00  0.00    +0.000 C 
ATOM     16  C   UNL     1      -1.282  45.875  18.930  0.00  0.00    +0.000 C 
ATOM     17  C   UNL     1      -5.161  45.260  20.018  0.00  0.00    +0.000 C 
ATOM     18  C   UNL     1      -5.708  44.780  16.026  0.00  0.00    +0.000 C 
ATOM     19  C   UNL     1      -6.043  45.355  17.449  0.00  0.00    +0.000 C 
ATOM     20  C   UNL     1      -7.551  42.878  17.450  0.00  0.00    +0.000 C 
ATOM     21  C   UNL     1      -6.610  42.148  19.462  0.00  0.00    +0.000 C 
ATOM     22  C   UNL     1      -6.156  46.858  17.496  0.00  0.00    +0.000 C 
ENDROOT
BRANCH  17  23
ATOM     23  O   UNL     1      -6.055  45.012  21.104  0.00  0.00    +0.000 OA
ATOM     24  H   UNL     1      -5.808  44.128  21.435  0.00  0.00    +0.000 HD
ENDBRANCH  17  23
BRANCH   9  25
ATOM     25  O   UNL     1      -1.177  43.356  21.721  0.00  0.00    +0.000 OA
ATOM     26  H   UNL     1      -2.148  43.420  21.753  0.00  0.00    +0.000 HD
ENDBRANCH   9  25
BRANCH   8  27
ATOM     27  O   UNL     1      -5.102  41.052  16.862  0.00  0.00    +0.000 OA
ATOM     28  H   UNL     1      -5.250  40.963  15.904  0.00  0.00    +0.000 HD
ENDBRANCH   8  27
BRANCH  18  29
ATOM     29  O   UNL     1      -4.686  45.646  15.453  0.00  0.00    +0.000 OA
BRANCH  29  31
ATOM     30  O   UNL     1      -5.663  46.969  13.905  0.00  0.00    +0.000 OA
ATOM     31  C   UNL     1      -4.866  46.078  14.180  0.00  0.00    +0.000 C 
BRANCH  31  32
ATOM     32  C   UNL     1      -4.131  45.268  13.106  0.00  0.00    +0.000 C 
BRANCH  32  33
ATOM     33  O   UNL     1      -2.747  45.593  12.929  0.00  0.00    +0.000 OA
ATOM     34  H   UNL     1      -2.711  46.561  12.808  0.00  0.00    +0.000 HD
ENDBRANCH  32  33
BRANCH  32  35
ATOM     35  C   UNL     1      -4.919  45.389  11.775  0.00  0.00    +0.000 C 
BRANCH  35  36
ATOM     36  C   UNL     1      -5.992  44.315  11.628  0.00  0.00    +0.000 A 
ATOM     37  C   UNL     1      -7.336  44.694  11.480  0.00  0.00    +0.000 A 
ATOM     38  C   UNL     1      -5.675  42.947  11.597  0.00  0.00    +0.000 A 
ATOM     39  C   UNL     1      -8.338  43.732  11.333  0.00  0.00    +0.000 A 
ATOM     40  C   UNL     1      -6.678  41.987  11.451  0.00  0.00    +0.000 A 
ATOM     41  C   UNL     1      -8.009  42.379  11.321  0.00  0.00    +0.000 A 
ENDBRANCH  35  36
BRANCH  35  43
ATOM     42  O   UNL     1      -5.156  46.794   9.279  0.00  0.00    +0.000 OA
ATOM     43  N   UNL     1      -4.031  45.325  10.622  0.00  0.00    +0.000 N 
ATOM     44  C   UNL     1      -4.291  45.951   9.446  0.00  0.00    +0.000 C 
ATOM     45  H   UNL     1      -3.366  44.564  10.586  0.00  0.00    +0.000 HD
BRANCH  44  46
ATOM     46  O   UNL     1      -3.419  45.503   8.517  0.00  0.00    +0.000 OA
BRANCH  46  47
ATOM     47  C   UNL     1      -2.426  46.391   7.944  0.00  0.00    +0.000 C 
ATOM     48  C   UNL     1      -1.738  47.232   9.024  0.00  0.00    +0.000 C 
ATOM     49  C   UNL     1      -1.384  45.455   7.313  0.00  0.00    +0.000 C 
ATOM     50  C   UNL     1      -3.033  47.263   6.839  0.00  0.00    +0.000 C 
ENDBRANCH  46  47
ENDBRANCH  44  46
ENDBRANCH  35  43
ENDBRANCH  32  35
ENDBRANCH  31  32
ENDBRANCH  29  31
ENDBRANCH  18  29
BRANCH   7  51
ATOM     51  O   UNL     1      -3.094  43.876  17.172  0.00  0.00    +0.000 OA
BRANCH  51  53
ATOM     52  O   UNL     1      -2.067  44.925  15.802  0.00  0.00    +0.000 OA
ATOM     53  C   UNL     1      -2.365  43.754  16.014  0.00  0.00    +0.000 C 
BRANCH  53  54
ATOM     54  C   UNL     1      -2.248  42.143  14.984  0.00  0.00    +0.000 A 
ATOM     55  C   UNL     1      -1.378  41.006  15.285  0.00  0.00    +0.000 A 
ATOM     56  C   UNL     1      -3.065  41.758  13.876  0.00  0.00    +0.000 A 
ATOM     57  C   UNL     1      -1.335  39.755  14.617  0.00  0.00    +0.000 A 
ATOM     58  C   UNL     1      -3.037  40.508  13.192  0.00  0.00    +0.000 A 
ATOM     59  C   UNL     1      -2.173  39.505  13.561  0.00  0.00    +0.000 A 
ENDBRANCH  53  54
ENDBRANCH  51  53
ENDBRANCH   7  51
BRANCH   4  60
ATOM     60  O   UNL     1       0.104  44.176  17.392  0.00  0.00    +0.000 OA
BRANCH  60  62
ATOM     61  O   UNL     1       1.068  43.784  15.412  0.00  0.00    +0.000 OA
ATOM     62  C   UNL     1       1.146  44.279  16.534  0.00  0.00    +0.000 C 
ATOM     63  C   UNL     1       2.422  44.896  17.012  0.00  0.00    +0.000 C 
ENDBRANCH  60  62
ENDBRANCH   4  60
TORSDOF 17
ENDMDL
MODEL 2
REMARK VINA RESULT:      -8.3      3.042      8.059
REMARK  Name = 
REMARK  25 active torsions:
REMARK  status: ('A' for Active; 'I' for Inactive)
REMARK    1  A    between atoms: O_2  and  C_17
REMARK    2  A    between atoms: O_2  and  C_36
REMARK    3  A    between atoms: O_3  and  C_20
REMARK    4  A    between atoms: O_3  and  C_37
REMARK    5  A    between atoms: O_4  and  C_21
REMARK    6  A    between atoms: O_5  and  C_22
REMARK    7  A    between atoms: O_7  and  C_30
REMARK    8  A    between atoms: O_8  and  C_31
REMARK    9  A    between atoms: O_8  and  C_39
REMARK   10  A    between atoms: O_12  and  C_41
REMARK   11  A    between atoms: O_13  and  C_51
REMARK   12  A    between atoms: O_13  and  C_55
REMARK   13  A    between atoms: N_15  and  C_44
REMARK   14  A    between atoms: C_18  and  C_29
REMARK   15  A    between atoms: C_24  and  C_33
REMARK   16  A    between atoms: C_24  and  C_34
REMARK   17  A    between atoms: C_32  and  C_35
REMARK   18  A    between atoms: C_36  and  C_38
REMARK   19  A    between atoms: C_37  and  C_40
REMARK   20  A    between atoms: C_39  and  C_41
REMARK   21  A    between atoms: C_41  and  C_44
REMARK   22  A    between atoms: C_44  and  C_48
REMARK   23  A    between atoms: C_55  and  C_56
REMARK   24  A    between atoms: C_55  and  C_57
REMARK   25  A    between atoms: C_55  and  C_58
REMARK                            x       y       z     vdW  Elec       q    Type
REMARK                         _______ _______ _______ _____ _____    ______ ____
ROOT
ATOM      1  O   UNL     1      -6.012  42.000  10.390  0.00  0.00    +0.000 OA
ATOM      2  O   UNL     1      -6.764  47.805  13.690  0.00  0.00    +0.000 OA
ATOM      3  C   UNL     1      -4.992  43.817  13.131  0.00  0.00    +0.000 C 
ATOM      4  C   UNL     1      -5.679  42.617  12.414  0.00  0.00    +0.000 C 
ATOM      5  C   UNL     1      -6.296  45.187  13.290  0.00  0.00    +0.000 C 
ATOM      6  C   UNL     1      -5.874  43.310  11.004  0.00  0.00    +0.000 C 
ATOM      7  C   UNL     1      -3.948  43.268  14.575  0.00  0.00    +0.000 C 
ATOM      8  C   UNL     1      -2.861  43.959  15.963  0.00  0.00    +0.000 C 
ATOM      9  C   UNL     1      -6.674  45.524  11.788  0.00  0.00    +0.000 C 
ATOM     10  C   UNL     1      -7.019  44.294  10.893  0.00  0.00    +0.000 C 
ATOM     11  C   UNL     1      -2.707  45.639  16.518  0.00  0.00    +0.000 C 
ATOM     12  C   UNL     1      -5.080  41.525  11.441  0.00  0.00    +0.000 C 
ATOM     13  C   UNL     1      -6.139  46.838  14.180  0.00  0.00    +0.000 C 
ATOM     14  C   UNL     1      -3.397  43.270  17.301  0.00  0.00    +0.000 C 
ATOM     15  C   UNL     1      -4.133  46.277  16.867  0.00  0.00    +0.000 C 
ATOM     16  C   UNL     1      -7.661  44.653  13.897  0.00  0.00    +0.000 C 
ATOM     17  C   UNL     1      -5.142  47.255  15.765  0.00  0.00    +0.000 C 
ATOM     18  C   UNL     1      -4.437  44.085  18.198  0.00  0.00    +0.000 C 
ATOM     19  C   UNL     1      -4.762  45.588  17.877  0.00  0.00    +0.000 C 
ATOM     20  C   UNL     1      -1.862  45.607  17.889  0.00  0.00    +0.000 C 
ATOM     21  C   UNL     1      -1.726  46.601  15.777  0.00  0.00    +0.000 C 
ATOM     22  C   UNL     1      -5.993  46.115  18.572  0.00  0.00    +0.000 C 
ENDROOT
BRANCH  17  23
ATOM     23  O   UNL     1      -4.472  48.514  15.679  0.00  0.00    +0.000 OA
ATOM     24  H   UNL     1      -4.134  48.680  16.579  0.00  0.00    +0.000 HD
ENDBRANCH  17  23
BRANCH   9  25
ATOM     25  O   UNL     1      -5.564  46.182  11.175  0.00  0.00    +0.000 OA
ATOM     26  H   UNL     1      -5.751  47.137  11.198  0.00  0.00    +0.000 HD
ENDBRANCH   9  25
BRANCH   8  27
ATOM     27  O   UNL     1      -1.554  43.408  15.709  0.00  0.00    +0.000 OA
ATOM     28  H   UNL     1      -1.121  43.925  15.006  0.00  0.00    +0.000 HD
ENDBRANCH   8  27
BRANCH  18  29
ATOM     29  O   UNL     1      -5.703  43.366  18.168  0.00  0.00    +0.000 OA
BRANCH  29  31
ATOM     30  O   UNL     1      -5.317  42.563  20.243  0.00  0.00    +0.000 OA
ATOM     31  C   UNL     1      -6.067  42.679  19.279  0.00  0.00    +0.000 C 
BRANCH  31  32
ATOM     32  C   UNL     1      -7.400  41.930  19.176  0.00  0.00    +0.000 C 
BRANCH  32  33
ATOM     33  O   UNL     1      -7.371  40.726  18.401  0.00  0.00    +0.000 OA
ATOM     34  H   UNL     1      -8.045  40.138  18.791  0.00  0.00    +0.000 HD
ENDBRANCH  32  33
BRANCH  32  35
ATOM     35  C   UNL     1      -8.478  42.916  18.654  0.00  0.00    +0.000 C 
BRANCH  35  36
ATOM     36  C   UNL     1      -9.695  42.995  19.570  0.00  0.00    +0.000 A 
ATOM     37  C   UNL     1      -9.802  44.049  20.492  0.00  0.00    +0.000 A 
ATOM     38  C   UNL     1     -10.742  42.060  19.497  0.00  0.00    +0.000 A 
ATOM     39  C   UNL     1     -10.911  44.151  21.335  0.00  0.00    +0.000 A 
ATOM     40  C   UNL     1     -11.849  42.164  20.341  0.00  0.00    +0.000 A 
ATOM     41  C   UNL     1     -11.932  43.207  21.262  0.00  0.00    +0.000 A 
ENDBRANCH  35  36
BRANCH  35  43
ATOM     42  O   UNL     1      -9.756  44.601  16.708  0.00  0.00    +0.000 OA
ATOM     43  N   UNL     1      -8.923  42.560  17.314  0.00  0.00    +0.000 N 
ATOM     44  C   UNL     1      -9.614  43.406  16.509  0.00  0.00    +0.000 C 
ATOM     45  H   UNL     1      -8.988  41.576  17.088  0.00  0.00    +0.000 HD
BRANCH  44  46
ATOM     46  O   UNL     1     -10.085  42.709  15.453  0.00  0.00    +0.000 OA
BRANCH  46  47
ATOM     47  C   UNL     1     -11.389  42.075  15.505  0.00  0.00    +0.000 C 
ATOM     48  C   UNL     1     -12.404  42.944  16.255  0.00  0.00    +0.000 C 
ATOM     49  C   UNL     1     -11.827  41.964  14.037  0.00  0.00    +0.000 C 
ATOM     50  C   UNL     1     -11.295  40.664  16.096  0.00  0.00    +0.000 C 
ENDBRANCH  46  47
ENDBRANCH  44  46
ENDBRANCH  35  43
ENDBRANCH  32  35
ENDBRANCH  31  32
ENDBRANCH  29  31
ENDBRANCH  18  29
BRANCH   7  51
ATOM     51  O   UNL     1      -5.010  43.504  15.318  0.00  0.00    +0.000 OA
BRANCH  51  53
ATOM     52  O   UNL     1      -6.402  42.165  15.864  0.00  0.00    +0.000 OA
ATOM     53  C   UNL     1      -5.252  42.157  15.438  0.00  0.00    +0.000 C 
BRANCH  53  54
ATOM     54  C   UNL     1      -3.908  40.804  15.260  0.00  0.00    +0.000 A 
ATOM     55  C   UNL     1      -3.221  40.451  14.017  0.00  0.00    +0.000 A 
ATOM     56  C   UNL     1      -3.291  40.049  16.304  0.00  0.00    +0.000 A 
ATOM     57  C   UNL     1      -2.149  39.536  13.857  0.00  0.00    +0.000 A 
ATOM     58  C   UNL     1      -2.214  39.125  16.163  0.00  0.00    +0.000 A 
ATOM     59  C   UNL     1      -1.641  38.868  14.942  0.00  0.00    +0.000 A 
ENDBRANCH  53  54
ENDBRANCH  51  53
ENDBRANCH   7  51
BRANCH   4  60
ATOM     60  O   UNL     1      -6.913  42.222  13.059  0.00  0.00    +0.000 OA
BRANCH  60  62
ATOM     61  O   UNL     1      -6.953  40.012  13.402  0.00  0.00    +0.000 OA
ATOM     62  C   UNL     1      -7.489  41.006  12.917  0.00  0.00    +0.000 C 
ATOM     63  C   UNL     1      -8.714  40.877  12.068  0.00  0.00    +0.000 C 
ENDBRANCH  60  62
ENDBRANCH   4  60
TORSDOF 17
ENDMDL
MODEL 3
REMARK VINA RESULT:      -8.2      2.996      8.445
REMARK  Name = 
REMARK  25 active torsions:
REMARK  status: ('A' for Active; 'I' for Inactive)
REMARK    1  A    between atoms: O_2  and  C_17
REMARK    2  A    between atoms: O_2  and  C_36
REMARK    3  A    between atoms: O_3  and  C_20
REMARK    4  A    between atoms: O_3  and  C_37
REMARK    5  A    between atoms: O_4  and  C_21
REMARK    6  A    between atoms: O_5  and  C_22
REMARK    7  A    between atoms: O_7  and  C_30
REMARK    8  A    between atoms: O_8  and  C_31
REMARK    9  A    between atoms: O_8  and  C_39
REMARK   10  A    between atoms: O_12  and  C_41
REMARK   11  A    between atoms: O_13  and  C_51
REMARK   12  A    between atoms: O_13  and  C_55
REMARK   13  A    between atoms: N_15  and  C_44
REMARK   14  A    between atoms: C_18  and  C_29
REMARK   15  A    between atoms: C_24  and  C_33
REMARK   16  A    between atoms: C_24  and  C_34
REMARK   17  A    between atoms: C_32  and  C_35
REMARK   18  A    between atoms: C_36  and  C_38
REMARK   19  A    between atoms: C_37  and  C_40
REMARK   20  A    between atoms: C_39  and  C_41
REMARK   21  A    between atoms: C_41  and  C_44
REMARK   22  A    between atoms: C_44  and  C_48
REMARK   23  A    between atoms: C_55  and  C_56
REMARK   24  A    between atoms: C_55  and  C_57
REMARK   25  A    between atoms: C_55  and  C_58
REMARK                            x       y       z     vdW  Elec       q    Type
REMARK                         _______ _______ _______ _____ _____    ______ ____
ROOT
ATOM      1  O   UNL     1      -6.455  42.733  10.697  0.00  0.00    +0.000 OA
ATOM      2  O   UNL     1      -5.921  48.205  14.561  0.00  0.00    +0.000 OA
ATOM      3  C   UNL     1      -4.734  44.155  13.319  0.00  0.00    +0.000 C 
ATOM      4  C   UNL     1      -5.672  43.103  12.658  0.00  0.00    +0.000 C 
ATOM      5  C   UNL     1      -5.826  45.612  13.854  0.00  0.00    +0.000 C 
ATOM      6  C   UNL     1      -6.059  43.954  11.380  0.00  0.00    +0.000 C 
ATOM      7  C   UNL     1      -3.496  43.368  14.469  0.00  0.00    +0.000 C 
ATOM      8  C   UNL     1      -2.093  43.810  15.662  0.00  0.00    +0.000 C 
ATOM      9  C   UNL     1      -6.448  46.136  12.494  0.00  0.00    +0.000 C 
ATOM     10  C   UNL     1      -7.091  45.043  11.586  0.00  0.00    +0.000 C 
ATOM     11  C   UNL     1      -1.654  45.401  16.314  0.00  0.00    +0.000 C 
ATOM     12  C   UNL     1      -5.395  42.069  11.494  0.00  0.00    +0.000 C 
ATOM     13  C   UNL     1      -5.322  47.141  14.830  0.00  0.00    +0.000 C 
ATOM     14  C   UNL     1      -2.432  43.035  17.018  0.00  0.00    +0.000 C 
ATOM     15  C   UNL     1      -2.907  46.125  16.998  0.00  0.00    +0.000 C 
ATOM     16  C   UNL     1      -7.098  45.142  14.678  0.00  0.00    +0.000 C 
ATOM     17  C   UNL     1      -3.998  47.299  16.210  0.00  0.00    +0.000 C 
ATOM     18  C   UNL     1      -3.184  43.842  18.173  0.00  0.00    +0.000 C 
ATOM     19  C   UNL     1      -3.400  45.393  18.053  0.00  0.00    +0.000 C 
ATOM     20  C   UNL     1      -0.568  45.152  17.477  0.00  0.00    +0.000 C 
ATOM     21  C   UNL     1      -0.736  46.345  15.474  0.00  0.00    +0.000 C 
ATOM     22  C   UNL     1      -4.409  45.953  19.025  0.00  0.00    +0.000 C 
ENDROOT
BRANCH  17  23
ATOM     23  O   UNL     1      -3.225  48.494  16.097  0.00  0.00    +0.000 OA
ATOM     24  H   UNL     1      -3.668  49.137  16.683  0.00  0.00    +0.000 HD
ENDBRANCH  17  23
BRANCH   9  25
ATOM     25  O   UNL     1      -5.413  46.753  11.726  0.00  0.00    +0.000 OA
ATOM     26  H   UNL     1      -5.848  47.285  11.036  0.00  0.00    +0.000 HD
ENDBRANCH   9  25
BRANCH   8  27
ATOM     27  O   UNL     1      -0.927  43.174  15.103  0.00  0.00    +0.000 OA
ATOM     28  H   UNL     1      -0.825  42.290  15.500  0.00  0.00    +0.000 HD
ENDBRANCH   8  27
BRANCH  18  29
ATOM     29  O   UNL     1      -4.503  43.246  18.339  0.00  0.00    +0.000 OA
BRANCH  29  31
ATOM     30  O   UNL     1      -3.673  41.711  19.773  0.00  0.00    +0.000 OA
ATOM     31  C   UNL     1      -4.642  42.269  19.269  0.00  0.00    +0.000 C 
BRANCH  31  32
ATOM     32  C   UNL     1      -6.082  41.805  19.517  0.00  0.00    +0.000 C 
BRANCH  32  33
ATOM     33  O   UNL     1      -6.583  40.831  18.594  0.00  0.00    +0.000 OA
ATOM     34  H   UNL     1      -6.989  40.129  19.136  0.00  0.00    +0.000 HD
ENDBRANCH  32  33
BRANCH  32  35
ATOM     35  C   UNL     1      -6.997  43.057  19.576  0.00  0.00    +0.000 C 
BRANCH  35  36
ATOM     36  C   UNL     1      -7.272  43.516  21.004  0.00  0.00    +0.000 A 
ATOM     37  C   UNL     1      -8.343  42.955  21.719  0.00  0.00    +0.000 A 
ATOM     38  C   UNL     1      -6.460  44.464  21.649  0.00  0.00    +0.000 A 
ATOM     39  C   UNL     1      -8.611  43.350  23.032  0.00  0.00    +0.000 A 
ATOM     40  C   UNL     1      -6.730  44.857  22.962  0.00  0.00    +0.000 A 
ATOM     41  C   UNL     1      -7.806  44.302  23.651  0.00  0.00    +0.000 A 
ENDBRANCH  35  36
BRANCH  35  43
ATOM     42  O   UNL     1      -8.465  44.852  17.879  0.00  0.00    +0.000 OA
ATOM     43  N   UNL     1      -8.269  42.819  18.907  0.00  0.00    +0.000 N 
ATOM     44  C   UNL     1      -8.933  43.775  18.209  0.00  0.00    +0.000 C 
ATOM     45  H   UNL     1      -8.818  42.027  19.214  0.00  0.00    +0.000 HD
BRANCH  44  46
ATOM     46  O   UNL     1     -10.173  43.320  17.927  0.00  0.00    +0.000 OA
BRANCH  46  47
ATOM     47  C   UNL     1     -11.298  43.658  18.778  0.00  0.00    +0.000 C 
ATOM     48  C   UNL     1     -12.538  44.012  17.950  0.00  0.00    +0.000 C 
ATOM     49  C   UNL     1     -11.587  42.373  19.569  0.00  0.00    +0.000 C 
ATOM     50  C   UNL     1     -10.932  44.771  19.766  0.00  0.00    +0.000 C 
ENDBRANCH  46  47
ENDBRANCH  44  46
ENDBRANCH  35  43
ENDBRANCH  32  35
ENDBRANCH  31  32
ENDBRANCH  29  31
ENDBRANCH  18  29
BRANCH   7  51
ATOM     51  O   UNL     1      -4.362  43.618  15.429  0.00  0.00    +0.000 OA
BRANCH  51  53
ATOM     52  O   UNL     1      -5.811  42.371  16.042  0.00  0.00    +0.000 OA
ATOM     53  C   UNL     1      -4.723  42.294  15.480  0.00  0.00    +0.000 C 
BRANCH  53  54
ATOM     54  C   UNL     1      -3.550  40.844  15.043  0.00  0.00    +0.000 A 
ATOM     55  C   UNL     1      -3.222  39.724  15.927  0.00  0.00    +0.000 A 
ATOM     56  C   UNL     1      -2.942  40.567  13.780  0.00  0.00    +0.000 A 
ATOM     57  C   UNL     1      -2.448  38.578  15.611  0.00  0.00    +0.000 A 
ATOM     58  C   UNL     1      -2.162  39.423  13.444  0.00  0.00    +0.000 A 
ATOM     59  C   UNL     1      -1.913  38.427  14.357  0.00  0.00    +0.000 A 
ENDBRANCH  53  54
ENDBRANCH  51  53
ENDBRANCH   7  51
BRANCH   4  60
ATOM     60  O   UNL     1      -6.794  42.755  13.503  0.00  0.00    +0.000 OA
BRANCH  60  62
ATOM     61  O   UNL     1      -8.773  41.999  12.785  0.00  0.00    +0.000 OA
ATOM     62  C   UNL     1      -7.660  41.748  13.240  0.00  0.00    +0.000 C 
ATOM     63  C   UNL     1      -7.285  40.351  13.621  0.00  0.00    +0.000 C 
ENDBRANCH  60  62
ENDBRANCH   4  60
TORSDOF 17
ENDMDL
MODEL 4
REMARK VINA RESULT:      -8.1      4.348      6.791
REMARK  Name = 
REMARK  25 active torsions:
REMARK  status: ('A' for Active; 'I' for Inactive)
REMARK    1  A    between atoms: O_2  and  C_17
REMARK    2  A    between atoms: O_2  and  C_36
REMARK    3  A    between atoms: O_3  and  C_20
REMARK    4  A    between atoms: O_3  and  C_37
REMARK    5  A    between atoms: O_4  and  C_21
REMARK    6  A    between atoms: O_5  and  C_22
REMARK    7  A    between atoms: O_7  and  C_30
REMARK    8  A    between atoms: O_8  and  C_31
REMARK    9  A    between atoms: O_8  and  C_39
REMARK   10  A    between atoms: O_12  and  C_41
REMARK   11  A    between atoms: O_13  and  C_51
REMARK   12  A    between atoms: O_13  and  C_55
REMARK   13  A    between atoms: N_15  and  C_44
REMARK   14  A    between atoms: C_18  and  C_29
REMARK   15  A    between atoms: C_24  and  C_33
REMARK   16  A    between atoms: C_24  and  C_34
REMARK   17  A    between atoms: C_32  and  C_35
REMARK   18  A    between atoms: C_36  and  C_38
REMARK   19  A    between atoms: C_37  and  C_40
REMARK   20  A    between atoms: C_39  and  C_41
REMARK   21  A    between atoms: C_41  and  C_44
REMARK   22  A    between atoms: C_44  and  C_48
REMARK   23  A    between atoms: C_55  and  C_56
REMARK   24  A    between atoms: C_55  and  C_57
REMARK   25  A    between atoms: C_55  and  C_58
REMARK                            x       y       z     vdW  Elec       q    Type
REMARK                         _______ _______ _______ _____ _____    ______ ____
ROOT
ATOM      1  O   UNL     1      -2.305  44.656  17.606  0.00  0.00    +0.000 OA
ATOM      2  O   UNL     1      -8.430  47.420  17.641  0.00  0.00    +0.000 OA
ATOM      3  C   UNL     1      -5.681  43.990  17.474  0.00  0.00    +0.000 C 
ATOM      4  C   UNL     1      -4.230  44.023  16.909  0.00  0.00    +0.000 C 
ATOM      5  C   UNL     1      -6.469  45.669  17.074  0.00  0.00    +0.000 C 
ATOM      6  C   UNL     1      -3.653  45.114  17.902  0.00  0.00    +0.000 C 
ATOM      7  C   UNL     1      -6.541  42.378  17.106  0.00  0.00    +0.000 C 
ATOM      8  C   UNL     1      -8.205  41.501  17.332  0.00  0.00    +0.000 C 
ATOM      9  C   UNL     1      -5.552  46.709  17.843  0.00  0.00    +0.000 C 
ATOM     10  C   UNL     1      -4.019  46.552  17.604  0.00  0.00    +0.000 C 
ATOM     11  C   UNL     1      -9.762  42.193  17.832  0.00  0.00    +0.000 C 
ATOM     12  C   UNL     1      -2.913  43.316  17.424  0.00  0.00    +0.000 C 
ATOM     13  C   UNL     1      -8.247  46.214  17.367  0.00  0.00    +0.000 C 
ATOM     14  C   UNL     1      -8.594  40.954  15.882  0.00  0.00    +0.000 C 
ATOM     15  C   UNL     1     -10.170  43.445  16.923  0.00  0.00    +0.000 C 
ATOM     16  C   UNL     1      -6.283  46.076  15.552  0.00  0.00    +0.000 C 
ATOM     17  C   UNL     1      -9.850  45.161  17.298  0.00  0.00    +0.000 C 
ATOM     18  C   UNL     1      -9.585  41.833  14.992  0.00  0.00    +0.000 C 
ATOM     19  C   UNL     1     -10.307  43.088  15.602  0.00  0.00    +0.000 C 
ATOM     20  C   UNL     1     -10.880  41.059  17.592  0.00  0.00    +0.000 C 
ATOM     21  C   UNL     1     -10.068  42.364  19.354  0.00  0.00    +0.000 C 
ATOM     22  C   UNL     1     -10.924  44.005  14.575  0.00  0.00    +0.000 C 
ENDROOT
BRANCH  17  23
ATOM     23  O   UNL     1     -10.764  45.481  18.348  0.00  0.00    +0.000 OA
ATOM     24  H   UNL     1     -11.644  45.476  17.925  0.00  0.00    +0.000 HD
ENDBRANCH  17  23
BRANCH   9  25
ATOM     25  O   UNL     1      -5.769  46.558  19.246  0.00  0.00    +0.000 OA
ATOM     26  H   UNL     1      -6.211  47.370  19.555  0.00  0.00    +0.000 HD
ENDBRANCH   9  25
BRANCH   8  27
ATOM     27  O   UNL     1      -7.901  40.348  18.141  0.00  0.00    +0.000 OA
ATOM     28  H   UNL     1      -8.690  40.103  18.656  0.00  0.00    +0.000 HD
ENDBRANCH   8  27
BRANCH  18  29
ATOM     29  O   UNL     1      -8.838  42.302  13.832  0.00  0.00    +0.000 OA
BRANCH  29  31
ATOM     30  O   UNL     1      -9.284  42.645  11.645  0.00  0.00    +0.000 OA
ATOM     31  C   UNL     1      -9.245  41.885  12.607  0.00  0.00    +0.000 C 
BRANCH  31  32
ATOM     32  C   UNL     1      -9.803  40.458  12.556  0.00  0.00    +0.000 C 
BRANCH  32  33
ATOM     33  O   UNL     1      -8.975  39.498  11.890  0.00  0.00    +0.000 OA
ATOM     34  H   UNL     1      -8.099  39.556  12.315  0.00  0.00    +0.000 HD
ENDBRANCH  32  33
BRANCH  32  35
ATOM     35  C   UNL     1     -11.226  40.510  11.938  0.00  0.00    +0.000 C 
BRANCH  35  36
ATOM     36  C   UNL     1     -12.275  39.850  12.826  0.00  0.00    +0.000 A 
ATOM     37  C   UNL     1     -13.007  38.755  12.338  0.00  0.00    +0.000 A 
ATOM     38  C   UNL     1     -12.512  40.281  14.142  0.00  0.00    +0.000 A 
ATOM     39  C   UNL     1     -13.966  38.125  13.134  0.00  0.00    +0.000 A 
ATOM     40  C   UNL     1     -13.473  39.650  14.936  0.00  0.00    +0.000 A 
ATOM     41  C   UNL     1     -14.201  38.575  14.431  0.00  0.00    +0.000 A 
ENDBRANCH  35  36
BRANCH  35  43
ATOM     42  O   UNL     1     -11.569  41.772   9.380  0.00  0.00    +0.000 OA
ATOM     43  N   UNL     1     -11.260  39.880  10.625  0.00  0.00    +0.000 N 
ATOM     44  C   UNL     1     -11.534  40.557   9.482  0.00  0.00    +0.000 C 
ATOM     45  H   UNL     1     -11.382  38.877  10.591  0.00  0.00    +0.000 HD
BRANCH  44  46
ATOM     46  O   UNL     1     -11.730  39.665   8.488  0.00  0.00    +0.000 OA
BRANCH  46  47
ATOM     47  C   UNL     1     -13.052  39.458   7.927  0.00  0.00    +0.000 C 
ATOM     48  C   UNL     1     -13.254  40.284   6.653  0.00  0.00    +0.000 C 
ATOM     49  C   UNL     1     -13.090  37.968   7.558  0.00  0.00    +0.000 C 
ATOM     50  C   UNL     1     -14.145  39.733   8.967  0.00  0.00    +0.000 C 
ENDBRANCH  46  47
ENDBRANCH  44  46
ENDBRANCH  35  43
ENDBRANCH  32  35
ENDBRANCH  31  32
ENDBRANCH  29  31
ENDBRANCH  18  29
BRANCH   7  51
ATOM     51  O   UNL     1      -7.028  42.982  16.042  0.00  0.00    +0.000 OA
BRANCH  51  53
ATOM     52  O   UNL     1      -5.657  41.516  16.039  0.00  0.00    +0.000 OA
ATOM     53  C   UNL     1      -6.238  42.218  15.218  0.00  0.00    +0.000 C 
BRANCH  53  54
ATOM     54  C   UNL     1      -6.002  42.550  13.346  0.00  0.00    +0.000 A 
ATOM     55  C   UNL     1      -5.848  41.522  12.317  0.00  0.00    +0.000 A 
ATOM     56  C   UNL     1      -6.076  43.807  12.671  0.00  0.00    +0.000 A 
ATOM     57  C   UNL     1      -5.779  41.715  10.913  0.00  0.00    +0.000 A 
ATOM     58  C   UNL     1      -6.008  44.021  11.263  0.00  0.00    +0.000 A 
ATOM     59  C   UNL     1      -5.860  42.977  10.382  0.00  0.00    +0.000 A 
ENDBRANCH  53  54
ENDBRANCH  51  53
ENDBRANCH   7  51
BRANCH   4  60
ATOM     60  O   UNL     1      -4.189  44.407  15.515  0.00  0.00    +0.000 OA
BRANCH  60  62
ATOM     61  O   UNL     1      -2.782  43.080  14.391  0.00  0.00    +0.000 OA
ATOM     62  C   UNL     1      -3.121  44.219  14.705  0.00  0.00    +0.000 C 
ATOM     63  C   UNL     1      -2.298  45.401  14.302  0.00  0.00    +0.000 C 
ENDBRANCH  60  62
ENDBRANCH   4  60
TORSDOF 17
ENDMDL
MODEL 5
REMARK VINA RESULT:      -7.8      3.260      6.789
REMARK  Name = 
REMARK  25 active torsions:
REMARK  status: ('A' for Active; 'I' for Inactive)
REMARK    1  A    between atoms: O_2  and  C_17
REMARK    2  A    between atoms: O_2  and  C_36
REMARK    3  A    between atoms: O_3  and  C_20
REMARK    4  A    between atoms: O_3  and  C_37
REMARK    5  A    between atoms: O_4  and  C_21
REMARK    6  A    between atoms: O_5  and  C_22
REMARK    7  A    between atoms: O_7  and  C_30
REMARK    8  A    between atoms: O_8  and  C_31
REMARK    9  A    between atoms: O_8  and  C_39
REMARK   10  A    between atoms: O_12  and  C_41
REMARK   11  A    between atoms: O_13  and  C_51
REMARK   12  A    between atoms: O_13  and  C_55
REMARK   13  A    between atoms: N_15  and  C_44
REMARK   14  A    between atoms: C_18  and  C_29
REMARK   15  A    between atoms: C_24  and  C_33
REMARK   16  A    between atoms: C_24  and  C_34
REMARK   17  A    between atoms: C_32  and  C_35
REMARK   18  A    between atoms: C_36  and  C_38
REMARK   19  A    between atoms: C_37  and  C_40
REMARK   20  A    between atoms: C_39  and  C_41
REMARK   21  A    between atoms: C_41  and  C_44
REMARK   22  A    between atoms: C_44  and  C_48
REMARK   23  A    between atoms: C_55  and  C_56
REMARK   24  A    between atoms: C_55  and  C_57
REMARK   25  A    between atoms: C_55  and  C_58
REMARK                            x       y       z     vdW  Elec       q    Type
REMARK                         _______ _______ _______ _____ _____    ______ ____
ROOT
ATOM      1  O   UNL     1       0.162  39.103  15.587  0.00  0.00    +0.000 OA
ATOM      2  O   UNL     1       0.732  45.612  17.155  0.00  0.00    +0.000 OA
ATOM      3  C   UNL     1      -1.194  41.668  17.441  0.00  0.00    +0.000 C 
ATOM      4  C   UNL     1      -1.200  40.584  16.323  0.00  0.00    +0.000 C 
ATOM      5  C   UNL     1      -0.436  43.236  16.687  0.00  0.00    +0.000 C 
ATOM      6  C   UNL     1       0.369  40.398  16.215  0.00  0.00    +0.000 C 
ATOM      7  C   UNL     1      -2.795  41.700  18.396  0.00  0.00    +0.000 C 
ATOM      8  C   UNL     1      -3.666  42.634  19.795  0.00  0.00    +0.000 C 
ATOM      9  C   UNL     1       1.029  42.788  16.281  0.00  0.00    +0.000 C 
ATOM     10  C   UNL     1       1.120  41.469  15.454  0.00  0.00    +0.000 C 
ATOM     11  C   UNL     1      -3.207  44.172  20.553  0.00  0.00    +0.000 C 
ATOM     12  C   UNL     1      -1.062  39.012  16.419  0.00  0.00    +0.000 C 
ATOM     13  C   UNL     1      -0.271  44.937  17.476  0.00  0.00    +0.000 C 
ATOM     14  C   UNL     1      -5.101  43.026  19.211  0.00  0.00    +0.000 C 
ATOM     15  C   UNL     1      -3.000  45.328  19.465  0.00  0.00    +0.000 C 
ATOM     16  C   UNL     1      -1.098  43.618  15.297  0.00  0.00    +0.000 C 
ATOM     17  C   UNL     1      -1.447  45.800  18.721  0.00  0.00    +0.000 C 
ATOM     18  C   UNL     1      -5.286  44.491  18.602  0.00  0.00    +0.000 C 
ATOM     19  C   UNL     1      -4.155  45.569  18.758  0.00  0.00    +0.000 C 
ATOM     20  C   UNL     1      -4.441  44.625  21.485  0.00  0.00    +0.000 C 
ATOM     21  C   UNL     1      -2.158  44.171  21.710  0.00  0.00    +0.000 C 
ATOM     22  C   UNL     1      -4.314  46.766  17.853  0.00  0.00    +0.000 C 
ENDROOT
BRANCH  17  23
ATOM     23  O   UNL     1      -0.744  46.491  19.755  0.00  0.00    +0.000 OA
ATOM     24  H   UNL     1      -0.626  45.831  20.463  0.00  0.00    +0.000 HD
ENDBRANCH  17  23
BRANCH   9  25
ATOM     25  O   UNL     1       1.790  42.582  17.472  0.00  0.00    +0.000 OA
ATOM     26  H   UNL     1       1.253  42.020  18.059  0.00  0.00    +0.000 HD
ENDBRANCH   9  25
BRANCH   8  27
ATOM     27  O   UNL     1      -3.892  41.638  20.811  0.00  0.00    +0.000 OA
ATOM     28  H   UNL     1      -3.101  41.573  21.376  0.00  0.00    +0.000 HD
ENDBRANCH   8  27
BRANCH  18  29
ATOM     29  O   UNL     1      -5.534  44.346  17.174  0.00  0.00    +0.000 OA
BRANCH  29  31
ATOM     30  O   UNL     1      -7.238  45.799  16.882  0.00  0.00    +0.000 OA
ATOM     31  C   UNL     1      -6.764  44.681  16.709  0.00  0.00    +0.000 C 
BRANCH  31  32
ATOM     32  C   UNL     1      -7.570  43.525  16.107  0.00  0.00    +0.000 C 
BRANCH  32  33
ATOM     33  O   UNL     1      -8.539  43.899  15.120  0.00  0.00    +0.000 OA
ATOM     34  H   UNL     1      -9.183  43.167  15.084  0.00  0.00    +0.000 HD
ENDBRANCH  32  33
BRANCH  32  35
ATOM     35  C   UNL     1      -8.219  42.723  17.267  0.00  0.00    +0.000 C 
BRANCH  35  36
ATOM     36  C   UNL     1      -9.256  41.718  16.777  0.00  0.00    +0.000 A 
ATOM     37  C   UNL     1     -10.608  42.091  16.712  0.00  0.00    +0.000 A 
ATOM     38  C   UNL     1      -8.896  40.429  16.349  0.00  0.00    +0.000 A 
ATOM     39  C   UNL     1     -11.576  41.194  16.258  0.00  0.00    +0.000 A 
ATOM     40  C   UNL     1      -9.867  39.533  15.896  0.00  0.00    +0.000 A 
ATOM     41  C   UNL     1     -11.206  39.914  15.853  0.00  0.00    +0.000 A 
ENDBRANCH  35  36
BRANCH  35  43
ATOM     42  O   UNL     1      -8.364  42.396  20.118  0.00  0.00    +0.000 OA
ATOM     43  N   UNL     1      -8.847  43.607  18.240  0.00  0.00    +0.000 N 
ATOM     44  C   UNL     1      -8.952  43.306  19.559  0.00  0.00    +0.000 C 
ATOM     45  H   UNL     1      -9.481  44.313  17.891  0.00  0.00    +0.000 HD
BRANCH  44  46
ATOM     46  O   UNL     1      -9.786  44.196  20.139  0.00  0.00    +0.000 OA
BRANCH  46  47
ATOM     47  C   UNL     1     -11.137  43.814  20.507  0.00  0.00    +0.000 C 
ATOM     48  C   UNL     1     -11.395  42.331  20.225  0.00  0.00    +0.000 C 
ATOM     49  C   UNL     1     -11.206  44.045  22.025  0.00  0.00    +0.000 C 
ATOM     50  C   UNL     1     -12.173  44.716  19.827  0.00  0.00    +0.000 C 
ENDBRANCH  46  47
ENDBRANCH  44  46
ENDBRANCH  35  43
ENDBRANCH  32  35
ENDBRANCH  31  32
ENDBRANCH  29  31
ENDBRANCH  18  29
BRANCH   7  51
ATOM     51  O   UNL     1      -3.173  42.644  17.560  0.00  0.00    +0.000 OA
BRANCH  51  53
ATOM     52  O   UNL     1      -3.988  40.814  17.698  0.00  0.00    +0.000 OA
ATOM     53  C   UNL     1      -4.046  41.781  16.944  0.00  0.00    +0.000 C 
BRANCH  53  54
ATOM     54  C   UNL     1      -4.792  42.068  15.203  0.00  0.00    +0.000 A 
ATOM     55  C   UNL     1      -4.374  43.110  14.264  0.00  0.00    +0.000 A 
ATOM     56  C   UNL     1      -5.745  41.252  14.520  0.00  0.00    +0.000 A 
ATOM     57  C   UNL     1      -4.820  43.293  12.930  0.00  0.00    +0.000 A 
ATOM     58  C   UNL     1      -6.205  41.420  13.182  0.00  0.00    +0.000 A 
ATOM     59  C   UNL     1      -5.744  42.439  12.385  0.00  0.00    +0.000 A 
ENDBRANCH  53  54
ENDBRANCH  51  53
ENDBRANCH   7  51
BRANCH   4  60
ATOM     60  O   UNL     1      -1.829  41.049  15.106  0.00  0.00    +0.000 OA
BRANCH  60  62
ATOM     61  O   UNL     1      -2.064  40.540  12.940  0.00  0.00    +0.000 OA
ATOM     62  C   UNL     1      -2.261  40.235  14.114  0.00  0.00    +0.000 C 
ATOM     63  C   UNL     1      -3.078  39.032  14.467  0.00  0.00    +0.000 C 
ENDBRANCH  60  62
ENDBRANCH   4  60
TORSDOF 17
ENDMDL
MODEL 6
REMARK VINA RESULT:      -7.7      3.268      9.298
REMARK  Name = 
REMARK  25 active torsions:
REMARK  status: ('A' for Active; 'I' for Inactive)
REMARK    1  A    between atoms: O_2  and  C_17
REMARK    2  A    between atoms: O_2  and  C_36
REMARK    3  A    between atoms: O_3  and  C_20
REMARK    4  A    between atoms: O_3  and  C_37
REMARK    5  A    between atoms: O_4  and  C_21
REMARK    6  A    between atoms: O_5  and  C_22
REMARK    7  A    between atoms: O_7  and  C_30
REMARK    8  A    between atoms: O_8  and  C_31
REMARK    9  A    between atoms: O_8  and  C_39
REMARK   10  A    between atoms: O_12  and  C_41
REMARK   11  A    between atoms: O_13  and  C_51
REMARK   12  A    between atoms: O_13  and  C_55
REMARK   13  A    between atoms: N_15  and  C_44
REMARK   14  A    between atoms: C_18  and  C_29
REMARK   15  A    between atoms: C_24  and  C_33
REMARK   16  A    between atoms: C_24  and  C_34
REMARK   17  A    between atoms: C_32  and  C_35
REMARK   18  A    between atoms: C_36  and  C_38
REMARK   19  A    between atoms: C_37  and  C_40
REMARK   20  A    between atoms: C_39  and  C_41
REMARK   21  A    between atoms: C_41  and  C_44
REMARK   22  A    between atoms: C_44  and  C_48
REMARK   23  A    between atoms: C_55  and  C_56
REMARK   24  A    between atoms: C_55  and  C_57
REMARK   25  A    between atoms: C_55  and  C_58
REMARK                            x       y       z     vdW  Elec       q    Type
REMARK                         _______ _______ _______ _____ _____    ______ ____
ROOT
ATOM      1  O   UNL     1      -6.310  41.678   9.763  0.00  0.00    +0.000 OA
ATOM      2  O   UNL     1      -4.725  47.091  13.415  0.00  0.00    +0.000 OA
ATOM      3  C   UNL     1      -4.910  42.752  12.720  0.00  0.00    +0.000 C 
ATOM      4  C   UNL     1      -5.977  42.022  11.851  0.00  0.00    +0.000 C 
ATOM      5  C   UNL     1      -5.456  44.564  12.860  0.00  0.00    +0.000 C 
ATOM      6  C   UNL     1      -5.665  42.761  10.486  0.00  0.00    +0.000 C 
ATOM      7  C   UNL     1      -4.411  41.748  14.209  0.00  0.00    +0.000 C 
ATOM      8  C   UNL     1      -3.303  41.825  15.743  0.00  0.00    +0.000 C 
ATOM      9  C   UNL     1      -5.456  45.074  11.360  0.00  0.00    +0.000 C 
ATOM     10  C   UNL     1      -6.214  44.165  10.344  0.00  0.00    +0.000 C 
ATOM     11  C   UNL     1      -2.469  43.230  16.438  0.00  0.00    +0.000 C 
ATOM     12  C   UNL     1      -5.829  40.801  10.857  0.00  0.00    +0.000 C 
ATOM     13  C   UNL     1      -4.672  45.934  13.886  0.00  0.00    +0.000 C 
ATOM     14  C   UNL     1      -4.249  41.427  16.968  0.00  0.00    +0.000 C 
ATOM     15  C   UNL     1      -3.478  44.444  16.699  0.00  0.00    +0.000 C 
ATOM     16  C   UNL     1      -6.976  44.704  13.292  0.00  0.00    +0.000 C 
ATOM     17  C   UNL     1      -3.791  45.804  15.585  0.00  0.00    +0.000 C 
ATOM     18  C   UNL     1      -4.903  42.607  17.823  0.00  0.00    +0.000 C 
ATOM     19  C   UNL     1      -4.467  44.098  17.589  0.00  0.00    +0.000 C 
ATOM     20  C   UNL     1      -1.901  42.778  17.876  0.00  0.00    +0.000 C 
ATOM     21  C   UNL     1      -1.077  43.650  15.870  0.00  0.00    +0.000 C 
ATOM     22  C   UNL     1      -5.397  45.115  18.203  0.00  0.00    +0.000 C 
ENDROOT
BRANCH  17  23
ATOM     23  O   UNL     1      -2.618  46.614  15.660  0.00  0.00    +0.000 OA
ATOM     24  H   UNL     1      -2.947  47.520  15.812  0.00  0.00    +0.000 HD
ENDBRANCH  17  23
BRANCH   9  25
ATOM     25  O   UNL     1      -4.105  45.161  10.907  0.00  0.00    +0.000 OA
ATOM     26  H   UNL     1      -3.629  45.733  11.536  0.00  0.00    +0.000 HD
ENDBRANCH   9  25
BRANCH   8  27
ATOM     27  O   UNL     1      -2.370  40.740  15.572  0.00  0.00    +0.000 OA
ATOM     28  H   UNL     1      -2.303  40.243  16.407  0.00  0.00    +0.000 HD
ENDBRANCH   8  27
BRANCH  18  29
ATOM     29  O   UNL     1      -6.344  42.553  17.617  0.00  0.00    +0.000 OA
BRANCH  29  31
ATOM     30  O   UNL     1      -6.889  41.033  19.196  0.00  0.00    +0.000 OA
ATOM     31  C   UNL     1      -7.112  42.104  18.641  0.00  0.00    +0.000 C 
BRANCH  31  32
ATOM     32  C   UNL     1      -8.360  42.943  18.937  0.00  0.00    +0.000 C 
BRANCH  32  33
ATOM     33  O   UNL     1      -8.441  44.193  18.243  0.00  0.00    +0.000 OA
ATOM     34  H   UNL     1      -8.622  43.971  17.310  0.00  0.00    +0.000 HD
ENDBRANCH  32  33
BRANCH  32  35
ATOM     35  C   UNL     1      -8.468  43.137  20.473  0.00  0.00    +0.000 C 
BRANCH  35  36
ATOM     36  C   UNL     1      -9.913  43.216  20.955  0.00  0.00    +0.000 A 
ATOM     37  C   UNL     1     -10.906  42.477  20.292  0.00  0.00    +0.000 A 
ATOM     38  C   UNL     1     -10.282  43.981  22.074  0.00  0.00    +0.000 A 
ATOM     39  C   UNL     1     -12.235  42.522  20.720  0.00  0.00    +0.000 A 
ATOM     40  C   UNL     1     -11.611  44.025  22.499  0.00  0.00    +0.000 A 
ATOM     41  C   UNL     1     -12.587  43.299  21.820  0.00  0.00    +0.000 A 
ENDBRANCH  35  36
BRANCH  35  43
ATOM     42  O   UNL     1      -5.745  43.358  21.364  0.00  0.00    +0.000 OA
ATOM     43  N   UNL     1      -7.762  44.333  20.910  0.00  0.00    +0.000 N 
ATOM     44  C   UNL     1      -6.502  44.312  21.414  0.00  0.00    +0.000 C 
ATOM     45  H   UNL     1      -8.317  45.150  21.128  0.00  0.00    +0.000 HD
BRANCH  44  46
ATOM     46  O   UNL     1      -6.230  45.523  21.946  0.00  0.00    +0.000 OA
BRANCH  46  47
ATOM     47  C   UNL     1      -6.042  45.678  23.377  0.00  0.00    +0.000 C 
ATOM     48  C   UNL     1      -6.271  47.128  23.816  0.00  0.00    +0.000 C 
ATOM     49  C   UNL     1      -7.128  44.795  24.010  0.00  0.00    +0.000 C 
ATOM     50  C   UNL     1      -4.669  45.157  23.815  0.00  0.00    +0.000 C 
ENDBRANCH  46  47
ENDBRANCH  44  46
ENDBRANCH  35  43
ENDBRANCH  32  35
ENDBRANCH  31  32
ENDBRANCH  29  31
ENDBRANCH  18  29
BRANCH   7  51
ATOM     51  O   UNL     1      -5.329  42.427  14.865  0.00  0.00    +0.000 OA
BRANCH  51  53
ATOM     52  O   UNL     1      -5.409  40.470  14.424  0.00  0.00    +0.000 OA
ATOM     53  C   UNL     1      -6.141  41.321  14.920  0.00  0.00    +0.000 C 
BRANCH  53  54
ATOM     54  C   UNL     1      -8.002  41.376  15.372  0.00  0.00    +0.000 A 
ATOM     55  C   UNL     1      -8.759  40.282  15.981  0.00  0.00    +0.000 A 
ATOM     56  C   UNL     1      -8.878  42.504  15.313  0.00  0.00    +0.000 A 
ATOM     57  C   UNL     1     -10.104  40.312  16.430  0.00  0.00    +0.000 A 
ATOM     58  C   UNL     1     -10.231  42.554  15.758  0.00  0.00    +0.000 A 
ATOM     59  C   UNL     1     -10.846  41.460  16.317  0.00  0.00    +0.000 A 
ENDBRANCH  53  54
ENDBRANCH  51  53
ENDBRANCH   7  51
BRANCH   4  60
ATOM     60  O   UNL     1      -7.322  42.224  12.344  0.00  0.00    +0.000 OA
BRANCH  60  62
ATOM     61  O   UNL     1      -8.387  40.259  12.241  0.00  0.00    +0.000 OA
ATOM     62  C   UNL     1      -8.384  41.462  11.991  0.00  0.00    +0.000 C 
ATOM     63  C   UNL     1      -9.488  42.081  11.193  0.00  0.00    +0.000 C 
ENDBRANCH  60  62
ENDBRANCH   4  60
TORSDOF 17
ENDMDL
MODEL 7
REMARK VINA RESULT:      -7.6      3.232      8.405
REMARK  Name = 
REMARK  25 active torsions:
REMARK  status: ('A' for Active; 'I' for Inactive)
REMARK    1  A    between atoms: O_2  and  C_17
REMARK    2  A    between atoms: O_2  and  C_36
REMARK    3  A    between atoms: O_3  and  C_20
REMARK    4  A    between atoms: O_3  and  C_37
REMARK    5  A    between atoms: O_4  and  C_21
REMARK    6  A    between atoms: O_5  and  C_22
REMARK    7  A    between atoms: O_7  and  C_30
REMARK    8  A    between atoms: O_8  and  C_31
REMARK    9  A    between atoms: O_8  and  C_39
REMARK   10  A    between atoms: O_12  and  C_41
REMARK   11  A    between atoms: O_13  and  C_51
REMARK   12  A    between atoms: O_13  and  C_55
REMARK   13  A    between atoms: N_15  and  C_44
REMARK   14  A    between atoms: C_18  and  C_29
REMARK   15  A    between atoms: C_24  and  C_33
REMARK   16  A    between atoms: C_24  and  C_34
REMARK   17  A    between atoms: C_32  and  C_35
REMARK   18  A    between atoms: C_36  and  C_38
REMARK   19  A    between atoms: C_37  and  C_40
REMARK   20  A    between atoms: C_39  and  C_41
REMARK   21  A    between atoms: C_41  and  C_44
REMARK   22  A    between atoms: C_44  and  C_48
REMARK   23  A    between atoms: C_55  and  C_56
REMARK   24  A    between atoms: C_55  and  C_57
REMARK   25  A    between atoms: C_55  and  C_58
REMARK                            x       y       z     vdW  Elec       q    Type
REMARK                         _______ _______ _______ _____ _____    ______ ____
ROOT
ATOM      1  O   UNL     1      -9.020  42.695  10.644  0.00  0.00    +0.000 OA
ATOM      2  O   UNL     1     -10.810  40.522  16.746  0.00  0.00    +0.000 OA
ATOM      3  C   UNL     1      -8.586  43.170  14.027  0.00  0.00    +0.000 C 
ATOM      4  C   UNL     1      -8.122  42.801  12.587  0.00  0.00    +0.000 C 
ATOM      5  C   UNL     1      -9.276  41.585  14.810  0.00  0.00    +0.000 C 
ATOM      6  C   UNL     1      -9.556  42.509  11.983  0.00  0.00    +0.000 C 
ATOM      7  C   UNL     1      -7.351  44.254  14.907  0.00  0.00    +0.000 C 
ATOM      8  C   UNL     1      -7.046  45.102  16.573  0.00  0.00    +0.000 C 
ATOM      9  C   UNL     1     -10.493  41.199  13.870  0.00  0.00    +0.000 C 
ATOM     10  C   UNL     1     -10.177  41.176  12.343  0.00  0.00    +0.000 C 
ATOM     11  C   UNL     1      -7.889  44.850  18.114  0.00  0.00    +0.000 C 
ATOM     12  C   UNL     1      -8.090  43.669  11.266  0.00  0.00    +0.000 C 
ATOM     13  C   UNL     1      -9.870  41.329  16.578  0.00  0.00    +0.000 C 
ATOM     14  C   UNL     1      -5.562  44.684  16.994  0.00  0.00    +0.000 C 
ATOM     15  C   UNL     1      -7.909  43.304  18.530  0.00  0.00    +0.000 C 
ATOM     16  C   UNL     1      -8.289  40.354  14.650  0.00  0.00    +0.000 C 
ATOM     17  C   UNL     1      -9.223  42.144  18.189  0.00  0.00    +0.000 C 
ATOM     18  C   UNL     1      -5.387  43.453  17.995  0.00  0.00    +0.000 C 
ATOM     19  C   UNL     1      -6.637  42.809  18.695  0.00  0.00    +0.000 C 
ATOM     20  C   UNL     1      -7.046  45.626  19.246  0.00  0.00    +0.000 C 
ATOM     21  C   UNL     1      -9.222  45.616  18.390  0.00  0.00    +0.000 C 
ATOM     22  C   UNL     1      -6.367  41.464  19.324  0.00  0.00    +0.000 C 
ENDROOT
BRANCH  17  23
ATOM     23  O   UNL     1     -10.275  42.514  19.081  0.00  0.00    +0.000 OA
ATOM     24  H   UNL     1     -10.451  43.454  18.886  0.00  0.00    +0.000 HD
ENDBRANCH  17  23
BRANCH   9  25
ATOM     25  O   UNL     1     -11.538  42.155  14.061  0.00  0.00    +0.000 OA
ATOM     26  H   UNL     1     -12.347  41.654  14.267  0.00  0.00    +0.000 HD
ENDBRANCH   9  25
BRANCH   8  27
ATOM     27  O   UNL     1      -7.007  46.509  16.263  0.00  0.00    +0.000 OA
ATOM     28  H   UNL     1      -6.622  46.629  15.377  0.00  0.00    +0.000 HD
ENDBRANCH   8  27
BRANCH  18  29
ATOM     29  O   UNL     1      -4.717  42.384  17.266  0.00  0.00    +0.000 OA
BRANCH  29  31
ATOM     30  O   UNL     1      -3.217  40.818  17.896  0.00  0.00    +0.000 OA
ATOM     31  C   UNL     1      -3.491  41.997  17.698  0.00  0.00    +0.000 C 
BRANCH  31  32
ATOM     32  C   UNL     1      -2.541  43.139  18.075  0.00  0.00    +0.000 C 
BRANCH  32  33
ATOM     33  O   UNL     1      -1.916  43.809  16.974  0.00  0.00    +0.000 OA
ATOM     34  H   UNL     1      -1.272  43.175  16.604  0.00  0.00    +0.000 HD
ENDBRANCH  32  33
BRANCH  32  35
ATOM     35  C   UNL     1      -1.492  42.594  19.080  0.00  0.00    +0.000 C 
BRANCH  35  36
ATOM     36  C   UNL     1      -1.727  43.090  20.502  0.00  0.00    +0.000 A 
ATOM     37  C   UNL     1      -2.946  43.706  20.829  0.00  0.00    +0.000 A 
ATOM     38  C   UNL     1      -0.771  42.917  21.518  0.00  0.00    +0.000 A 
ATOM     39  C   UNL     1      -3.193  44.160  22.127  0.00  0.00    +0.000 A 
ATOM     40  C   UNL     1      -1.020  43.373  22.814  0.00  0.00    +0.000 A 
ATOM     41  C   UNL     1      -2.229  43.996  23.117  0.00  0.00    +0.000 A 
ENDBRANCH  35  36
BRANCH  35  43
ATOM     42  O   UNL     1       0.148  41.333  17.085  0.00  0.00    +0.000 OA
ATOM     43  N   UNL     1      -0.136  42.946  18.679  0.00  0.00    +0.000 N 
ATOM     44  C   UNL     1       0.592  42.218  17.796  0.00  0.00    +0.000 C 
ATOM     45  H   UNL     1       0.385  43.564  19.287  0.00  0.00    +0.000 HD
BRANCH  44  46
ATOM     46  O   UNL     1       1.869  42.657  17.824  0.00  0.00    +0.000 OA
BRANCH  46  47
ATOM     47  C   UNL     1       2.283  43.785  17.012  0.00  0.00    +0.000 C 
ATOM     48  C   UNL     1       2.543  45.027  17.872  0.00  0.00    +0.000 C 
ATOM     49  C   UNL     1       3.609  43.342  16.377  0.00  0.00    +0.000 C 
ATOM     50  C   UNL     1       1.272  44.065  15.894  0.00  0.00    +0.000 C 
ENDBRANCH  46  47
ENDBRANCH  44  46
ENDBRANCH  35  43
ENDBRANCH  32  35
ENDBRANCH  31  32
ENDBRANCH  29  31
ENDBRANCH  18  29
BRANCH   7  51
ATOM     51  O   UNL     1      -6.863  43.139  15.409  0.00  0.00    +0.000 OA
BRANCH  51  53
ATOM     52  O   UNL     1      -5.937  44.340  14.093  0.00  0.00    +0.000 OA
ATOM     53  C   UNL     1      -5.724  43.269  14.652  0.00  0.00    +0.000 C 
BRANCH  53  54
ATOM     54  C   UNL     1      -4.430  41.877  14.412  0.00  0.00    +0.000 A 
ATOM     55  C   UNL     1      -3.011  42.082  14.116  0.00  0.00    +0.000 A 
ATOM     56  C   UNL     1      -4.613  40.475  14.615  0.00  0.00    +0.000 A 
ATOM     57  C   UNL     1      -1.998  41.092  14.037  0.00  0.00    +0.000 A 
ATOM     58  C   UNL     1      -3.609  39.466  14.540  0.00  0.00    +0.000 A 
ATOM     59  C   UNL     1      -2.301  39.772  14.251  0.00  0.00    +0.000 A 
ENDBRANCH  53  54
ENDBRANCH  51  53
ENDBRANCH   7  51
BRANCH   4  60
ATOM     60  O   UNL     1      -7.227  41.665  12.570  0.00  0.00    +0.000 OA
BRANCH  60  62
ATOM     61  O   UNL     1      -5.480  41.957  11.203  0.00  0.00    +0.000 OA
ATOM     62  C   UNL     1      -6.477  41.304  11.502  0.00  0.00    +0.000 C 
ATOM     63  C   UNL     1      -6.945  40.179  10.634  0.00  0.00    +0.000 C 
ENDBRANCH  60  62
ENDBRANCH   4  60
TORSDOF 17
ENDMDL
MODEL 8
REMARK VINA RESULT:      -7.6      2.974      8.347
REMARK  Name = 
REMARK  25 active torsions:
REMARK  status: ('A' for Active; 'I' for Inactive)
REMARK    1  A    between atoms: O_2  and  C_17
REMARK    2  A    between atoms: O_2  and  C_36
REMARK    3  A    between atoms: O_3  and  C_20
REMARK    4  A    between atoms: O_3  and  C_37
REMARK    5  A    between atoms: O_4  and  C_21
REMARK    6  A    between atoms: O_5  and  C_22
REMARK    7  A    between atoms: O_7  and  C_30
REMARK    8  A    between atoms: O_8  and  C_31
REMARK    9  A    between atoms: O_8  and  C_39
REMARK   10  A    between atoms: O_12  and  C_41
REMARK   11  A    between atoms: O_13  and  C_51
REMARK   12  A    between atoms: O_13  and  C_55
REMARK   13  A    between atoms: N_15  and  C_44
REMARK   14  A    between atoms: C_18  and  C_29
REMARK   15  A    between atoms: C_24  and  C_33
REMARK   16  A    between atoms: C_24  and  C_34
REMARK   17  A    between atoms: C_32  and  C_35
REMARK   18  A    between atoms: C_36  and  C_38
REMARK   19  A    between atoms: C_37  and  C_40
REMARK   20  A    between atoms: C_39  and  C_41
REMARK   21  A    between atoms: C_41  and  C_44
REMARK   22  A    between atoms: C_44  and  C_48
REMARK   23  A    between atoms: C_55  and  C_56
REMARK   24  A    between atoms: C_55  and  C_57
REMARK   25  A    between atoms: C_55  and  C_58
REMARK                            x       y       z     vdW  Elec       q    Type
REMARK                         _______ _______ _______ _____ _____    ______ ____
ROOT
ATOM      1  O   UNL     1     -11.461  42.556  13.302  0.00  0.00    +0.000 OA
ATOM      2  O   UNL     1     -10.348  41.934  19.900  0.00  0.00    +0.000 OA
ATOM      3  C   UNL     1      -9.292  43.326  15.863  0.00  0.00    +0.000 C 
ATOM      4  C   UNL     1      -9.708  42.633  14.532  0.00  0.00    +0.000 C 
ATOM      5  C   UNL     1      -9.813  42.171  17.276  0.00  0.00    +0.000 C 
ATOM      6  C   UNL     1     -11.275  42.738  14.732  0.00  0.00    +0.000 C 
ATOM      7  C   UNL     1      -7.583  44.065  15.765  0.00  0.00    +0.000 C 
ATOM      8  C   UNL     1      -6.307  44.990  16.816  0.00  0.00    +0.000 C 
ATOM      9  C   UNL     1     -11.387  42.072  17.120  0.00  0.00    +0.000 C 
ATOM     10  C   UNL     1     -11.898  41.739  15.684  0.00  0.00    +0.000 C 
ATOM     11  C   UNL     1      -6.290  45.238  18.574  0.00  0.00    +0.000 C 
ATOM     12  C   UNL     1     -10.162  43.254  13.151  0.00  0.00    +0.000 C 
ATOM     13  C   UNL     1      -9.474  42.366  19.117  0.00  0.00    +0.000 C 
ATOM     14  C   UNL     1      -4.942  44.180  16.634  0.00  0.00    +0.000 C 
ATOM     15  C   UNL     1      -6.427  43.853  19.365  0.00  0.00    +0.000 C 
ATOM     16  C   UNL     1      -9.330  40.678  17.043  0.00  0.00    +0.000 C 
ATOM     17  C   UNL     1      -7.946  43.142  19.978  0.00  0.00    +0.000 C 
ATOM     18  C   UNL     1      -4.554  43.108  17.751  0.00  0.00    +0.000 C 
ATOM     19  C   UNL     1      -5.385  43.003  19.080  0.00  0.00    +0.000 C 
ATOM     20  C   UNL     1      -4.849  45.849  18.950  0.00  0.00    +0.000 C 
ATOM     21  C   UNL     1      -7.103  46.422  19.187  0.00  0.00    +0.000 C 
ATOM     22  C   UNL     1      -5.129  41.743  19.870  0.00  0.00    +0.000 C 
ENDROOT
BRANCH  17  23
ATOM     23  O   UNL     1      -8.298  43.950  21.102  0.00  0.00    +0.000 OA
ATOM     24  H   UNL     1      -8.143  43.381  21.879  0.00  0.00    +0.000 HD
ENDBRANCH  17  23
BRANCH   9  25
ATOM     25  O   UNL     1     -11.961  43.329  17.480  0.00  0.00    +0.000 OA
ATOM     26  H   UNL     1     -12.287  43.242  18.394  0.00  0.00    +0.000 HD
ENDBRANCH   9  25
BRANCH   8  27
ATOM     27  O   UNL     1      -6.131  46.253  16.144  0.00  0.00    +0.000 OA
ATOM     28  H   UNL     1      -6.533  46.202  15.259  0.00  0.00    +0.000 HD
ENDBRANCH   8  27
BRANCH  18  29
ATOM     29  O   UNL     1      -4.589  41.791  17.129  0.00  0.00    +0.000 OA
BRANCH  29  31
ATOM     30  O   UNL     1      -3.178  40.043  17.367  0.00  0.00    +0.000 OA
ATOM     31  C   UNL     1      -3.406  41.161  16.917  0.00  0.00    +0.000 C 
BRANCH  31  32
ATOM     32  C   UNL     1      -2.332  42.007  16.225  0.00  0.00    +0.000 C 
BRANCH  32  33
ATOM     33  O   UNL     1      -2.000  41.609  14.890  0.00  0.00    +0.000 OA
ATOM     34  H   UNL     1      -1.025  41.604  14.845  0.00  0.00    +0.000 HD
ENDBRANCH  32  33
BRANCH  32  35
ATOM     35  C   UNL     1      -1.076  42.047  17.136  0.00  0.00    +0.000 C 
BRANCH  35  36
ATOM     36  C   UNL     1      -1.224  43.024  18.298  0.00  0.00    +0.000 A 
ATOM     37  C   UNL     1      -1.220  44.405  18.047  0.00  0.00    +0.000 A 
ATOM     38  C   UNL     1      -1.403  42.584  19.620  0.00  0.00    +0.000 A 
ATOM     39  C   UNL     1      -1.365  45.322  19.091  0.00  0.00    +0.000 A 
ATOM     40  C   UNL     1      -1.547  43.502  20.662  0.00  0.00    +0.000 A 
ATOM     41  C   UNL     1      -1.525  44.870  20.398  0.00  0.00    +0.000 A 
ENDBRANCH  35  36
BRANCH  35  43
ATOM     42  O   UNL     1       1.646  41.315  17.696  0.00  0.00    +0.000 OA
ATOM     43  N   UNL     1       0.120  42.395  16.381  0.00  0.00    +0.000 N 
ATOM     44  C   UNL     1       1.376  42.085  16.791  0.00  0.00    +0.000 C 
ATOM     45  H   UNL     1       0.043  43.138  15.699  0.00  0.00    +0.000 HD
BRANCH  44  46
ATOM     46  O   UNL     1       2.259  42.749  16.014  0.00  0.00    +0.000 OA
BRANCH  46  47
ATOM     47  C   UNL     1       2.796  44.030  16.431  0.00  0.00    +0.000 C 
ATOM     48  C   UNL     1       4.319  44.078  16.268  0.00  0.00    +0.000 C 
ATOM     49  C   UNL     1       2.167  45.048  15.466  0.00  0.00    +0.000 C 
ATOM     50  C   UNL     1       2.362  44.376  17.859  0.00  0.00    +0.000 C 
ENDBRANCH  46  47
ENDBRANCH  44  46
ENDBRANCH  35  43
ENDBRANCH  32  35
ENDBRANCH  31  32
ENDBRANCH  29  31
ENDBRANCH  18  29
BRANCH   7  51
ATOM     51  O   UNL     1      -7.159  42.933  16.287  0.00  0.00    +0.000 OA
BRANCH  51  53
ATOM     52  O   UNL     1      -6.499  41.327  15.279  0.00  0.00    +0.000 OA
ATOM     53  C   UNL     1      -6.687  42.520  15.065  0.00  0.00    +0.000 C 
BRANCH  53  54
ATOM     54  C   UNL     1      -6.204  43.710  13.643  0.00  0.00    +0.000 A 
ATOM     55  C   UNL     1      -4.850  44.188  13.361  0.00  0.00    +0.000 A 
ATOM     56  C   UNL     1      -7.041  44.190  12.589  0.00  0.00    +0.000 A 
ATOM     57  C   UNL     1      -4.429  44.979  12.262  0.00  0.00    +0.000 A 
ATOM     58  C   UNL     1      -6.637  44.985  11.477  0.00  0.00    +0.000 A 
ATOM     59  C   UNL     1      -5.332  45.381  11.311  0.00  0.00    +0.000 A 
ENDBRANCH  53  54
ENDBRANCH  51  53
ENDBRANCH   7  51
BRANCH   4  60
ATOM     60  O   UNL     1      -9.210  41.278  14.436  0.00  0.00    +0.000 OA
BRANCH  60  62
ATOM     61  O   UNL     1     -10.222  39.811  13.083  0.00  0.00    +0.000 OA
ATOM     62  C   UNL     1      -9.251  40.531  13.308  0.00  0.00    +0.000 C 
ATOM     63  C   UNL     1      -8.056  40.507  12.409  0.00  0.00    +0.000 C 
ENDBRANCH  60  62
ENDBRANCH   4  60
TORSDOF 17
ENDMDL
MODEL 9
REMARK VINA RESULT:      -7.6      2.814      8.423
REMARK  Name = 
REMARK  25 active torsions:
REMARK  status: ('A' for Active; 'I' for Inactive)
REMARK    1  A    between atoms: O_2  and  C_17
REMARK    2  A    between atoms: O_2  and  C_36
REMARK    3  A    between atoms: O_3  and  C_20
REMARK    4  A    between atoms: O_3  and  C_37
REMARK    5  A    between atoms: O_4  and  C_21
REMARK    6  A    between atoms: O_5  and  C_22
REMARK    7  A    between atoms: O_7  and  C_30
REMARK    8  A    between atoms: O_8  and  C_31
REMARK    9  A    between atoms: O_8  and  C_39
REMARK   10  A    between atoms: O_12  and  C_41
REMARK   11  A    between atoms: O_13  and  C_51
REMARK   12  A    between atoms: O_13  and  C_55
REMARK   13  A    between atoms: N_15  and  C_44
REMARK   14  A    between atoms: C_18  and  C_29
REMARK   15  A    between atoms: C_24  and  C_33
REMARK   16  A    between atoms: C_24  and  C_34
REMARK   17  A    between atoms: C_32  and  C_35
REMARK   18  A    between atoms: C_36  and  C_38
REMARK   19  A    between atoms: C_37  and  C_40
REMARK   20  A    between atoms: C_39  and  C_41
REMARK   21  A    between atoms: C_41  and  C_44
REMARK   22  A    between atoms: C_44  and  C_48
REMARK   23  A    between atoms: C_55  and  C_56
REMARK   24  A    between atoms: C_55  and  C_57
REMARK   25  A    between atoms: C_55  and  C_58
REMARK                            x       y       z     vdW  Elec       q    Type
REMARK                         _______ _______ _______ _____ _____    ______ ____
ROOT
ATOM      1  O   UNL     1     -10.413  42.255  10.910  0.00  0.00    +0.000 OA
ATOM      2  O   UNL     1      -9.925  41.442  17.563  0.00  0.00    +0.000 OA
ATOM      3  C   UNL     1      -8.592  43.094  13.709  0.00  0.00    +0.000 C 
ATOM      4  C   UNL     1      -8.808  42.427  12.319  0.00  0.00    +0.000 C 
ATOM      5  C   UNL     1      -9.149  41.838  15.018  0.00  0.00    +0.000 C 
ATOM      6  C   UNL     1     -10.391  42.389  12.357  0.00  0.00    +0.000 C 
ATOM      7  C   UNL     1      -6.955  43.979  13.817  0.00  0.00    +0.000 C 
ATOM      8  C   UNL     1      -5.881  44.963  15.027  0.00  0.00    +0.000 C 
ATOM      9  C   UNL     1     -10.685  41.612  14.695  0.00  0.00    +0.000 C 
ATOM     10  C   UNL     1     -11.015  41.300  13.203  0.00  0.00    +0.000 C 
ATOM     11  C   UNL     1      -6.064  45.134  16.785  0.00  0.00    +0.000 C 
ATOM     12  C   UNL     1      -9.173  43.067  10.920  0.00  0.00    +0.000 C 
ATOM     13  C   UNL     1      -9.018  41.980  16.891  0.00  0.00    +0.000 C 
ATOM     14  C   UNL     1      -4.437  44.280  14.961  0.00  0.00    +0.000 C 
ATOM     15  C   UNL     1      -6.156  43.709  17.509  0.00  0.00    +0.000 C 
ATOM     16  C   UNL     1      -8.514  40.403  14.786  0.00  0.00    +0.000 C 
ATOM     17  C   UNL     1      -7.660  42.845  17.934  0.00  0.00    +0.000 C 
ATOM     18  C   UNL     1      -4.070  43.197  16.075  0.00  0.00    +0.000 C 
ATOM     19  C   UNL     1      -5.019  42.964  17.305  0.00  0.00    +0.000 C 
ATOM     20  C   UNL     1      -4.728  45.849  17.331  0.00  0.00    +0.000 C 
ATOM     21  C   UNL     1      -7.037  46.216  17.350  0.00  0.00    +0.000 C 
ATOM     22  C   UNL     1      -4.733  41.697  18.073  0.00  0.00    +0.000 C 
ENDROOT
BRANCH  17  23
ATOM     23  O   UNL     1      -8.196  43.570  19.042  0.00  0.00    +0.000 OA
ATOM     24  H   UNL     1      -8.420  42.889  19.704  0.00  0.00    +0.000 HD
ENDBRANCH  17  23
BRANCH   9  25
ATOM     25  O   UNL     1     -11.402  42.799  15.037  0.00  0.00    +0.000 OA
ATOM     26  H   UNL     1     -11.679  43.215  14.201  0.00  0.00    +0.000 HD
ENDBRANCH   9  25
BRANCH   8  27
ATOM     27  O   UNL     1      -5.750  46.264  14.422  0.00  0.00    +0.000 OA
ATOM     28  H   UNL     1      -6.608  46.723  14.465  0.00  0.00    +0.000 HD
ENDBRANCH   8  27
BRANCH  18  29
ATOM     29  O   UNL     1      -3.924  41.911  15.408  0.00  0.00    +0.000 OA
BRANCH  29  31
ATOM     30  O   UNL     1      -2.582  40.161  15.894  0.00  0.00    +0.000 OA
ATOM     31  C   UNL     1      -2.713  41.302  15.466  0.00  0.00    +0.000 C 
BRANCH  31  32
ATOM     32  C   UNL     1      -1.517  42.196  15.117  0.00  0.00    +0.000 C 
BRANCH  32  33
ATOM     33  O   UNL     1      -0.839  41.869  13.899  0.00  0.00    +0.000 OA
ATOM     34  H   UNL     1      -1.506  41.944  13.191  0.00  0.00    +0.000 HD
ENDBRANCH  32  33
BRANCH  32  35
ATOM     35  C   UNL     1      -0.544  42.207  16.326  0.00  0.00    +0.000 C 
BRANCH  35  36
ATOM     36  C   UNL     1      -0.998  43.147  17.438  0.00  0.00    +0.000 A 
ATOM     37  C   UNL     1      -1.365  42.618  18.686  0.00  0.00    +0.000 A 
ATOM     38  C   UNL     1      -1.028  44.541  17.266  0.00  0.00    +0.000 A 
ATOM     39  C   UNL     1      -1.774  43.457  19.725  0.00  0.00    +0.000 A 
ATOM     40  C   UNL     1      -1.439  45.377  18.307  0.00  0.00    +0.000 A 
ATOM     41  C   UNL     1      -1.814  44.835  19.534  0.00  0.00    +0.000 A 
ENDBRANCH  35  36
BRANCH  35  43
ATOM     42  O   UNL     1       1.935  41.568  17.631  0.00  0.00    +0.000 OA
ATOM     43  N   UNL     1       0.805  42.578  15.921  0.00  0.00    +0.000 N 
ATOM     44  C   UNL     1       1.906  42.314  16.668  0.00  0.00    +0.000 C 
ATOM     45  H   UNL     1       0.901  43.307  15.225  0.00  0.00    +0.000 HD
BRANCH  44  46
ATOM     46  O   UNL     1       2.953  42.991  16.148  0.00  0.00    +0.000 OA
BRANCH  46  47
ATOM     47  C   UNL     1       3.114  44.411  16.396  0.00  0.00    +0.000 C 
ATOM     48  C   UNL     1       2.533  44.811  17.756  0.00  0.00    +0.000 C 
ATOM     49  C   UNL     1       4.634  44.631  16.428  0.00  0.00    +0.000 C 
ATOM     50  C   UNL     1       2.522  45.244  15.254  0.00  0.00    +0.000 C 
ENDBRANCH  46  47
ENDBRANCH  44  46
ENDBRANCH  35  43
ENDBRANCH  32  35
ENDBRANCH  31  32
ENDBRANCH  29  31
ENDBRANCH  18  29
BRANCH   7  51
ATOM     51  O   UNL     1      -6.488  42.865  14.341  0.00  0.00    +0.000 OA
BRANCH  51  53
ATOM     52  O   UNL     1      -5.585  41.362  13.364  0.00  0.00    +0.000 OA
ATOM     53  C   UNL     1      -5.889  42.531  13.151  0.00  0.00    +0.000 C 
BRANCH  53  54
ATOM     54  C   UNL     1      -5.443  43.794  11.781  0.00  0.00    +0.000 A 
ATOM     55  C   UNL     1      -4.429  44.843  11.893  0.00  0.00    +0.000 A 
ATOM     56  C   UNL     1      -5.918  43.819  10.433  0.00  0.00    +0.000 A 
ATOM     57  C   UNL     1      -3.991  45.728  10.875  0.00  0.00    +0.000 A 
ATOM     58  C   UNL     1      -5.490  44.699   9.397  0.00  0.00    +0.000 A 
ATOM     59  C   UNL     1      -4.527  45.654   9.615  0.00  0.00    +0.000 A 
ENDBRANCH  53  54
ENDBRANCH  51  53
ENDBRANCH   7  51
BRANCH   4  60
ATOM     60  O   UNL     1      -8.184  41.125  12.228  0.00  0.00    +0.000 OA
BRANCH  60  62
ATOM     61  O   UNL     1      -7.340  40.746  10.191  0.00  0.00    +0.000 OA
ATOM     62  C   UNL     1      -8.103  40.398  11.089  0.00  0.00    +0.000 C 
ATOM     63  C   UNL     1      -9.036  39.243  10.898  0.00  0.00    +0.000 C 
ENDBRANCH  60  62
ENDBRANCH   4  60
TORSDOF 17
ENDMDL
