MODEL 1
REMARK VINA RESULT:      -7.9      0.000      0.000
REMARK  Name = 
REMARK  13 active torsions:
REMARK  status: ('A' for Active; 'I' for Inactive)
REMARK    1  A    between atoms: O_1  and  C_13
REMARK    2  A    between atoms: O_1  and  C_19
REMARK    3  A    between atoms: O_3  and  C_14
REMARK    4  A    between atoms: O_4  and  C_22
REMARK    5  A    between atoms: O_5  and  C_24
REMARK    6  A    between atoms: O_6  and  C_26
REMARK    7  A    between atoms: O_8  and  C_30
REMARK    8  A    between atoms: O_11  and  C_35
REMARK    9  A    between atoms: O_11  and  C_39
REMARK   10  A    between atoms: N_12  and  C_21
REMARK   11  A    between atoms: C_14  and  C_25
REMARK   12  A    between atoms: C_23  and  C_29
REMARK   13  A    between atoms: C_25  and  C_30
REMARK                            x       y       z     vdW  Elec       q    Type
REMARK                         _______ _______ _______ _____ _____    ______ ____
ROOT
ATOM      1  O   UNL     1       5.188  29.182  15.823  0.00  0.00    +0.000 OA
ATOM      2  O   UNL     1       4.584  34.426  15.184  0.00  0.00    +0.000 OA
ATOM      3  C   UNL     1       9.835  31.022  16.977  0.00  0.00    +0.000 C 
ATOM      4  C   UNL     1      10.870  33.331  16.841  0.00  0.00    +0.000 C 
ATOM      5  C   UNL     1      10.738  32.046  17.668  0.00  0.00    +0.000 C 
ATOM      6  C   UNL     1       9.495  33.977  16.617  0.00  0.00    +0.000 C 
ATOM      7  C   UNL     1       8.496  31.619  16.591  0.00  0.00    +0.000 A 
ATOM      8  C   UNL     1       8.351  33.005  16.386  0.00  0.00    +0.000 A 
ATOM      9  C   UNL     1       7.387  30.780  16.375  0.00  0.00    +0.000 A 
ATOM     10  C   UNL     1       7.097  33.513  16.000  0.00  0.00    +0.000 A 
ATOM     11  C   UNL     1       6.138  31.295  15.977  0.00  0.00    +0.000 A 
ATOM     12  C   UNL     1       5.996  32.665  15.792  0.00  0.00    +0.000 A 
ATOM     13  C   UNL     1       4.990  30.391  15.743  0.00  0.00    +0.000 C 
ATOM     14  C   UNL     1       4.693  33.219  15.379  0.00  0.00    +0.000 C 
ATOM     15  C   UNL     1       3.661  30.949  15.398  0.00  0.00    +0.000 A 
ATOM     16  C   UNL     1       3.532  32.327  15.211  0.00  0.00    +0.000 A 
ATOM     17  C   UNL     1       2.524  30.141  15.241  0.00  0.00    +0.000 A 
ATOM     18  C   UNL     1       2.292  32.891  14.870  0.00  0.00    +0.000 A 
ATOM     19  C   UNL     1       1.283  30.707  14.927  0.00  0.00    +0.000 A 
ATOM     20  C   UNL     1       1.169  32.080  14.730  0.00  0.00    +0.000 A 
ENDROOT
BRANCH   4  21
ATOM     21  O   UNL     1      11.494  33.057  15.581  0.00  0.00    +0.000 OA
ATOM     22  H   UNL     1      10.931  33.461  14.887  0.00  0.00    +0.000 HD
ENDBRANCH   4  21
BRANCH   9  23
ATOM     23  O   UNL     1       7.579  29.433  16.572  0.00  0.00    +0.000 OA
ATOM     24  H   UNL     1       8.414  29.163  16.123  0.00  0.00    +0.000 HD
ENDBRANCH   9  23
BRANCH  10  25
ATOM     25  O   UNL     1       7.005  34.874  15.843  0.00  0.00    +0.000 OA
ATOM     26  H   UNL     1       6.510  35.066  15.014  0.00  0.00    +0.000 HD
ENDBRANCH  10  25
BRANCH   4  28
ATOM     27  O   UNL     1      11.722  34.502  18.805  0.00  0.00    +0.000 OA
ATOM     28  C   UNL     1      11.769  34.336  17.581  0.00  0.00    +0.000 C 
BRANCH  28  29
ATOM     29  C   UNL     1      12.736  35.163  16.736  0.00  0.00    +0.000 C 
BRANCH  29  30
ATOM     30  O   UNL     1      14.016  34.546  16.662  0.00  0.00    +0.000 OA
ATOM     31  H   UNL     1      13.850  33.583  16.597  0.00  0.00    +0.000 HD
ENDBRANCH  29  30
ENDBRANCH  28  29
ENDBRANCH   4  28
BRANCH  17  32
ATOM     32  O   UNL     1       2.550  28.794  15.488  0.00  0.00    +0.000 OA
ATOM     33  C   UNL     1       2.376  28.056  14.277  0.00  0.00    +0.000 C 
ENDBRANCH  17  32
BRANCH   3  34
ATOM     34  O   UNL     1      10.461  30.609  15.751  0.00  0.00    +0.000 OA
BRANCH  34  36
ATOM     35  O   UNL     1      12.589  29.947  14.990  0.00  0.00    +0.000 OA
ATOM     36  C   UNL     1      11.579  29.745  15.975  0.00  0.00    +0.000 C 
ATOM     37  C   UNL     1      11.092  28.295  16.016  0.00  0.00    +0.000 C 
ATOM     38  C   UNL     1      10.654  27.824  14.627  0.00  0.00    +0.000 C 
ATOM     39  C   UNL     1      11.794  28.064  13.616  0.00  0.00    +0.000 C 
ATOM     40  C   UNL     1      12.203  29.548  13.668  0.00  0.00    +0.000 C 
ATOM     41  C   UNL     1      13.377  29.864  12.748  0.00  0.00    +0.000 C 
BRANCH  38  42
ATOM     42  N   UNL     1      10.278  26.399  14.654  0.00  0.00    +0.000 NA
ATOM     43  H   UNL     1       9.265  26.305  14.615  0.00  0.00    +0.000 HD
ATOM     44  H   UNL     1      10.562  26.034  15.569  0.00  0.00    +0.000 HD
ENDBRANCH  38  42
BRANCH  39  45
ATOM     45  O   UNL     1      12.891  27.198  13.960  0.00  0.00    +0.000 OA
ATOM     46  H   UNL     1      13.185  26.760  13.143  0.00  0.00    +0.000 HD
ENDBRANCH  39  45
ENDBRANCH  34  36
ENDBRANCH   3  34
TORSDOF 11
ENDMDL
MODEL 2
REMARK VINA RESULT:      -7.2     14.050     17.849
REMARK  Name = 
REMARK  13 active torsions:
REMARK  status: ('A' for Active; 'I' for Inactive)
REMARK    1  A    between atoms: O_1  and  C_13
REMARK    2  A    between atoms: O_1  and  C_19
REMARK    3  A    between atoms: O_3  and  C_14
REMARK    4  A    between atoms: O_4  and  C_22
REMARK    5  A    between atoms: O_5  and  C_24
REMARK    6  A    between atoms: O_6  and  C_26
REMARK    7  A    between atoms: O_8  and  C_30
REMARK    8  A    between atoms: O_11  and  C_35
REMARK    9  A    between atoms: O_11  and  C_39
REMARK   10  A    between atoms: N_12  and  C_21
REMARK   11  A    between atoms: C_14  and  C_25
REMARK   12  A    between atoms: C_23  and  C_29
REMARK   13  A    between atoms: C_25  and  C_30
REMARK                            x       y       z     vdW  Elec       q    Type
REMARK                         _______ _______ _______ _____ _____    ______ ____
ROOT
ATOM      1  O   UNL     1       1.708  18.194   8.774  0.00  0.00    +0.000 OA
ATOM      2  O   UNL     1       5.737  21.353   7.340  0.00  0.00    +0.000 OA
ATOM      3  C   UNL     1       0.213  19.951   4.193  0.00  0.00    +0.000 C 
ATOM      4  C   UNL     1       1.160  21.686   2.607  0.00  0.00    +0.000 C 
ATOM      5  C   UNL     1       0.504  20.305   2.733  0.00  0.00    +0.000 C 
ATOM      6  C   UNL     1       2.484  21.731   3.384  0.00  0.00    +0.000 C 
ATOM      7  C   UNL     1       1.442  20.106   5.067  0.00  0.00    +0.000 A 
ATOM      8  C   UNL     1       2.490  20.973   4.700  0.00  0.00    +0.000 A 
ATOM      9  C   UNL     1       1.524  19.422   6.294  0.00  0.00    +0.000 A 
ATOM     10  C   UNL     1       3.599  21.108   5.555  0.00  0.00    +0.000 A 
ATOM     11  C   UNL     1       2.632  19.571   7.150  0.00  0.00    +0.000 A 
ATOM     12  C   UNL     1       3.671  20.415   6.776  0.00  0.00    +0.000 A 
ATOM     13  C   UNL     1       2.690  18.851   8.442  0.00  0.00    +0.000 C 
ATOM     14  C   UNL     1       4.839  20.579   7.661  0.00  0.00    +0.000 C 
ATOM     15  C   UNL     1       3.894  18.957   9.301  0.00  0.00    +0.000 A 
ATOM     16  C   UNL     1       4.928  19.811   8.915  0.00  0.00    +0.000 A 
ATOM     17  C   UNL     1       4.029  18.235  10.497  0.00  0.00    +0.000 A 
ATOM     18  C   UNL     1       6.078  19.947   9.710  0.00  0.00    +0.000 A 
ATOM     19  C   UNL     1       5.187  18.351  11.275  0.00  0.00    +0.000 A 
ATOM     20  C   UNL     1       6.206  19.216  10.887  0.00  0.00    +0.000 A 
ENDROOT
BRANCH   4  21
ATOM     21  O   UNL     1       0.277  22.709   3.081  0.00  0.00    +0.000 OA
ATOM     22  H   UNL     1      -0.604  22.295   3.203  0.00  0.00    +0.000 HD
ENDBRANCH   4  21
BRANCH   9  23
ATOM     23  O   UNL     1       0.472  18.597   6.617  0.00  0.00    +0.000 OA
ATOM     24  H   UNL     1       0.434  18.505   7.598  0.00  0.00    +0.000 HD
ENDBRANCH   9  23
BRANCH  10  25
ATOM     25  O   UNL     1       4.603  21.945   5.134  0.00  0.00    +0.000 OA
ATOM     26  H   UNL     1       5.405  21.408   4.940  0.00  0.00    +0.000 HD
ENDBRANCH  10  25
BRANCH   4  28
ATOM     27  O   UNL     1       1.090  21.247   0.207  0.00  0.00    +0.000 OA
ATOM     28  C   UNL     1       1.450  21.991   1.127  0.00  0.00    +0.000 C 
BRANCH  28  29
ATOM     29  C   UNL     1       2.234  23.264   0.817  0.00  0.00    +0.000 C 
BRANCH  29  30
ATOM     30  O   UNL     1       1.686  24.388   1.495  0.00  0.00    +0.000 OA
ATOM     31  H   UNL     1       1.159  24.876   0.829  0.00  0.00    +0.000 HD
ENDBRANCH  29  30
ENDBRANCH  28  29
ENDBRANCH   4  28
BRANCH  17  32
ATOM     32  O   UNL     1       3.097  17.315  10.899  0.00  0.00    +0.000 OA
ATOM     33  C   UNL     1       3.729  16.088  11.270  0.00  0.00    +0.000 C 
ENDBRANCH  17  32
BRANCH   3  34
ATOM     34  O   UNL     1      -0.764  20.873   4.705  0.00  0.00    +0.000 OA
BRANCH  34  36
ATOM     35  O   UNL     1      -2.550  22.168   3.881  0.00  0.00    +0.000 OA
ATOM     36  C   UNL     1      -1.972  20.866   3.939  0.00  0.00    +0.000 C 
ATOM     37  C   UNL     1      -2.934  19.832   4.528  0.00  0.00    +0.000 C 
ATOM     38  C   UNL     1      -3.470  20.292   5.885  0.00  0.00    +0.000 C 
ATOM     39  C   UNL     1      -4.087  21.699   5.747  0.00  0.00    +0.000 C 
ATOM     40  C   UNL     1      -3.035  22.648   5.141  0.00  0.00    +0.000 C 
ATOM     41  C   UNL     1      -3.582  24.051   4.902  0.00  0.00    +0.000 C 
BRANCH  38  42
ATOM     42  N   UNL     1      -4.469  19.339   6.402  0.00  0.00    +0.000 NA
ATOM     43  H   UNL     1      -5.218  19.217   5.723  0.00  0.00    +0.000 HD
ATOM     44  H   UNL     1      -4.900  19.776   7.223  0.00  0.00    +0.000 HD
ENDBRANCH  38  42
BRANCH  39  45
ATOM     45  O   UNL     1      -5.256  21.600   4.913  0.00  0.00    +0.000 OA
ATOM     46  H   UNL     1      -5.252  20.717   4.508  0.00  0.00    +0.000 HD
ENDBRANCH  39  45
ENDBRANCH  34  36
ENDBRANCH   3  34
TORSDOF 11
ENDMDL
MODEL 3
REMARK VINA RESULT:      -7.2     16.792     20.929
REMARK  Name = 
REMARK  13 active torsions:
REMARK  status: ('A' for Active; 'I' for Inactive)
REMARK    1  A    between atoms: O_1  and  C_13
REMARK    2  A    between atoms: O_1  and  C_19
REMARK    3  A    between atoms: O_3  and  C_14
REMARK    4  A    between atoms: O_4  and  C_22
REMARK    5  A    between atoms: O_5  and  C_24
REMARK    6  A    between atoms: O_6  and  C_26
REMARK    7  A    between atoms: O_8  and  C_30
REMARK    8  A    between atoms: O_11  and  C_35
REMARK    9  A    between atoms: O_11  and  C_39
REMARK   10  A    between atoms: N_12  and  C_21
REMARK   11  A    between atoms: C_14  and  C_25
REMARK   12  A    between atoms: C_23  and  C_29
REMARK   13  A    between atoms: C_25  and  C_30
REMARK                            x       y       z     vdW  Elec       q    Type
REMARK                         _______ _______ _______ _____ _____    ______ ____
ROOT
ATOM      1  O   UNL     1      16.140  46.836  10.098  0.00  0.00    +0.000 OA
ATOM      2  O   UNL     1      10.851  46.308  10.211  0.00  0.00    +0.000 OA
ATOM      3  C   UNL     1      14.623  51.024  12.642  0.00  0.00    +0.000 C 
ATOM      4  C   UNL     1      12.348  52.017  13.148  0.00  0.00    +0.000 C 
ATOM      5  C   UNL     1      13.749  51.711  13.692  0.00  0.00    +0.000 C 
ATOM      6  C   UNL     1      11.643  50.726  12.706  0.00  0.00    +0.000 C 
ATOM      7  C   UNL     1      13.940  49.810  12.044  0.00  0.00    +0.000 A 
ATOM      8  C   UNL     1      12.536  49.692  12.044  0.00  0.00    +0.000 A 
ATOM      9  C   UNL     1      14.707  48.803  11.428  0.00  0.00    +0.000 A 
ATOM     10  C   UNL     1      11.944  48.562  11.453  0.00  0.00    +0.000 A 
ATOM     11  C   UNL     1      14.105  47.680  10.828  0.00  0.00    +0.000 A 
ATOM     12  C   UNL     1      12.720  47.561  10.845  0.00  0.00    +0.000 A 
ATOM     13  C   UNL     1      14.931  46.641  10.173  0.00  0.00    +0.000 C 
ATOM     14  C   UNL     1      12.076  46.389  10.223  0.00  0.00    +0.000 C 
ATOM     15  C   UNL     1      14.293  45.426   9.612  0.00  0.00    +0.000 A 
ATOM     16  C   UNL     1      12.901  45.321   9.631  0.00  0.00    +0.000 A 
ATOM     17  C   UNL     1      15.038  44.378   9.050  0.00  0.00    +0.000 A 
ATOM     18  C   UNL     1      12.261  44.192   9.096  0.00  0.00    +0.000 A 
ATOM     19  C   UNL     1      14.400  43.241   8.540  0.00  0.00    +0.000 A 
ATOM     20  C   UNL     1      13.011  43.153   8.553  0.00  0.00    +0.000 A 
ENDROOT
BRANCH   4  21
ATOM     21  O   UNL     1      12.423  52.936  12.051  0.00  0.00    +0.000 OA
ATOM     22  H   UNL     1      12.066  52.473  11.263  0.00  0.00    +0.000 HD
ENDBRANCH   4  21
BRANCH   9  23
ATOM     23  O   UNL     1      16.072  48.966  11.439  0.00  0.00    +0.000 OA
ATOM     24  H   UNL     1      16.289  49.770  11.967  0.00  0.00    +0.000 HD
ENDBRANCH   9  23
BRANCH  10  25
ATOM     25  O   UNL     1      10.573  48.486  11.506  0.00  0.00    +0.000 OA
ATOM     26  H   UNL     1      10.196  49.037  10.784  0.00  0.00    +0.000 HD
ENDBRANCH  10  25
BRANCH   4  28
ATOM     27  O   UNL     1      10.755  52.053  14.996  0.00  0.00    +0.000 OA
ATOM     28  C   UNL     1      11.500  52.689  14.242  0.00  0.00    +0.000 C 
BRANCH  28  29
ATOM     29  C   UNL     1      11.589  54.209  14.360  0.00  0.00    +0.000 C 
BRANCH  29  30
ATOM     30  O   UNL     1      10.936  54.851  13.271  0.00  0.00    +0.000 OA
ATOM     31  H   UNL     1      11.143  54.316  12.477  0.00  0.00    +0.000 HD
ENDBRANCH  29  30
ENDBRANCH  28  29
ENDBRANCH   4  28
BRANCH  17  32
ATOM     32  O   UNL     1      16.408  44.368   9.069  0.00  0.00    +0.000 OA
ATOM     33  C   UNL     1      16.923  43.669   7.934  0.00  0.00    +0.000 C 
ENDBRANCH  17  32
BRANCH   3  34
ATOM     34  O   UNL     1      14.842  51.938  11.554  0.00  0.00    +0.000 OA
BRANCH  34  36
ATOM     35  O   UNL     1      15.257  54.256  11.593  0.00  0.00    +0.000 OA
ATOM     36  C   UNL     1      15.782  52.964  11.887  0.00  0.00    +0.000 C 
ATOM     37  C   UNL     1      17.098  52.695  11.154  0.00  0.00    +0.000 C 
ATOM     38  C   UNL     1      16.947  52.935   9.649  0.00  0.00    +0.000 C 
ATOM     39  C   UNL     1      16.385  54.350   9.406  0.00  0.00    +0.000 C 
ATOM     40  C   UNL     1      15.071  54.507  10.194  0.00  0.00    +0.000 C 
ATOM     41  C   UNL     1      14.477  55.906  10.068  0.00  0.00    +0.000 C 
BRANCH  38  42
ATOM     42  N   UNL     1      18.241  52.768   8.963  0.00  0.00    +0.000 NA
ATOM     43  H   UNL     1      18.517  51.788   8.974  0.00  0.00    +0.000 HD
ATOM     44  H   UNL     1      18.941  53.266   9.523  0.00  0.00    +0.000 HD
ENDBRANCH  38  42
BRANCH  39  45
ATOM     45  O   UNL     1      17.374  55.308   9.826  0.00  0.00    +0.000 OA
ATOM     46  H   UNL     1      17.024  56.193   9.633  0.00  0.00    +0.000 HD
ENDBRANCH  39  45
ENDBRANCH  34  36
ENDBRANCH   3  34
TORSDOF 11
ENDMDL
MODEL 4
REMARK VINA RESULT:      -6.7     28.756     32.267
REMARK  Name = 
REMARK  13 active torsions:
REMARK  status: ('A' for Active; 'I' for Inactive)
REMARK    1  A    between atoms: O_1  and  C_13
REMARK    2  A    between atoms: O_1  and  C_19
REMARK    3  A    between atoms: O_3  and  C_14
REMARK    4  A    between atoms: O_4  and  C_22
REMARK    5  A    between atoms: O_5  and  C_24
REMARK    6  A    between atoms: O_6  and  C_26
REMARK    7  A    between atoms: O_8  and  C_30
REMARK    8  A    between atoms: O_11  and  C_35
REMARK    9  A    between atoms: O_11  and  C_39
REMARK   10  A    between atoms: N_12  and  C_21
REMARK   11  A    between atoms: C_14  and  C_25
REMARK   12  A    between atoms: C_23  and  C_29
REMARK   13  A    between atoms: C_25  and  C_30
REMARK                            x       y       z     vdW  Elec       q    Type
REMARK                         _______ _______ _______ _____ _____    ______ ____
ROOT
ATOM      1  O   UNL     1      15.277  62.661   1.988  0.00  0.00    +0.000 OA
ATOM      2  O   UNL     1      11.354  60.773  -1.063  0.00  0.00    +0.000 OA
ATOM      3  C   UNL     1      15.332  57.639   3.027  0.00  0.00    +0.000 C 
ATOM      4  C   UNL     1      13.818  55.715   2.373  0.00  0.00    +0.000 C 
ATOM      5  C   UNL     1      15.267  56.177   2.581  0.00  0.00    +0.000 C 
ATOM      6  C   UNL     1      13.122  56.574   1.308  0.00  0.00    +0.000 C 
ATOM      7  C   UNL     1      14.547  58.547   2.103  0.00  0.00    +0.000 A 
ATOM      8  C   UNL     1      13.484  58.049   1.324  0.00  0.00    +0.000 A 
ATOM      9  C   UNL     1      14.837  59.924   2.054  0.00  0.00    +0.000 A 
ATOM     10  C   UNL     1      12.763  58.934   0.502  0.00  0.00    +0.000 A 
ATOM     11  C   UNL     1      14.104  60.805   1.237  0.00  0.00    +0.000 A 
ATOM     12  C   UNL     1      13.066  60.305   0.459  0.00  0.00    +0.000 A 
ATOM     13  C   UNL     1      14.419  62.251   1.213  0.00  0.00    +0.000 C 
ATOM     14  C   UNL     1      12.291  61.216  -0.404  0.00  0.00    +0.000 C 
ATOM     15  C   UNL     1      13.690  63.157   0.294  0.00  0.00    +0.000 A 
ATOM     16  C   UNL     1      12.648  62.643  -0.480  0.00  0.00    +0.000 A 
ATOM     17  C   UNL     1      14.004  64.521   0.178  0.00  0.00    +0.000 A 
ATOM     18  C   UNL     1      11.926  63.474  -1.352  0.00  0.00    +0.000 A 
ATOM     19  C   UNL     1      13.301  65.342  -0.711  0.00  0.00    +0.000 A 
ATOM     20  C   UNL     1      12.255  64.822  -1.468  0.00  0.00    +0.000 A 
ENDROOT
BRANCH   4  21
ATOM     21  O   UNL     1      13.089  55.774   3.605  0.00  0.00    +0.000 OA
ATOM     22  H   UNL     1      12.969  54.850   3.913  0.00  0.00    +0.000 HD
ENDBRANCH   4  21
BRANCH   9  23
ATOM     23  O   UNL     1      15.874  60.368   2.841  0.00  0.00    +0.000 OA
ATOM     24  H   UNL     1      15.826  59.911   3.714  0.00  0.00    +0.000 HD
ENDBRANCH   9  23
BRANCH  10  25
ATOM     25  O   UNL     1      11.756  58.388  -0.256  0.00  0.00    +0.000 OA
ATOM     26  H   UNL     1      11.972  57.446  -0.442  0.00  0.00    +0.000 HD
ENDBRANCH  10  25
BRANCH   4  28
ATOM     27  O   UNL     1      12.909  53.455   2.230  0.00  0.00    +0.000 OA
ATOM     28  C   UNL     1      13.801  54.248   1.909  0.00  0.00    +0.000 C 
BRANCH  28  29
ATOM     29  C   UNL     1      14.960  53.779   1.032  0.00  0.00    +0.000 C 
BRANCH  29  30
ATOM     30  O   UNL     1      14.736  54.099  -0.336  0.00  0.00    +0.000 OA
ATOM     31  H   UNL     1      14.067  53.460  -0.658  0.00  0.00    +0.000 HD
ENDBRANCH  29  30
ENDBRANCH  28  29
ENDBRANCH   4  28
BRANCH  17  32
ATOM     32  O   UNL     1      15.065  65.081   0.839  0.00  0.00    +0.000 OA
ATOM     33  C   UNL     1      14.620  66.111   1.724  0.00  0.00    +0.000 C 
ENDBRANCH  17  32
BRANCH   3  34
ATOM     34  O   UNL     1      14.719  57.754   4.322  0.00  0.00    +0.000 OA
BRANCH  34  36
ATOM     35  O   UNL     1      15.984  56.968   6.146  0.00  0.00    +0.000 OA
ATOM     36  C   UNL     1      15.662  58.099   5.341  0.00  0.00    +0.000 C 
ATOM     37  C   UNL     1      15.102  59.258   6.170  0.00  0.00    +0.000 C 
ATOM     38  C   UNL     1      13.922  58.798   7.029  0.00  0.00    +0.000 C 
ATOM     39  C   UNL     1      14.343  57.581   7.877  0.00  0.00    +0.000 C 
ATOM     40  C   UNL     1      14.893  56.487   6.942  0.00  0.00    +0.000 C 
ATOM     41  C   UNL     1      15.401  55.268   7.703  0.00  0.00    +0.000 C 
BRANCH  38  42
ATOM     42  N   UNL     1      13.450  59.894   7.896  0.00  0.00    +0.000 NA
ATOM     43  H   UNL     1      13.808  60.785   7.556  0.00  0.00    +0.000 HD
ATOM     44  H   UNL     1      13.878  59.749   8.817  0.00  0.00    +0.000 HD
ENDBRANCH  38  42
BRANCH  39  45
ATOM     45  O   UNL     1      15.333  58.014   8.828  0.00  0.00    +0.000 OA
ATOM     46  H   UNL     1      15.946  58.607   8.362  0.00  0.00    +0.000 HD
ENDBRANCH  39  45
ENDBRANCH  34  36
ENDBRANCH   3  34
TORSDOF 11
ENDMDL
MODEL 5
REMARK VINA RESULT:      -6.7     18.376     23.193
REMARK  Name = 
REMARK  13 active torsions:
REMARK  status: ('A' for Active; 'I' for Inactive)
REMARK    1  A    between atoms: O_1  and  C_13
REMARK    2  A    between atoms: O_1  and  C_19
REMARK    3  A    between atoms: O_3  and  C_14
REMARK    4  A    between atoms: O_4  and  C_22
REMARK    5  A    between atoms: O_5  and  C_24
REMARK    6  A    between atoms: O_6  and  C_26
REMARK    7  A    between atoms: O_8  and  C_30
REMARK    8  A    between atoms: O_11  and  C_35
REMARK    9  A    between atoms: O_11  and  C_39
REMARK   10  A    between atoms: N_12  and  C_21
REMARK   11  A    between atoms: C_14  and  C_25
REMARK   12  A    between atoms: C_23  and  C_29
REMARK   13  A    between atoms: C_25  and  C_30
REMARK                            x       y       z     vdW  Elec       q    Type
REMARK                         _______ _______ _______ _____ _____    ______ ____
ROOT
ATOM      1  O   UNL     1      -8.375  40.842  15.171  0.00  0.00    +0.000 OA
ATOM      2  O   UNL     1      -7.227  43.425  10.667  0.00  0.00    +0.000 OA
ATOM      3  C   UNL     1     -12.050  39.251  11.966  0.00  0.00    +0.000 C 
ATOM      4  C   UNL     1     -12.710  39.920   9.613  0.00  0.00    +0.000 C 
ATOM      5  C   UNL     1     -12.510  38.757  10.594  0.00  0.00    +0.000 C 
ATOM      6  C   UNL     1     -11.404  40.706   9.429  0.00  0.00    +0.000 C 
ATOM      7  C   UNL     1     -10.839  40.156  11.864  0.00  0.00    +0.000 A 
ATOM      8  C   UNL     1     -10.560  40.867  10.681  0.00  0.00    +0.000 A 
ATOM      9  C   UNL     1     -10.002  40.341  12.982  0.00  0.00    +0.000 A 
ATOM     10  C   UNL     1      -9.441  41.718  10.640  0.00  0.00    +0.000 A 
ATOM     11  C   UNL     1      -8.890  41.204  12.936  0.00  0.00    +0.000 A 
ATOM     12  C   UNL     1      -8.611  41.891  11.761  0.00  0.00    +0.000 A 
ATOM     13  C   UNL     1      -8.033  41.393  14.128  0.00  0.00    +0.000 C 
ATOM     14  C   UNL     1      -7.448  42.795  11.698  0.00  0.00    +0.000 C 
ATOM     15  C   UNL     1      -6.823  42.244  14.048  0.00  0.00    +0.000 A 
ATOM     16  C   UNL     1      -6.555  42.932  12.862  0.00  0.00    +0.000 A 
ATOM     17  C   UNL     1      -5.937  42.395  15.126  0.00  0.00    +0.000 A 
ATOM     18  C   UNL     1      -5.425  43.759  12.754  0.00  0.00    +0.000 A 
ATOM     19  C   UNL     1      -4.797  43.198  15.007  0.00  0.00    +0.000 A 
ATOM     20  C   UNL     1      -4.547  43.889  13.825  0.00  0.00    +0.000 A 
ENDROOT
BRANCH   4  21
ATOM     21  O   UNL     1     -13.747  40.795  10.074  0.00  0.00    +0.000 OA
ATOM     22  H   UNL     1     -14.586  40.484   9.672  0.00  0.00    +0.000 HD
ENDBRANCH   4  21
BRANCH   9  23
ATOM     23  O   UNL     1     -10.320  39.638  14.120  0.00  0.00    +0.000 OA
ATOM     24  H   UNL     1      -9.487  39.303  14.527  0.00  0.00    +0.000 HD
ENDBRANCH   9  23
BRANCH  10  25
ATOM     25  O   UNL     1      -9.201  42.364   9.452  0.00  0.00    +0.000 OA
ATOM     26  H   UNL     1      -8.448  41.923   8.996  0.00  0.00    +0.000 HD
ENDBRANCH  10  25
BRANCH   4  28
ATOM     27  O   UNL     1     -13.014  38.193   7.917  0.00  0.00    +0.000 OA
ATOM     28  C   UNL     1     -13.154  39.377   8.244  0.00  0.00    +0.000 C 
BRANCH  28  29
ATOM     29  C   UNL     1     -13.770  40.373   7.264  0.00  0.00    +0.000 C 
BRANCH  29  30
ATOM     30  O   UNL     1     -13.076  40.371   6.021  0.00  0.00    +0.000 OA
ATOM     31  H   UNL     1     -12.172  40.050   6.216  0.00  0.00    +0.000 HD
ENDBRANCH  29  30
ENDBRANCH  28  29
ENDBRANCH   4  28
BRANCH  17  32
ATOM     32  O   UNL     1      -6.084  41.690  16.291  0.00  0.00    +0.000 OA
ATOM     33  C   UNL     1      -5.280  42.256  17.328  0.00  0.00    +0.000 C 
ENDBRANCH  17  32
BRANCH   3  34
ATOM     34  O   UNL     1     -13.099  40.045  12.546  0.00  0.00    +0.000 OA
BRANCH  34  36
ATOM     35  O   UNL     1     -14.853  38.566  13.077  0.00  0.00    +0.000 OA
ATOM     36  C   UNL     1     -13.785  39.357  13.595  0.00  0.00    +0.000 C 
ATOM     37  C   UNL     1     -14.270  40.375  14.630  0.00  0.00    +0.000 C 
ATOM     38  C   UNL     1     -15.409  41.229  14.068  0.00  0.00    +0.000 C 
ATOM     39  C   UNL     1     -16.528  40.312  13.535  0.00  0.00    +0.000 C 
ATOM     40  C   UNL     1     -15.925  39.331  12.512  0.00  0.00    +0.000 C 
ATOM     41  C   UNL     1     -16.950  38.335  11.982  0.00  0.00    +0.000 C 
BRANCH  38  42
ATOM     42  N   UNL     1     -15.935  42.141  15.100  0.00  0.00    +0.000 NA
ATOM     43  H   UNL     1     -16.837  41.806  15.433  0.00  0.00    +0.000 HD
ATOM     44  H   UNL     1     -16.119  43.038  14.638  0.00  0.00    +0.000 HD
ENDBRANCH  38  42
BRANCH  39  45
ATOM     45  O   UNL     1     -17.116  39.620  14.652  0.00  0.00    +0.000 OA
ATOM     46  H   UNL     1     -17.670  38.906  14.295  0.00  0.00    +0.000 HD
ENDBRANCH  39  45
ENDBRANCH  34  36
ENDBRANCH   3  34
TORSDOF 11
ENDMDL
MODEL 6
REMARK VINA RESULT:      -6.6     18.126     23.145
REMARK  Name = 
REMARK  13 active torsions:
REMARK  status: ('A' for Active; 'I' for Inactive)
REMARK    1  A    between atoms: O_1  and  C_13
REMARK    2  A    between atoms: O_1  and  C_19
REMARK    3  A    between atoms: O_3  and  C_14
REMARK    4  A    between atoms: O_4  and  C_22
REMARK    5  A    between atoms: O_5  and  C_24
REMARK    6  A    between atoms: O_6  and  C_26
REMARK    7  A    between atoms: O_8  and  C_30
REMARK    8  A    between atoms: O_11  and  C_35
REMARK    9  A    between atoms: O_11  and  C_39
REMARK   10  A    between atoms: N_12  and  C_21
REMARK   11  A    between atoms: C_14  and  C_25
REMARK   12  A    between atoms: C_23  and  C_29
REMARK   13  A    between atoms: C_25  and  C_30
REMARK                            x       y       z     vdW  Elec       q    Type
REMARK                         _______ _______ _______ _____ _____    ______ ____
ROOT
ATOM      1  O   UNL     1      -9.528  40.943  17.412  0.00  0.00    +0.000 OA
ATOM      2  O   UNL     1      -6.305  41.487  13.219  0.00  0.00    +0.000 OA
ATOM      3  C   UNL     1     -12.512  39.542  13.482  0.00  0.00    +0.000 C 
ATOM      4  C   UNL     1     -12.200  39.579  10.968  0.00  0.00    +0.000 C 
ATOM      5  C   UNL     1     -12.734  38.789  12.170  0.00  0.00    +0.000 C 
ATOM      6  C   UNL     1     -10.696  39.849  11.119  0.00  0.00    +0.000 C 
ATOM      7  C   UNL     1     -11.069  39.974  13.649  0.00  0.00    +0.000 A 
ATOM      8  C   UNL     1     -10.229  40.152  12.532  0.00  0.00    +0.000 A 
ATOM      9  C   UNL     1     -10.563  40.258  14.931  0.00  0.00    +0.000 A 
ATOM     10  C   UNL     1      -8.905  40.582  12.732  0.00  0.00    +0.000 A 
ATOM     11  C   UNL     1      -9.238  40.699  15.122  0.00  0.00    +0.000 A 
ATOM     12  C   UNL     1      -8.410  40.858  14.017  0.00  0.00    +0.000 A 
ATOM     13  C   UNL     1      -8.733  41.004  16.479  0.00  0.00    +0.000 C 
ATOM     14  C   UNL     1      -7.020  41.316  14.202  0.00  0.00    +0.000 C 
ATOM     15  C   UNL     1      -7.317  41.395  16.676  0.00  0.00    +0.000 A 
ATOM     16  C   UNL     1      -6.496  41.555  15.558  0.00  0.00    +0.000 A 
ATOM     17  C   UNL     1      -6.770  41.621  17.949  0.00  0.00    +0.000 A 
ATOM     18  C   UNL     1      -5.153  41.937  15.704  0.00  0.00    +0.000 A 
ATOM     19  C   UNL     1      -5.424  41.976  18.095  0.00  0.00    +0.000 A 
ATOM     20  C   UNL     1      -4.618  42.145  16.972  0.00  0.00    +0.000 A 
ENDROOT
BRANCH   4  21
ATOM     21  O   UNL     1     -12.909  40.817  10.825  0.00  0.00    +0.000 OA
ATOM     22  H   UNL     1     -12.629  41.396  11.566  0.00  0.00    +0.000 HD
ENDBRANCH   4  21
BRANCH   9  23
ATOM     23  O   UNL     1     -11.421  40.083  15.991  0.00  0.00    +0.000 OA
ATOM     24  H   UNL     1     -10.960  39.558  16.687  0.00  0.00    +0.000 HD
ENDBRANCH   9  23
BRANCH  10  25
ATOM     25  O   UNL     1      -8.124  40.712  11.609  0.00  0.00    +0.000 OA
ATOM     26  H   UNL     1      -8.253  39.921  11.038  0.00  0.00    +0.000 HD
ENDBRANCH  10  25
BRANCH   4  28
ATOM     27  O   UNL     1     -11.760  37.779   9.381  0.00  0.00    +0.000 OA
ATOM     28  C   UNL     1     -12.428  38.778   9.675  0.00  0.00    +0.000 C 
BRANCH  28  29
ATOM     29  C   UNL     1     -13.516  39.275   8.726  0.00  0.00    +0.000 C 
BRANCH  29  30
ATOM     30  O   UNL     1     -14.802  39.204   9.332  0.00  0.00    +0.000 OA
ATOM     31  H   UNL     1     -15.096  40.130   9.453  0.00  0.00    +0.000 HD
ENDBRANCH  29  30
ENDBRANCH  28  29
ENDBRANCH   4  28
BRANCH  17  32
ATOM     32  O   UNL     1      -7.485  41.403  19.096  0.00  0.00    +0.000 OA
ATOM     33  C   UNL     1      -7.542  42.592  19.887  0.00  0.00    +0.000 C 
ENDBRANCH  17  32
BRANCH   3  34
ATOM     34  O   UNL     1     -13.293  40.749  13.459  0.00  0.00    +0.000 OA
BRANCH  34  36
ATOM     35  O   UNL     1     -15.359  39.886  14.189  0.00  0.00    +0.000 OA
ATOM     36  C   UNL     1     -14.285  40.775  14.489  0.00  0.00    +0.000 C 
ATOM     37  C   UNL     1     -14.765  42.214  14.688  0.00  0.00    +0.000 C 
ATOM     38  C   UNL     1     -15.596  42.686  13.492  0.00  0.00    +0.000 C 
ATOM     39  C   UNL     1     -16.740  41.685  13.230  0.00  0.00    +0.000 C 
ATOM     40  C   UNL     1     -16.141  40.277  13.053  0.00  0.00    +0.000 C 
ATOM     41  C   UNL     1     -17.210  39.207  12.860  0.00  0.00    +0.000 C 
BRANCH  38  42
ATOM     42  N   UNL     1     -16.135  44.036  13.732  0.00  0.00    +0.000 NA
ATOM     43  H   UNL     1     -16.834  44.006  14.472  0.00  0.00    +0.000 HD
ATOM     44  H   UNL     1     -16.636  44.312  12.880  0.00  0.00    +0.000 HD
ENDBRANCH  38  42
BRANCH  39  45
ATOM     45  O   UNL     1     -17.650  41.739  14.344  0.00  0.00    +0.000 OA
ATOM     46  H   UNL     1     -17.244  41.248  15.078  0.00  0.00    +0.000 HD
ENDBRANCH  39  45
ENDBRANCH  34  36
ENDBRANCH   3  34
TORSDOF 11
ENDMDL
MODEL 7
REMARK VINA RESULT:      -6.5     34.742     37.102
REMARK  Name = 
REMARK  13 active torsions:
REMARK  status: ('A' for Active; 'I' for Inactive)
REMARK    1  A    between atoms: O_1  and  C_13
REMARK    2  A    between atoms: O_1  and  C_19
REMARK    3  A    between atoms: O_3  and  C_14
REMARK    4  A    between atoms: O_4  and  C_22
REMARK    5  A    between atoms: O_5  and  C_24
REMARK    6  A    between atoms: O_6  and  C_26
REMARK    7  A    between atoms: O_8  and  C_30
REMARK    8  A    between atoms: O_11  and  C_35
REMARK    9  A    between atoms: O_11  and  C_39
REMARK   10  A    between atoms: N_12  and  C_21
REMARK   11  A    between atoms: C_14  and  C_25
REMARK   12  A    between atoms: C_23  and  C_29
REMARK   13  A    between atoms: C_25  and  C_30
REMARK                            x       y       z     vdW  Elec       q    Type
REMARK                         _______ _______ _______ _____ _____    ______ ____
ROOT
ATOM      1  O   UNL     1       0.450  62.248  -8.019  0.00  0.00    +0.000 OA
ATOM      2  O   UNL     1      -0.995  57.257  -6.892  0.00  0.00    +0.000 OA
ATOM      3  C   UNL     1       4.941  59.783  -7.766  0.00  0.00    +0.000 C 
ATOM      4  C   UNL     1       5.592  57.428  -7.093  0.00  0.00    +0.000 C 
ATOM      5  C   UNL     1       5.827  58.577  -8.083  0.00  0.00    +0.000 C 
ATOM      6  C   UNL     1       4.127  56.971  -7.132  0.00  0.00    +0.000 C 
ATOM      7  C   UNL     1       3.481  59.394  -7.645  0.00  0.00    +0.000 A 
ATOM      8  C   UNL     1       3.104  58.079  -7.310  0.00  0.00    +0.000 A 
ATOM      9  C   UNL     1       2.477  60.366  -7.813  0.00  0.00    +0.000 A 
ATOM     10  C   UNL     1       1.738  57.769  -7.180  0.00  0.00    +0.000 A 
ATOM     11  C   UNL     1       1.112  60.051  -7.670  0.00  0.00    +0.000 A 
ATOM     12  C   UNL     1       0.745  58.748  -7.355  0.00  0.00    +0.000 A 
ATOM     13  C   UNL     1       0.075  61.094  -7.838  0.00  0.00    +0.000 C 
ATOM     14  C   UNL     1      -0.681  58.402  -7.205  0.00  0.00    +0.000 C 
ATOM     15  C   UNL     1      -1.361  60.736  -7.760  0.00  0.00    +0.000 A 
ATOM     16  C   UNL     1      -1.717  59.424  -7.438  0.00  0.00    +0.000 A 
ATOM     17  C   UNL     1      -2.382  61.672  -7.987  0.00  0.00    +0.000 A 
ATOM     18  C   UNL     1      -3.067  59.051  -7.342  0.00  0.00    +0.000 A 
ATOM     19  C   UNL     1      -3.728  61.292  -7.916  0.00  0.00    +0.000 A 
ATOM     20  C   UNL     1      -4.070  59.985  -7.582  0.00  0.00    +0.000 A 
ENDROOT
BRANCH   4  21
ATOM     21  O   UNL     1       5.946  57.828  -5.763  0.00  0.00    +0.000 OA
ATOM     22  H   UNL     1       5.724  57.080  -5.169  0.00  0.00    +0.000 HD
ENDBRANCH   4  21
BRANCH   9  23
ATOM     23  O   UNL     1       2.891  61.640  -8.126  0.00  0.00    +0.000 OA
ATOM     24  H   UNL     1       2.920  61.730  -9.108  0.00  0.00    +0.000 HD
ENDBRANCH   9  23
BRANCH  10  25
ATOM     25  O   UNL     1       1.428  56.465  -6.880  0.00  0.00    +0.000 OA
ATOM     26  H   UNL     1       0.646  56.193  -7.412  0.00  0.00    +0.000 HD
ENDBRANCH  10  25
BRANCH   4  28
ATOM     27  O   UNL     1       6.034  55.139  -7.811  0.00  0.00    +0.000 OA
ATOM     28  C   UNL     1       6.489  56.233  -7.459  0.00  0.00    +0.000 C 
BRANCH  28  29
ATOM     29  C   UNL     1       7.999  56.435  -7.353  0.00  0.00    +0.000 C 
BRANCH  29  30
ATOM     30  O   UNL     1       8.409  56.568  -5.997  0.00  0.00    +0.000 OA
ATOM     31  H   UNL     1       8.612  55.662  -5.685  0.00  0.00    +0.000 HD
ENDBRANCH  29  30
ENDBRANCH  28  29
ENDBRANCH   4  28
BRANCH  17  32
ATOM     32  O   UNL     1      -2.116  62.954  -8.388  0.00  0.00    +0.000 OA
ATOM     33  C   UNL     1      -2.690  63.896  -7.479  0.00  0.00    +0.000 C 
ENDBRANCH  17  32
BRANCH   3  34
ATOM     34  O   UNL     1       5.323  60.314  -6.486  0.00  0.00    +0.000 OA
BRANCH  34  36
ATOM     35  O   UNL     1       7.307  61.583  -6.463  0.00  0.00    +0.000 OA
ATOM     36  C   UNL     1       5.888  61.624  -6.589  0.00  0.00    +0.000 C 
ATOM     37  C   UNL     1       5.241  62.532  -5.541  0.00  0.00    +0.000 C 
ATOM     38  C   UNL     1       5.690  62.147  -4.129  0.00  0.00    +0.000 C 
ATOM     39  C   UNL     1       7.230  62.130  -4.063  0.00  0.00    +0.000 C 
ATOM     40  C   UNL     1       7.767  61.194  -5.162  0.00  0.00    +0.000 C 
ATOM     41  C   UNL     1       9.290  61.169  -5.218  0.00  0.00    +0.000 C 
BRANCH  38  42
ATOM     42  N   UNL     1       5.140  63.085  -3.133  0.00  0.00    +0.000 NA
ATOM     43  H   UNL     1       5.793  63.851  -2.978  0.00  0.00    +0.000 HD
ATOM     44  H   UNL     1       5.084  62.575  -2.245  0.00  0.00    +0.000 HD
ENDBRANCH  38  42
BRANCH  39  45
ATOM     45  O   UNL     1       7.704  63.479  -4.236  0.00  0.00    +0.000 OA
ATOM     46  H   UNL     1       8.675  63.445  -4.275  0.00  0.00    +0.000 HD
ENDBRANCH  39  45
ENDBRANCH  34  36
ENDBRANCH   3  34
TORSDOF 11
ENDMDL
MODEL 8
REMARK VINA RESULT:      -6.4     34.747     36.735
REMARK  Name = 
REMARK  13 active torsions:
REMARK  status: ('A' for Active; 'I' for Inactive)
REMARK    1  A    between atoms: O_1  and  C_13
REMARK    2  A    between atoms: O_1  and  C_19
REMARK    3  A    between atoms: O_3  and  C_14
REMARK    4  A    between atoms: O_4  and  C_22
REMARK    5  A    between atoms: O_5  and  C_24
REMARK    6  A    between atoms: O_6  and  C_26
REMARK    7  A    between atoms: O_8  and  C_30
REMARK    8  A    between atoms: O_11  and  C_35
REMARK    9  A    between atoms: O_11  and  C_39
REMARK   10  A    between atoms: N_12  and  C_21
REMARK   11  A    between atoms: C_14  and  C_25
REMARK   12  A    between atoms: C_23  and  C_29
REMARK   13  A    between atoms: C_25  and  C_30
REMARK                            x       y       z     vdW  Elec       q    Type
REMARK                         _______ _______ _______ _____ _____    ______ ____
ROOT
ATOM      1  O   UNL     1       7.227  56.437 -10.711  0.00  0.00    +0.000 OA
ATOM      2  O   UNL     1      10.801  57.692  -6.980  0.00  0.00    +0.000 OA
ATOM      3  C   UNL     1       4.904  60.204  -8.118  0.00  0.00    +0.000 C 
ATOM      4  C   UNL     1       5.487  61.469  -6.001  0.00  0.00    +0.000 C 
ATOM      5  C   UNL     1       4.929  61.568  -7.427  0.00  0.00    +0.000 C 
ATOM      6  C   UNL     1       6.918  60.912  -6.016  0.00  0.00    +0.000 C 
ATOM      7  C   UNL     1       6.253  59.514  -8.055  0.00  0.00    +0.000 A 
ATOM      8  C   UNL     1       7.181  59.825  -7.043  0.00  0.00    +0.000 A 
ATOM      9  C   UNL     1       6.572  58.507  -8.985  0.00  0.00    +0.000 A 
ATOM     10  C   UNL     1       8.409  59.140  -7.006  0.00  0.00    +0.000 A 
ATOM     11  C   UNL     1       7.799  57.818  -8.935  0.00  0.00    +0.000 A 
ATOM     12  C   UNL     1       8.718  58.139  -7.943  0.00  0.00    +0.000 A 
ATOM     13  C   UNL     1       8.107  56.752  -9.915  0.00  0.00    +0.000 C 
ATOM     14  C   UNL     1      10.009  57.427  -7.879  0.00  0.00    +0.000 C 
ATOM     15  C   UNL     1       9.430  56.085  -9.900  0.00  0.00    +0.000 A 
ATOM     16  C   UNL     1      10.344  56.414  -8.896  0.00  0.00    +0.000 A 
ATOM     17  C   UNL     1       9.798  55.124 -10.854  0.00  0.00    +0.000 A 
ATOM     18  C   UNL     1      11.602  55.793  -8.841  0.00  0.00    +0.000 A 
ATOM     19  C   UNL     1      11.063  54.526 -10.814  0.00  0.00    +0.000 A 
ATOM     20  C   UNL     1      11.960  54.852  -9.801  0.00  0.00    +0.000 A 
ENDROOT
BRANCH   4  21
ATOM     21  O   UNL     1       4.646  60.641  -5.187  0.00  0.00    +0.000 OA
ATOM     22  H   UNL     1       5.151  60.431  -4.373  0.00  0.00    +0.000 HD
ENDBRANCH   4  21
BRANCH   9  23
ATOM     23  O   UNL     1       5.630  58.228  -9.947  0.00  0.00    +0.000 OA
ATOM     24  H   UNL     1       4.750  58.136  -9.511  0.00  0.00    +0.000 HD
ENDBRANCH   9  23
BRANCH  10  25
ATOM     25  O   UNL     1       9.288  59.502  -6.014  0.00  0.00    +0.000 OA
ATOM     26  H   UNL     1       8.802  60.022  -5.334  0.00  0.00    +0.000 HD
ENDBRANCH  10  25
BRANCH   4  28
ATOM     27  O   UNL     1       5.108  63.878  -5.933  0.00  0.00    +0.000 OA
ATOM     28  C   UNL     1       5.510  62.863  -5.352  0.00  0.00    +0.000 C 
BRANCH  28  29
ATOM     29  C   UNL     1       6.079  62.967  -3.939  0.00  0.00    +0.000 C 
BRANCH  29  30
ATOM     30  O   UNL     1       5.078  62.721  -2.959  0.00  0.00    +0.000 OA
ATOM     31  H   UNL     1       4.219  62.885  -3.401  0.00  0.00    +0.000 HD
ENDBRANCH  29  30
ENDBRANCH  28  29
ENDBRANCH   4  28
BRANCH  17  32
ATOM     32  O   UNL     1       8.993  54.810 -11.916  0.00  0.00    +0.000 OA
ATOM     33  C   UNL     1       8.750  53.402 -11.965  0.00  0.00    +0.000 C 
ENDBRANCH  17  32
BRANCH   3  34
ATOM     34  O   UNL     1       3.983  59.349  -7.420  0.00  0.00    +0.000 OA
BRANCH  34  36
ATOM     35  O   UNL     1       1.648  59.661  -7.406  0.00  0.00    +0.000 OA
ATOM     36  C   UNL     1       2.762  59.161  -8.142  0.00  0.00    +0.000 C 
ATOM     37  C   UNL     1       2.608  57.678  -8.487  0.00  0.00    +0.000 C 
ATOM     38  C   UNL     1       2.318  56.850  -7.233  0.00  0.00    +0.000 C 
ATOM     39  C   UNL     1       1.100  57.440  -6.494  0.00  0.00    +0.000 C 
ATOM     40  C   UNL     1       1.365  58.930  -6.206  0.00  0.00    +0.000 C 
ATOM     41  C   UNL     1       0.180  59.616  -5.537  0.00  0.00    +0.000 C 
BRANCH  38  42
ATOM     42  N   UNL     1       2.075  55.439  -7.585  0.00  0.00    +0.000 NA
ATOM     43  H   UNL     1       1.481  55.002  -6.883  0.00  0.00    +0.000 HD
ATOM     44  H   UNL     1       2.980  54.959  -7.530  0.00  0.00    +0.000 HD
ENDBRANCH  38  42
BRANCH  39  45
ATOM     45  O   UNL     1      -0.063  57.258  -7.323  0.00  0.00    +0.000 OA
ATOM     46  H   UNL     1      -0.330  56.326  -7.250  0.00  0.00    +0.000 HD
ENDBRANCH  39  45
ENDBRANCH  34  36
ENDBRANCH   3  34
TORSDOF 11
ENDMDL
MODEL 9
REMARK VINA RESULT:      -6.3     29.334     32.954
REMARK  Name = 
REMARK  13 active torsions:
REMARK  status: ('A' for Active; 'I' for Inactive)
REMARK    1  A    between atoms: O_1  and  C_13
REMARK    2  A    between atoms: O_1  and  C_19
REMARK    3  A    between atoms: O_3  and  C_14
REMARK    4  A    between atoms: O_4  and  C_22
REMARK    5  A    between atoms: O_5  and  C_24
REMARK    6  A    between atoms: O_6  and  C_26
REMARK    7  A    between atoms: O_8  and  C_30
REMARK    8  A    between atoms: O_11  and  C_35
REMARK    9  A    between atoms: O_11  and  C_39
REMARK   10  A    between atoms: N_12  and  C_21
REMARK   11  A    between atoms: C_14  and  C_25
REMARK   12  A    between atoms: C_23  and  C_29
REMARK   13  A    between atoms: C_25  and  C_30
REMARK                            x       y       z     vdW  Elec       q    Type
REMARK                         _______ _______ _______ _____ _____    ______ ____
ROOT
ATOM      1  O   UNL     1       1.992  63.119  14.555  0.00  0.00    +0.000 OA
ATOM      2  O   UNL     1      -0.441  58.748  16.358  0.00  0.00    +0.000 OA
ATOM      3  C   UNL     1      -2.493  63.192  12.066  0.00  0.00    +0.000 C 
ATOM      4  C   UNL     1      -4.416  61.550  11.907  0.00  0.00    +0.000 C 
ATOM      5  C   UNL     1      -4.013  63.024  12.038  0.00  0.00    +0.000 C 
ATOM      6  C   UNL     1      -3.863  60.730  13.082  0.00  0.00    +0.000 C 
ATOM      7  C   UNL     1      -1.846  62.305  13.111  0.00  0.00    +0.000 A 
ATOM      8  C   UNL     1      -2.478  61.128  13.558  0.00  0.00    +0.000 A 
ATOM      9  C   UNL     1      -0.568  62.622  13.610  0.00  0.00    +0.000 A 
ATOM     10  C   UNL     1      -1.828  60.320  14.508  0.00  0.00    +0.000 A 
ATOM     11  C   UNL     1       0.081  61.801  14.553  0.00  0.00    +0.000 A 
ATOM     12  C   UNL     1      -0.554  60.649  15.002  0.00  0.00    +0.000 A 
ATOM     13  C   UNL     1       1.430  62.147  15.052  0.00  0.00    +0.000 C 
ATOM     14  C   UNL     1       0.112  59.781  15.991  0.00  0.00    +0.000 C 
ATOM     15  C   UNL     1       2.073  61.318  16.100  0.00  0.00    +0.000 A 
ATOM     16  C   UNL     1       1.426  60.161  16.540  0.00  0.00    +0.000 A 
ATOM     17  C   UNL     1       3.317  61.647  16.661  0.00  0.00    +0.000 A 
ATOM     18  C   UNL     1       2.010  59.343  17.520  0.00  0.00    +0.000 A 
ATOM     19  C   UNL     1       3.885  60.844  17.657  0.00  0.00    +0.000 A 
ATOM     20  C   UNL     1       3.237  59.687  18.079  0.00  0.00    +0.000 A 
ENDROOT
BRANCH   4  21
ATOM     21  O   UNL     1      -3.946  61.007  10.666  0.00  0.00    +0.000 OA
ATOM     22  H   UNL     1      -3.051  60.642  10.832  0.00  0.00    +0.000 HD
ENDBRANCH   4  21
BRANCH   9  23
ATOM     23  O   UNL     1       0.017  63.772  13.136  0.00  0.00    +0.000 OA
ATOM     24  H   UNL     1      -0.321  63.946  12.226  0.00  0.00    +0.000 HD
ENDBRANCH   9  23
BRANCH  10  25
ATOM     25  O   UNL     1      -2.503  59.200  14.929  0.00  0.00    +0.000 OA
ATOM     26  H   UNL     1      -2.535  59.198  15.912  0.00  0.00    +0.000 HD
ENDBRANCH  10  25
BRANCH   4  28
ATOM     27  O   UNL     1      -6.698  62.406  11.806  0.00  0.00    +0.000 OA
ATOM     28  C   UNL     1      -5.949  61.427  11.901  0.00  0.00    +0.000 C 
BRANCH  28  29
ATOM     29  C   UNL     1      -6.538  60.026  12.039  0.00  0.00    +0.000 C 
BRANCH  29  30
ATOM     30  O   UNL     1      -6.252  59.228  10.897  0.00  0.00    +0.000 OA
ATOM     31  H   UNL     1      -5.546  59.699  10.407  0.00  0.00    +0.000 HD
ENDBRANCH  29  30
ENDBRANCH  28  29
ENDBRANCH   4  28
BRANCH  17  32
ATOM     32  O   UNL     1       3.973  62.806  16.343  0.00  0.00    +0.000 OA
ATOM     33  C   UNL     1       5.386  62.595  16.321  0.00  0.00    +0.000 C 
ENDBRANCH  17  32
BRANCH   3  34
ATOM     34  O   UNL     1      -1.959  62.775  10.798  0.00  0.00    +0.000 OA
BRANCH  34  36
ATOM     35  O   UNL     1      -2.787  63.217   8.638  0.00  0.00    +0.000 OA
ATOM     36  C   UNL     1      -2.136  63.766   9.782  0.00  0.00    +0.000 C 
ATOM     37  C   UNL     1      -0.777  64.377   9.434  0.00  0.00    +0.000 C 
ATOM     38  C   UNL     1       0.103  63.371   8.689  0.00  0.00    +0.000 C 
ATOM     39  C   UNL     1      -0.658  62.826   7.464  0.00  0.00    +0.000 C 
ATOM     40  C   UNL     1      -2.006  62.245   7.932  0.00  0.00    +0.000 C 
ATOM     41  C   UNL     1      -2.861  61.744   6.773  0.00  0.00    +0.000 C 
BRANCH  38  42
ATOM     42  N   UNL     1       1.372  63.995   8.273  0.00  0.00    +0.000 NA
ATOM     43  H   UNL     1       1.456  64.922   8.686  0.00  0.00    +0.000 HD
ATOM     44  H   UNL     1       1.313  64.142   7.260  0.00  0.00    +0.000 HD
ENDBRANCH  38  42
BRANCH  39  45
ATOM     45  O   UNL     1      -0.841  63.905   6.529  0.00  0.00    +0.000 OA
ATOM     46  H   UNL     1      -1.756  63.859   6.205  0.00  0.00    +0.000 HD
ENDBRANCH  39  45
ENDBRANCH  34  36
ENDBRANCH   3  34
TORSDOF 11
ENDMDL
