MODEL 1
REMARK VINA RESULT:      -6.6      0.000      0.000
REMARK  Name = Dronabinol.pdbqt.pdb
REMARK  3 active torsions:
REMARK  status: ('A' for Active; 'I' for Inactive)
REMARK    1  A    between atoms: C_13  and  O_18
REMARK    2  A    between atoms: C_16  and  C_20
REMARK    3  A    between atoms: C_21  and  C_22
REMARK                            x       y       z     vdW  Elec       q    Type
REMARK                         _______ _______ _______ _____ _____    ______ ____
ROOT
ATOM      1  O   UNL     1       0.704  61.488  -5.666  0.00  0.00    +0.000 OA
ATOM      2  C   UNL     1      -1.751  61.319  -5.806  0.00  0.00    +0.000 A 
ATOM      3  C   UNL     1      -1.569  59.991  -6.442  0.00  0.00    +0.000 A 
ATOM      4  C   UNL     1      -0.561  61.928  -5.117  0.00  0.00    +0.000 C 
ATOM      5  C   UNL     1      -3.132  61.724  -5.757  0.00  0.00    +0.000 A 
ATOM      6  C   UNL     1      -0.243  59.380  -6.497  0.00  0.00    +0.000 A 
ATOM      7  C   UNL     1      -4.304  60.907  -6.333  0.00  0.00    +0.000 A 
ATOM      8  C   UNL     1      -2.811  59.419  -6.915  0.00  0.00    +0.000 A 
ATOM      9  C   UNL     1      -4.102  59.642  -6.979  0.00  0.00    +0.000 A 
ATOM     10  C   UNL     1       0.831  60.189  -6.092  0.00  0.00    +0.000 A 
ATOM     11  C   UNL     1      -0.594  63.470  -5.302  0.00  0.00    +0.000 C 
ATOM     12  C   UNL     1      -0.595  61.565  -3.603  0.00  0.00    +0.000 C 
ATOM     13  C   UNL     1       0.032  58.078  -6.933  0.00  0.00    +0.000 A 
ATOM     14  C   UNL     1       2.142  59.714  -6.160  0.00  0.00    +0.000 A 
ATOM     15  C   UNL     1      -4.876  59.292  -8.210  0.00  0.00    +0.000 C 
ATOM     16  C   UNL     1       2.395  58.419  -6.596  0.00  0.00    +0.000 A 
ATOM     17  C   UNL     1       1.342  57.597  -6.981  0.00  0.00    +0.000 A 
ENDROOT
BRANCH  13  18
ATOM     18  O   UNL     1      -0.982  57.246  -7.315  0.00  0.00    +0.000 OA
ATOM     19  H   UNL     1      -1.060  57.258  -8.286  0.00  0.00    +0.000 HD
ENDBRANCH  13  18
BRANCH  16  20
ATOM     20  C   UNL     1       3.732  57.930  -6.638  0.00  0.00    +0.000 C 
ATOM     21  C   UNL     1       5.176  57.417  -6.682  0.00  0.00    +0.000 C 
BRANCH  21  22
ATOM     22  C   UNL     1       6.621  56.914  -6.721  0.00  0.00    +0.000 C 
ATOM     23  C   UNL     1       8.069  56.415  -6.764  0.00  0.00    +0.000 C 
ATOM     24  C   UNL     1       9.518  55.918  -6.806  0.00  0.00    +0.000 C 
ENDBRANCH  21  22
ENDBRANCH  16  20
TORSDOF 3
ENDMDL
MODEL 2
REMARK VINA RESULT:      -6.3     14.077     17.210
REMARK  Name = Dronabinol.pdbqt.pdb
REMARK  3 active torsions:
REMARK  status: ('A' for Active; 'I' for Inactive)
REMARK    1  A    between atoms: C_13  and  O_18
REMARK    2  A    between atoms: C_16  and  C_20
REMARK    3  A    between atoms: C_21  and  C_22
REMARK                            x       y       z     vdW  Elec       q    Type
REMARK                         _______ _______ _______ _____ _____    ______ ____
ROOT
ATOM      1  O   UNL     1      -1.125  64.194  11.332  0.00  0.00    +0.000 OA
ATOM      2  C   UNL     1      -2.016  62.168  12.417  0.00  0.00    +0.000 A 
ATOM      3  C   UNL     1      -2.288  61.628  11.062  0.00  0.00    +0.000 A 
ATOM      4  C   UNL     1      -1.110  63.366  12.518  0.00  0.00    +0.000 C 
ATOM      5  C   UNL     1      -2.494  61.303  13.464  0.00  0.00    +0.000 A 
ATOM      6  C   UNL     1      -1.791  62.329   9.880  0.00  0.00    +0.000 A 
ATOM      7  C   UNL     1      -3.248  59.981  13.229  0.00  0.00    +0.000 A 
ATOM      8  C   UNL     1      -3.017  60.378  11.091  0.00  0.00    +0.000 A 
ATOM      9  C   UNL     1      -3.536  59.495  11.910  0.00  0.00    +0.000 A 
ATOM     10  C   UNL     1      -1.227  63.595  10.100  0.00  0.00    +0.000 A 
ATOM     11  C   UNL     1      -1.592  64.275  13.681  0.00  0.00    +0.000 C 
ATOM     12  C   UNL     1       0.351  62.892  12.772  0.00  0.00    +0.000 C 
ATOM     13  C   UNL     1      -1.854  61.847   8.567  0.00  0.00    +0.000 A 
ATOM     14  C   UNL     1      -0.773  64.366   9.029  0.00  0.00    +0.000 A 
ATOM     15  C   UNL     1      -4.859  58.864  11.611  0.00  0.00    +0.000 C 
ATOM     16  C   UNL     1      -0.845  63.871   7.731  0.00  0.00    +0.000 A 
ATOM     17  C   UNL     1      -1.382  62.611   7.497  0.00  0.00    +0.000 A 
ENDROOT
BRANCH  13  18
ATOM     18  O   UNL     1      -2.374  60.610   8.306  0.00  0.00    +0.000 OA
ATOM     19  H   UNL     1      -2.400  60.092   9.130  0.00  0.00    +0.000 HD
ENDBRANCH  13  18
BRANCH  16  20
ATOM     20  C   UNL     1      -0.356  64.650   6.644  0.00  0.00    +0.000 C 
ATOM     21  C   UNL     1       0.163  65.501   5.480  0.00  0.00    +0.000 C 
BRANCH  21  22
ATOM     22  C   UNL     1       0.681  66.359   4.322  0.00  0.00    +0.000 C 
ATOM     23  C   UNL     1       1.197  67.222   3.166  0.00  0.00    +0.000 C 
ATOM     24  C   UNL     1       1.715  68.087   2.012  0.00  0.00    +0.000 C 
ENDBRANCH  21  22
ENDBRANCH  16  20
TORSDOF 3
ENDMDL
MODEL 3
REMARK VINA RESULT:      -6.1     30.476     31.709
REMARK  Name = Dronabinol.pdbqt.pdb
REMARK  3 active torsions:
REMARK  status: ('A' for Active; 'I' for Inactive)
REMARK    1  A    between atoms: C_13  and  O_18
REMARK    2  A    between atoms: C_16  and  C_20
REMARK    3  A    between atoms: C_21  and  C_22
REMARK                            x       y       z     vdW  Elec       q    Type
REMARK                         _______ _______ _______ _____ _____    ______ ____
ROOT
ATOM      1  O   UNL     1     -14.461  42.934  14.465  0.00  0.00    +0.000 OA
ATOM      2  C   UNL     1     -16.363  41.697  13.503  0.00  0.00    +0.000 A 
ATOM      3  C   UNL     1     -15.572  40.453  13.679  0.00  0.00    +0.000 A 
ATOM      4  C   UNL     1     -15.887  42.929  14.223  0.00  0.00    +0.000 C 
ATOM      5  C   UNL     1     -17.616  41.466  12.833  0.00  0.00    +0.000 A 
ATOM      6  C   UNL     1     -14.314  40.484  14.420  0.00  0.00    +0.000 A 
ATOM      7  C   UNL     1     -18.087  40.097  12.307  0.00  0.00    +0.000 A 
ATOM      8  C   UNL     1     -16.212  39.294  13.095  0.00  0.00    +0.000 A 
ATOM      9  C   UNL     1     -17.290  38.913  12.453  0.00  0.00    +0.000 A 
ATOM     10  C   UNL     1     -13.832  41.753  14.774  0.00  0.00    +0.000 A 
ATOM     11  C   UNL     1     -16.177  44.179  13.347  0.00  0.00    +0.000 C 
ATOM     12  C   UNL     1     -16.621  43.047  15.591  0.00  0.00    +0.000 C 
ATOM     13  C   UNL     1     -13.558  39.360  14.777  0.00  0.00    +0.000 A 
ATOM     14  C   UNL     1     -12.610  41.889  15.436  0.00  0.00    +0.000 A 
ATOM     15  C   UNL     1     -17.201  37.922  11.335  0.00  0.00    +0.000 C 
ATOM     16  C   UNL     1     -11.873  40.762  15.783  0.00  0.00    +0.000 A 
ATOM     17  C   UNL     1     -12.346  39.496  15.458  0.00  0.00    +0.000 A 
ENDROOT
BRANCH  13  18
ATOM     18  O   UNL     1     -13.998  38.102  14.474  0.00  0.00    +0.000 OA
ATOM     19  H   UNL     1     -14.886  37.973  14.853  0.00  0.00    +0.000 HD
ENDBRANCH  13  18
BRANCH  16  20
ATOM     20  C   UNL     1     -10.641  40.905  16.482  0.00  0.00    +0.000 C 
ATOM     21  C   UNL     1      -9.316  41.072  17.235  0.00  0.00    +0.000 C 
BRANCH  21  22
ATOM     22  C   UNL     1      -7.996  41.249  17.990  0.00  0.00    +0.000 C 
ATOM     23  C   UNL     1      -6.677  41.428  18.749  0.00  0.00    +0.000 C 
ATOM     24  C   UNL     1      -5.360  41.607  19.511  0.00  0.00    +0.000 C 
ENDBRANCH  21  22
ENDBRANCH  16  20
TORSDOF 3
ENDMDL
MODEL 4
REMARK VINA RESULT:      -6.0     43.966     45.121
REMARK  Name = Dronabinol.pdbqt.pdb
REMARK  3 active torsions:
REMARK  status: ('A' for Active; 'I' for Inactive)
REMARK    1  A    between atoms: C_13  and  O_18
REMARK    2  A    between atoms: C_16  and  C_20
REMARK    3  A    between atoms: C_21  and  C_22
REMARK                            x       y       z     vdW  Elec       q    Type
REMARK                         _______ _______ _______ _____ _____    ______ ____
ROOT
ATOM      1  O   UNL     1     -14.983  33.012  24.166  0.00  0.00    +0.000 OA
ATOM      2  C   UNL     1     -15.292  32.748  26.597  0.00  0.00    +0.000 A 
ATOM      3  C   UNL     1     -16.020  31.487  26.312  0.00  0.00    +0.000 A 
ATOM      4  C   UNL     1     -14.481  33.348  25.481  0.00  0.00    +0.000 C 
ATOM      5  C   UNL     1     -15.297  33.087  27.996  0.00  0.00    +0.000 A 
ATOM      6  C   UNL     1     -16.040  30.942  24.957  0.00  0.00    +0.000 A 
ATOM      7  C   UNL     1     -16.011  32.271  29.091  0.00  0.00    +0.000 A 
ATOM      8  C   UNL     1     -16.617  30.904  27.495  0.00  0.00    +0.000 A 
ATOM      9  C   UNL     1     -16.743  31.075  28.789  0.00  0.00    +0.000 A 
ATOM     10  C   UNL     1     -15.504  31.759  23.950  0.00  0.00    +0.000 A 
ATOM     11  C   UNL     1     -14.542  34.897  25.578  0.00  0.00    +0.000 C 
ATOM     12  C   UNL     1     -13.007  32.858  25.588  0.00  0.00    +0.000 C 
ATOM     13  C   UNL     1     -16.563  29.694  24.594  0.00  0.00    +0.000 A 
ATOM     14  C   UNL     1     -15.526  31.350  22.616  0.00  0.00    +0.000 A 
ATOM     15  C   UNL     1     -18.046  30.796  29.470  0.00  0.00    +0.000 C 
ATOM     16  C   UNL     1     -16.050  30.108  22.274  0.00  0.00    +0.000 A 
ATOM     17  C   UNL     1     -16.566  29.277  23.261  0.00  0.00    +0.000 A 
ENDROOT
BRANCH  13  18
ATOM     18  O   UNL     1     -17.074  28.854  25.542  0.00  0.00    +0.000 OA
ATOM     19  H   UNL     1     -18.022  28.710  25.366  0.00  0.00    +0.000 HD
ENDBRANCH  13  18
BRANCH  16  20
ATOM     20  C   UNL     1     -16.046  29.684  20.916  0.00  0.00    +0.000 C 
ATOM     21  C   UNL     1     -16.055  29.232  19.450  0.00  0.00    +0.000 C 
BRANCH  21  22
ATOM     22  C   UNL     1     -16.071  28.789  17.985  0.00  0.00    +0.000 C 
ATOM     23  C   UNL     1     -16.088  28.349  16.517  0.00  0.00    +0.000 C 
ATOM     24  C   UNL     1     -16.102  27.912  15.049  0.00  0.00    +0.000 C 
ENDBRANCH  21  22
ENDBRANCH  16  20
TORSDOF 3
ENDMDL
MODEL 5
REMARK VINA RESULT:      -5.9     15.793     19.034
REMARK  Name = Dronabinol.pdbqt.pdb
REMARK  3 active torsions:
REMARK  status: ('A' for Active; 'I' for Inactive)
REMARK    1  A    between atoms: C_13  and  O_18
REMARK    2  A    between atoms: C_16  and  C_20
REMARK    3  A    between atoms: C_21  and  C_22
REMARK                            x       y       z     vdW  Elec       q    Type
REMARK                         _______ _______ _______ _____ _____    ______ ____
ROOT
ATOM      1  O   UNL     1      -3.304  59.862  10.675  0.00  0.00    +0.000 OA
ATOM      2  C   UNL     1      -3.585  59.536  13.102  0.00  0.00    +0.000 A 
ATOM      3  C   UNL     1      -2.605  60.630  13.308  0.00  0.00    +0.000 A 
ATOM      4  C   UNL     1      -4.175  59.380  11.727  0.00  0.00    +0.000 C 
ATOM      5  C   UNL     1      -3.994  58.920  14.338  0.00  0.00    +0.000 A 
ATOM      6  C   UNL     1      -2.148  61.427  12.172  0.00  0.00    +0.000 A 
ATOM      7  C   UNL     1      -3.455  59.306  15.728  0.00  0.00    +0.000 A 
ATOM      8  C   UNL     1      -2.239  60.804  14.697  0.00  0.00    +0.000 A 
ATOM      9  C   UNL     1      -2.478  60.342  15.901  0.00  0.00    +0.000 A 
ATOM     10  C   UNL     1      -2.540  60.981  10.901  0.00  0.00    +0.000 A 
ATOM     11  C   UNL     1      -4.405  57.872  11.434  0.00  0.00    +0.000 C 
ATOM     12  C   UNL     1      -5.522  60.157  11.649  0.00  0.00    +0.000 C 
ATOM     13  C   UNL     1      -1.346  62.572  12.257  0.00  0.00    +0.000 A 
ATOM     14  C   UNL     1      -2.110  61.644   9.751  0.00  0.00    +0.000 A 
ATOM     15  C   UNL     1      -1.364  60.171  16.886  0.00  0.00    +0.000 C 
ATOM     16  C   UNL     1      -1.313  62.779   9.855  0.00  0.00    +0.000 A 
ATOM     17  C   UNL     1      -0.932  63.247  11.107  0.00  0.00    +0.000 A 
ENDROOT
BRANCH  13  18
ATOM     18  O   UNL     1      -0.958  63.059  13.473  0.00  0.00    +0.000 OA
ATOM     19  H   UNL     1      -0.136  62.615  13.749  0.00  0.00    +0.000 HD
ENDBRANCH  13  18
BRANCH  16  20
ATOM     20  C   UNL     1      -0.898  63.467   8.680  0.00  0.00    +0.000 C 
ATOM     21  C   UNL     1      -0.452  64.197   7.407  0.00  0.00    +0.000 C 
BRANCH  21  22
ATOM     22  C   UNL     1      -0.010  64.917   6.131  0.00  0.00    +0.000 C 
ATOM     23  C   UNL     1       0.436  65.640   4.855  0.00  0.00    +0.000 C 
ATOM     24  C   UNL     1       0.885  66.362   3.581  0.00  0.00    +0.000 C 
ENDBRANCH  21  22
ENDBRANCH  16  20
TORSDOF 3
ENDMDL
MODEL 6
REMARK VINA RESULT:      -5.9      1.343      3.363
REMARK  Name = Dronabinol.pdbqt.pdb
REMARK  3 active torsions:
REMARK  status: ('A' for Active; 'I' for Inactive)
REMARK    1  A    between atoms: C_13  and  O_18
REMARK    2  A    between atoms: C_16  and  C_20
REMARK    3  A    between atoms: C_21  and  C_22
REMARK                            x       y       z     vdW  Elec       q    Type
REMARK                         _______ _______ _______ _____ _____    ______ ____
ROOT
ATOM      1  O   UNL     1      -1.605  58.814  -7.307  0.00  0.00    +0.000 OA
ATOM      2  C   UNL     1      -3.054  60.602  -6.423  0.00  0.00    +0.000 A 
ATOM      3  C   UNL     1      -1.906  61.047  -5.595  0.00  0.00    +0.000 A 
ATOM      4  C   UNL     1      -2.769  59.641  -7.545  0.00  0.00    +0.000 C 
ATOM      5  C   UNL     1      -4.254  61.349  -6.154  0.00  0.00    +0.000 A 
ATOM      6  C   UNL     1      -0.584  60.460  -5.798  0.00  0.00    +0.000 A 
ATOM      7  C   UNL     1      -4.372  62.464  -5.097  0.00  0.00    +0.000 A 
ATOM      8  C   UNL     1      -2.259  62.100  -4.667  0.00  0.00    +0.000 A 
ATOM      9  C   UNL     1      -3.259  62.854  -4.279  0.00  0.00    +0.000 A 
ATOM     10  C   UNL     1      -0.520  59.358  -6.664  0.00  0.00    +0.000 A 
ATOM     11  C   UNL     1      -3.965  58.662  -7.699  0.00  0.00    +0.000 C 
ATOM     12  C   UNL     1      -2.549  60.436  -8.866  0.00  0.00    +0.000 C 
ATOM     13  C   UNL     1       0.598  60.898  -5.188  0.00  0.00    +0.000 A 
ATOM     14  C   UNL     1       0.689  58.695  -6.881  0.00  0.00    +0.000 A 
ATOM     15  C   UNL     1      -3.462  63.166  -2.830  0.00  0.00    +0.000 C 
ATOM     16  C   UNL     1       1.853  59.143  -6.266  0.00  0.00    +0.000 A 
ATOM     17  C   UNL     1       1.811  60.246  -5.422  0.00  0.00    +0.000 A 
ENDROOT
BRANCH  13  18
ATOM     18  O   UNL     1       0.590  61.981  -4.356  0.00  0.00    +0.000 OA
ATOM     19  H   UNL     1       1.156  62.680  -4.732  0.00  0.00    +0.000 HD
ENDBRANCH  13  18
BRANCH  16  20
ATOM     20  C   UNL     1       3.088  58.480  -6.512  0.00  0.00    +0.000 C 
ATOM     21  C   UNL     1       4.426  57.777  -6.772  0.00  0.00    +0.000 C 
BRANCH  21  22
ATOM     22  C   UNL     1       5.766  57.082  -7.025  0.00  0.00    +0.000 C 
ATOM     23  C   UNL     1       7.105  56.382  -7.280  0.00  0.00    +0.000 C 
ATOM     24  C   UNL     1       8.444  55.681  -7.537  0.00  0.00    +0.000 C 
ENDBRANCH  21  22
ENDBRANCH  16  20
TORSDOF 3
ENDMDL
MODEL 7
REMARK VINA RESULT:      -5.8      2.092      8.906
REMARK  Name = Dronabinol.pdbqt.pdb
REMARK  3 active torsions:
REMARK  status: ('A' for Active; 'I' for Inactive)
REMARK    1  A    between atoms: C_13  and  O_18
REMARK    2  A    between atoms: C_16  and  C_20
REMARK    3  A    between atoms: C_21  and  C_22
REMARK                            x       y       z     vdW  Elec       q    Type
REMARK                         _______ _______ _______ _____ _____    ______ ____
ROOT
ATOM      1  O   UNL     1       3.072  56.858  -8.490  0.00  0.00    +0.000 OA
ATOM      2  C   UNL     1       5.364  57.087  -7.612  0.00  0.00    +0.000 A 
ATOM      3  C   UNL     1       4.892  58.261  -6.838  0.00  0.00    +0.000 A 
ATOM      4  C   UNL     1       4.319  56.181  -8.206  0.00  0.00    +0.000 C 
ATOM      5  C   UNL     1       6.781  56.871  -7.481  0.00  0.00    +0.000 A 
ATOM      6  C   UNL     1       3.467  58.577  -6.782  0.00  0.00    +0.000 A 
ATOM      7  C   UNL     1       7.732  57.771  -6.669  0.00  0.00    +0.000 A 
ATOM      8  C   UNL     1       5.966  58.958  -6.164  0.00  0.00    +0.000 A 
ATOM      9  C   UNL     1       7.261  58.925  -5.959  0.00  0.00    +0.000 A 
ATOM     10  C   UNL     1       2.631  57.834  -7.630  0.00  0.00    +0.000 A 
ATOM     11  C   UNL     1       4.829  55.635  -9.568  0.00  0.00    +0.000 C 
ATOM     12  C   UNL     1       4.033  55.006  -7.226  0.00  0.00    +0.000 C 
ATOM     13  C   UNL     1       2.887  59.562  -5.972  0.00  0.00    +0.000 A 
ATOM     14  C   UNL     1       1.262  58.099  -7.688  0.00  0.00    +0.000 A 
ATOM     15  C   UNL     1       8.064  60.187  -5.956  0.00  0.00    +0.000 C 
ATOM     16  C   UNL     1       0.705  59.081  -6.877  0.00  0.00    +0.000 A 
ATOM     17  C   UNL     1       1.514  59.812  -6.016  0.00  0.00    +0.000 A 
ENDROOT
BRANCH  13  18
ATOM     18  O   UNL     1       3.656  60.295  -5.113  0.00  0.00    +0.000 OA
ATOM     19  H   UNL     1       3.488  61.244  -5.261  0.00  0.00    +0.000 HD
ENDBRANCH  13  18
BRANCH  16  20
ATOM     20  C   UNL     1      -0.697  59.329  -6.921  0.00  0.00    +0.000 C 
ATOM     21  C   UNL     1      -2.208  59.583  -6.965  0.00  0.00    +0.000 C 
BRANCH  21  22
ATOM     22  C   UNL     1      -3.719  59.826  -7.005  0.00  0.00    +0.000 C 
ATOM     23  C   UNL     1      -5.230  60.075  -7.046  0.00  0.00    +0.000 C 
ATOM     24  C   UNL     1      -6.741  60.325  -7.090  0.00  0.00    +0.000 C 
ENDBRANCH  21  22
ENDBRANCH  16  20
TORSDOF 3
ENDMDL
MODEL 8
REMARK VINA RESULT:      -5.8     42.738     44.405
REMARK  Name = Dronabinol.pdbqt.pdb
REMARK  3 active torsions:
REMARK  status: ('A' for Active; 'I' for Inactive)
REMARK    1  A    between atoms: C_13  and  O_18
REMARK    2  A    between atoms: C_16  and  C_20
REMARK    3  A    between atoms: C_21  and  C_22
REMARK                            x       y       z     vdW  Elec       q    Type
REMARK                         _______ _______ _______ _____ _____    ______ ____
ROOT
ATOM      1  O   UNL     1     -14.967  35.239  26.334  0.00  0.00    +0.000 OA
ATOM      2  C   UNL     1     -15.008  33.485  24.602  0.00  0.00    +0.000 A 
ATOM      3  C   UNL     1     -16.472  33.697  24.499  0.00  0.00    +0.000 A 
ATOM      4  C   UNL     1     -14.204  34.529  25.329  0.00  0.00    +0.000 C 
ATOM      5  C   UNL     1     -14.546  32.399  23.778  0.00  0.00    +0.000 A 
ATOM      6  C   UNL     1     -17.102  34.815  25.198  0.00  0.00    +0.000 A 
ATOM      7  C   UNL     1     -15.458  31.512  22.909  0.00  0.00    +0.000 A 
ATOM      8  C   UNL     1     -17.119  32.736  23.632  0.00  0.00    +0.000 A 
ATOM      9  C   UNL     1     -16.878  31.709  22.853  0.00  0.00    +0.000 A 
ATOM     10  C   UNL     1     -16.286  35.530  26.088  0.00  0.00    +0.000 A 
ATOM     11  C   UNL     1     -13.035  33.841  26.086  0.00  0.00    +0.000 C 
ATOM     12  C   UNL     1     -13.650  35.564  24.306  0.00  0.00    +0.000 C 
ATOM     13  C   UNL     1     -18.440  35.205  25.061  0.00  0.00    +0.000 A 
ATOM     14  C   UNL     1     -16.810  36.581  26.843  0.00  0.00    +0.000 A 
ATOM     15  C   UNL     1     -17.802  30.533  22.835  0.00  0.00    +0.000 C 
ATOM     16  C   UNL     1     -18.141  36.954  26.694  0.00  0.00    +0.000 A 
ATOM     17  C   UNL     1     -18.958  36.270  25.802  0.00  0.00    +0.000 A 
ENDROOT
BRANCH  13  18
ATOM     18  O   UNL     1     -19.267  34.554  24.190  0.00  0.00    +0.000 OA
ATOM     19  H   UNL     1     -19.115  34.893  23.289  0.00  0.00    +0.000 HD
ENDBRANCH  13  18
BRANCH  16  20
ATOM     20  C   UNL     1     -18.664  38.044  27.446  0.00  0.00    +0.000 C 
ATOM     21  C   UNL     1     -19.214  39.224  28.255  0.00  0.00    +0.000 C 
BRANCH  21  22
ATOM     22  C   UNL     1     -19.756  40.409  29.060  0.00  0.00    +0.000 C 
ATOM     23  C   UNL     1     -20.294  41.596  29.865  0.00  0.00    +0.000 C 
ATOM     24  C   UNL     1     -20.830  42.785  30.669  0.00  0.00    +0.000 C 
ENDBRANCH  21  22
ENDBRANCH  16  20
TORSDOF 3
ENDMDL
MODEL 9
REMARK VINA RESULT:      -5.8     16.905     19.800
REMARK  Name = Dronabinol.pdbqt.pdb
REMARK  3 active torsions:
REMARK  status: ('A' for Active; 'I' for Inactive)
REMARK    1  A    between atoms: C_13  and  O_18
REMARK    2  A    between atoms: C_16  and  C_20
REMARK    3  A    between atoms: C_21  and  C_22
REMARK                            x       y       z     vdW  Elec       q    Type
REMARK                         _______ _______ _______ _____ _____    ______ ____
ROOT
ATOM      1  O   UNL     1      -2.031  61.880  14.266  0.00  0.00    +0.000 OA
ATOM      2  C   UNL     1      -3.144  59.956  15.331  0.00  0.00    +0.000 A 
ATOM      3  C   UNL     1      -3.616  59.552  13.984  0.00  0.00    +0.000 A 
ATOM      4  C   UNL     1      -2.050  60.987  15.404  0.00  0.00    +0.000 C 
ATOM      5  C   UNL     1      -3.666  59.114  16.376  0.00  0.00    +0.000 A 
ATOM      6  C   UNL     1      -3.115  60.239  12.796  0.00  0.00    +0.000 A 
ATOM      7  C   UNL     1      -4.643  57.945  16.150  0.00  0.00    +0.000 A 
ATOM      8  C   UNL     1      -4.534  58.434  14.022  0.00  0.00    +0.000 A 
ATOM      9  C   UNL     1      -5.118  57.594  14.842  0.00  0.00    +0.000 A 
ATOM     10  C   UNL     1      -2.334  61.383  13.022  0.00  0.00    +0.000 A 
ATOM     11  C   UNL     1      -2.275  61.886  16.650  0.00  0.00    +0.000 C 
ATOM     12  C   UNL     1      -0.669  60.272  15.495  0.00  0.00    +0.000 C 
ATOM     13  C   UNL     1      -3.368  59.857  11.472  0.00  0.00    +0.000 A 
ATOM     14  C   UNL     1      -1.855  62.139  11.951  0.00  0.00    +0.000 A 
ATOM     15  C   UNL     1      -6.547  57.201  14.640  0.00  0.00    +0.000 C 
ATOM     16  C   UNL     1      -2.117  61.744  10.644  0.00  0.00    +0.000 A 
ATOM     17  C   UNL     1      -2.871  60.602  10.401  0.00  0.00    +0.000 A 
ENDROOT
BRANCH  13  18
ATOM     18  O   UNL     1      -4.103  58.737  11.202  0.00  0.00    +0.000 OA
ATOM     19  H   UNL     1      -4.265  58.683  10.243  0.00  0.00    +0.000 HD
ENDBRANCH  13  18
BRANCH  16  20
ATOM     20  C   UNL     1      -1.603  62.503   9.554  0.00  0.00    +0.000 C 
ATOM     21  C   UNL     1      -1.062  63.320   8.375  0.00  0.00    +0.000 C 
BRANCH  21  22
ATOM     22  C   UNL     1      -0.532  64.137   7.193  0.00  0.00    +0.000 C 
ATOM     23  C   UNL     1      -0.004  64.958   6.013  0.00  0.00    +0.000 C 
ATOM     24  C   UNL     1       0.525  65.781   4.834  0.00  0.00    +0.000 C 
ENDBRANCH  21  22
ENDBRANCH  16  20
TORSDOF 3
ENDMDL
