MODEL 1
REMARK VINA RESULT:      -9.6      0.000      0.000
REMARK  Name = Ellipticine.pdbqt.pdb
REMARK  0 active torsions:
REMARK  status: ('A' for Active; 'I' for Inactive)
REMARK                            x       y       z     vdW  Elec       q    Type
REMARK                         _______ _______ _______ _____ _____    ______ ____
ROOT
ATOM      1  N   UNL     1       6.709  30.699  16.439  0.00  0.00    +0.000 N 
ATOM      2  N   UNL     1       0.494  29.506  15.354  0.00  0.00    +0.000 NA
ATOM      3  C   UNL     1       5.367  29.177  15.493  0.00  0.00    +0.000 A 
ATOM      4  C   UNL     1       5.389  30.394  16.180  0.00  0.00    +0.000 A 
ATOM      5  C   UNL     1       4.110  28.643  15.109  0.00  0.00    +0.000 A 
ATOM      6  C   UNL     1       6.737  28.760  15.349  0.00  0.00    +0.000 A 
ATOM      7  C   UNL     1       4.226  31.109  16.505  0.00  0.00    +0.000 A 
ATOM      8  C   UNL     1       2.980  30.578  16.123  0.00  0.00    +0.000 A 
ATOM      9  C   UNL     1       2.927  29.350  15.428  0.00  0.00    +0.000 A 
ATOM     10  C   UNL     1       7.541  29.727  15.947  0.00  0.00    +0.000 A 
ATOM     11  C   UNL     1       4.048  27.328  14.363  0.00  0.00    +0.000 C 
ATOM     12  C   UNL     1       7.364  27.643  14.761  0.00  0.00    +0.000 A 
ATOM     13  C   UNL     1       4.368  32.416  17.251  0.00  0.00    +0.000 C 
ATOM     14  C   UNL     1       8.937  29.641  15.991  0.00  0.00    +0.000 A 
ATOM     15  C   UNL     1       1.776  31.237  16.415  0.00  0.00    +0.000 A 
ATOM     16  C   UNL     1       1.660  28.882  15.080  0.00  0.00    +0.000 A 
ATOM     17  C   UNL     1       8.756  27.537  14.794  0.00  0.00    +0.000 A 
ATOM     18  C   UNL     1       9.526  28.522  15.400  0.00  0.00    +0.000 A 
ATOM     19  C   UNL     1       0.577  30.673  16.017  0.00  0.00    +0.000 A 
ATOM     20  H   UNL     1       7.012  31.534  16.930  0.00  0.00    +0.000 HD
ENDROOT
TORSDOF 0
ENDMDL
MODEL 2
REMARK VINA RESULT:      -9.5      1.185      6.323
REMARK  Name = Ellipticine.pdbqt.pdb
REMARK  0 active torsions:
REMARK  status: ('A' for Active; 'I' for Inactive)
REMARK                            x       y       z     vdW  Elec       q    Type
REMARK                         _______ _______ _______ _____ _____    ______ ____
ROOT
ATOM      1  N   UNL     1       1.780  29.584  15.185  0.00  0.00    +0.000 N 
ATOM      2  N   UNL     1       8.191  29.519  15.540  0.00  0.00    +0.000 NA
ATOM      3  C   UNL     1       3.506  30.887  15.768  0.00  0.00    +0.000 A 
ATOM      4  C   UNL     1       3.155  29.624  15.281  0.00  0.00    +0.000 A 
ATOM      5  C   UNL     1       4.881  31.178  15.956  0.00  0.00    +0.000 A 
ATOM      6  C   UNL     1       2.276  31.609  15.961  0.00  0.00    +0.000 A 
ATOM      7  C   UNL     1       4.102  28.634  14.973  0.00  0.00    +0.000 A 
ATOM      8  C   UNL     1       5.466  28.926  15.161  0.00  0.00    +0.000 A 
ATOM      9  C   UNL     1       5.850  30.193  15.650  0.00  0.00    +0.000 A 
ATOM     10  C   UNL     1       1.227  30.771  15.590  0.00  0.00    +0.000 A 
ATOM     11  C   UNL     1       5.297  32.535  16.481  0.00  0.00    +0.000 C 
ATOM     12  C   UNL     1       1.963  32.904  16.420  0.00  0.00    +0.000 A 
ATOM     13  C   UNL     1       3.611  27.304  14.453  0.00  0.00    +0.000 C 
ATOM     14  C   UNL     1      -0.117  31.155  15.652  0.00  0.00    +0.000 A 
ATOM     15  C   UNL     1       6.468  27.986  14.874  0.00  0.00    +0.000 A 
ATOM     16  C   UNL     1       7.217  30.414  15.813  0.00  0.00    +0.000 A 
ATOM     17  C   UNL     1       0.628  33.308  16.490  0.00  0.00    +0.000 A 
ATOM     18  C   UNL     1      -0.392  32.444  16.111  0.00  0.00    +0.000 A 
ATOM     19  C   UNL     1       7.794  28.321  15.076  0.00  0.00    +0.000 A 
ATOM     20  H   UNL     1       1.258  28.779  14.858  0.00  0.00    +0.000 HD
ENDROOT
TORSDOF 0
ENDMDL
MODEL 3
REMARK VINA RESULT:      -9.5      1.707      3.471
REMARK  Name = Ellipticine.pdbqt.pdb
REMARK  0 active torsions:
REMARK  status: ('A' for Active; 'I' for Inactive)
REMARK                            x       y       z     vdW  Elec       q    Type
REMARK                         _______ _______ _______ _____ _____    ______ ____
ROOT
ATOM      1  N   UNL     1       3.647  28.455  15.131  0.00  0.00    +0.000 N 
ATOM      2  N   UNL     1       0.032  33.633  16.295  0.00  0.00    +0.000 NA
ATOM      3  C   UNL     1       3.827  30.649  15.545  0.00  0.00    +0.000 A 
ATOM      4  C   UNL     1       2.918  29.599  15.385  0.00  0.00    +0.000 A 
ATOM      5  C   UNL     1       3.318  31.945  15.818  0.00  0.00    +0.000 A 
ATOM      6  C   UNL     1       5.141  30.086  15.375  0.00  0.00    +0.000 A 
ATOM      7  C   UNL     1       1.529  29.770  15.482  0.00  0.00    +0.000 A 
ATOM      8  C   UNL     1       1.026  31.057  15.753  0.00  0.00    +0.000 A 
ATOM      9  C   UNL     1       1.920  32.136  15.919  0.00  0.00    +0.000 A 
ATOM     10  C   UNL     1       4.991  28.725  15.121  0.00  0.00    +0.000 A 
ATOM     11  C   UNL     1       4.274  33.105  15.997  0.00  0.00    +0.000 C 
ATOM     12  C   UNL     1       6.446  30.616  15.417  0.00  0.00    +0.000 A 
ATOM     13  C   UNL     1       0.639  28.564  15.292  0.00  0.00    +0.000 C 
ATOM     14  C   UNL     1       6.072  27.863  14.905  0.00  0.00    +0.000 A 
ATOM     15  C   UNL     1      -0.351  31.303  15.865  0.00  0.00    +0.000 A 
ATOM     16  C   UNL     1       1.355  33.383  16.186  0.00  0.00    +0.000 A 
ATOM     17  C   UNL     1       7.540  29.773  15.204  0.00  0.00    +0.000 A 
ATOM     18  C   UNL     1       7.352  28.420  14.952  0.00  0.00    +0.000 A 
ATOM     19  C   UNL     1      -0.794  32.585  16.132  0.00  0.00    +0.000 A 
ATOM     20  H   UNL     1       3.233  27.543  14.975  0.00  0.00    +0.000 HD
ENDROOT
TORSDOF 0
ENDMDL
MODEL 4
REMARK VINA RESULT:      -9.3      1.125      2.802
REMARK  Name = Ellipticine.pdbqt.pdb
REMARK  0 active torsions:
REMARK  status: ('A' for Active; 'I' for Inactive)
REMARK                            x       y       z     vdW  Elec       q    Type
REMARK                         _______ _______ _______ _____ _____    ______ ____
ROOT
ATOM      1  N   UNL     1       6.018  27.815  14.614  0.00  0.00    +0.000 N 
ATOM      2  N   UNL     1       0.957  31.381  16.318  0.00  0.00    +0.000 NA
ATOM      3  C   UNL     1       5.510  29.756  15.609  0.00  0.00    +0.000 A 
ATOM      4  C   UNL     1       4.967  28.620  15.001  0.00  0.00    +0.000 A 
ATOM      5  C   UNL     1       4.622  30.748  16.098  0.00  0.00    +0.000 A 
ATOM      6  C   UNL     1       6.941  29.600  15.570  0.00  0.00    +0.000 A 
ATOM      7  C   UNL     1       3.586  28.418  14.856  0.00  0.00    +0.000 A 
ATOM      8  C   UNL     1       2.706  29.404  15.342  0.00  0.00    +0.000 A 
ATOM      9  C   UNL     1       3.226  30.562  15.960  0.00  0.00    +0.000 A 
ATOM     10  C   UNL     1       7.219  28.385  14.946  0.00  0.00    +0.000 A 
ATOM     11  C   UNL     1       5.175  31.991  16.761  0.00  0.00    +0.000 C 
ATOM     12  C   UNL     1       8.024  30.386  16.011  0.00  0.00    +0.000 A 
ATOM     13  C   UNL     1       3.109  27.153  14.183  0.00  0.00    +0.000 C 
ATOM     14  C   UNL     1       8.520  27.913  14.739  0.00  0.00    +0.000 A 
ATOM     15  C   UNL     1       1.314  29.270  15.231  0.00  0.00    +0.000 A 
ATOM     16  C   UNL     1       2.299  31.497  16.419  0.00  0.00    +0.000 A 
ATOM     17  C   UNL     1       9.330  29.933  15.814  0.00  0.00    +0.000 A 
ATOM     18  C   UNL     1       9.570  28.716  15.188  0.00  0.00    +0.000 A 
ATOM     19  C   UNL     1       0.493  30.267  15.725  0.00  0.00    +0.000 A 
ATOM     20  H   UNL     1       5.906  26.922  14.146  0.00  0.00    +0.000 HD
ENDROOT
TORSDOF 0
ENDMDL
MODEL 5
REMARK VINA RESULT:      -8.5      1.810      3.631
REMARK  Name = Ellipticine.pdbqt.pdb
REMARK  0 active torsions:
REMARK  status: ('A' for Active; 'I' for Inactive)
REMARK                            x       y       z     vdW  Elec       q    Type
REMARK                         _______ _______ _______ _____ _____    ______ ____
ROOT
ATOM      1  N   UNL     1       6.955  30.340  15.255  0.00  0.00    +0.000 N 
ATOM      2  N   UNL     1       0.573  29.672  15.509  0.00  0.00    +0.000 NA
ATOM      3  C   UNL     1       5.103  31.480  15.793  0.00  0.00    +0.000 A 
ATOM      4  C   UNL     1       5.580  30.251  15.328  0.00  0.00    +0.000 A 
ATOM      5  C   UNL     1       3.703  31.642  15.956  0.00  0.00    +0.000 A 
ATOM      6  C   UNL     1       6.256  32.318  15.997  0.00  0.00    +0.000 A 
ATOM      7  C   UNL     1       4.737  29.173  15.017  0.00  0.00    +0.000 A 
ATOM      8  C   UNL     1       3.348  29.336  15.180  0.00  0.00    +0.000 A 
ATOM      9  C   UNL     1       2.838  30.566  15.648  0.00  0.00    +0.000 A 
ATOM     10  C   UNL     1       7.386  31.579  15.653  0.00  0.00    +0.000 A 
ATOM     11  C   UNL     1       3.153  32.959  16.458  0.00  0.00    +0.000 C 
ATOM     12  C   UNL     1       6.437  33.642  16.445  0.00  0.00    +0.000 A 
ATOM     13  C   UNL     1       5.360  27.889  14.522  0.00  0.00    +0.000 C 
ATOM     14  C   UNL     1       8.686  32.089  15.732  0.00  0.00    +0.000 A 
ATOM     15  C   UNL     1       2.445  28.302  14.889  0.00  0.00    +0.000 A 
ATOM     16  C   UNL     1       1.453  30.659  15.786  0.00  0.00    +0.000 A 
ATOM     17  C   UNL     1       7.727  34.171  16.530  0.00  0.00    +0.000 A 
ATOM     18  C   UNL     1       8.830  33.404  16.179  0.00  0.00    +0.000 A 
ATOM     19  C   UNL     1       1.089  28.512  15.066  0.00  0.00    +0.000 A 
ATOM     20  H   UNL     1       7.556  29.585  14.945  0.00  0.00    +0.000 HD
ENDROOT
TORSDOF 0
ENDMDL
MODEL 6
REMARK VINA RESULT:      -8.4      1.828      2.491
REMARK  Name = Ellipticine.pdbqt.pdb
REMARK  0 active torsions:
REMARK  status: ('A' for Active; 'I' for Inactive)
REMARK                            x       y       z     vdW  Elec       q    Type
REMARK                         _______ _______ _______ _____ _____    ______ ____
ROOT
ATOM      1  N   UNL     1       5.332  32.970  16.586  0.00  0.00    +0.000 N 
ATOM      2  N   UNL     1       1.329  28.231  14.927  0.00  0.00    +0.000 NA
ATOM      3  C   UNL     1       5.324  30.965  15.589  0.00  0.00    +0.000 A 
ATOM      4  C   UNL     1       4.517  31.923  16.208  0.00  0.00    +0.000 A 
ATOM      5  C   UNL     1       4.712  29.779  15.105  0.00  0.00    +0.000 A 
ATOM      6  C   UNL     1       6.667  31.482  15.611  0.00  0.00    +0.000 A 
ATOM      7  C   UNL     1       3.132  31.765  16.372  0.00  0.00    +0.000 A 
ATOM      8  C   UNL     1       2.527  30.588  15.891  0.00  0.00    +0.000 A 
ATOM      9  C   UNL     1       3.317  29.603  15.262  0.00  0.00    +0.000 A 
ATOM     10  C   UNL     1       6.635  32.726  16.236  0.00  0.00    +0.000 A 
ATOM     11  C   UNL     1       5.557  28.720  14.429  0.00  0.00    +0.000 C 
ATOM     12  C   UNL     1       7.910  30.999  15.153  0.00  0.00    +0.000 A 
ATOM     13  C   UNL     1       2.356  32.866  17.056  0.00  0.00    +0.000 C 
ATOM     14  C   UNL     1       7.773  33.515  16.430  0.00  0.00    +0.000 A 
ATOM     15  C   UNL     1       1.148  30.361  16.020  0.00  0.00    +0.000 A 
ATOM     16  C   UNL     1       2.654  28.462  14.809  0.00  0.00    +0.000 A 
ATOM     17  C   UNL     1       9.059  31.771  15.336  0.00  0.00    +0.000 A 
ATOM     18  C   UNL     1       8.988  33.008  15.964  0.00  0.00    +0.000 A 
ATOM     19  C   UNL     1       0.603  29.188  15.531  0.00  0.00    +0.000 A 
ATOM     20  H   UNL     1       5.001  33.803  17.060  0.00  0.00    +0.000 HD
ENDROOT
TORSDOF 0
ENDMDL
MODEL 7
REMARK VINA RESULT:      -7.1     19.621     22.815
REMARK  Name = Ellipticine.pdbqt.pdb
REMARK  0 active torsions:
REMARK  status: ('A' for Active; 'I' for Inactive)
REMARK                            x       y       z     vdW  Elec       q    Type
REMARK                         _______ _______ _______ _____ _____    ______ ____
ROOT
ATOM      1  N   UNL     1     -17.401  27.890  20.909  0.00  0.00    +0.000 N 
ATOM      2  N   UNL     1     -20.044  28.178  15.064  0.00  0.00    +0.000 NA
ATOM      3  C   UNL     1     -16.859  28.268  18.768  0.00  0.00    +0.000 A 
ATOM      4  C   UNL     1     -17.917  27.964  19.631  0.00  0.00    +0.000 A 
ATOM      5  C   UNL     1     -17.137  28.399  17.383  0.00  0.00    +0.000 A 
ATOM      6  C   UNL     1     -15.679  28.374  19.585  0.00  0.00    +0.000 A 
ATOM      7  C   UNL     1     -19.236  27.784  19.189  0.00  0.00    +0.000 A 
ATOM      8  C   UNL     1     -19.509  27.915  17.814  0.00  0.00    +0.000 A 
ATOM      9  C   UNL     1     -18.462  28.221  16.919  0.00  0.00    +0.000 A 
ATOM     10  C   UNL     1     -16.052  28.134  20.906  0.00  0.00    +0.000 A 
ATOM     11  C   UNL     1     -16.016  28.727  16.420  0.00  0.00    +0.000 C 
ATOM     12  C   UNL     1     -14.324  28.653  19.316  0.00  0.00    +0.000 A 
ATOM     13  C   UNL     1     -20.301  27.458  20.210  0.00  0.00    +0.000 C 
ATOM     14  C   UNL     1     -15.147  28.157  21.972  0.00  0.00    +0.000 A 
ATOM     15  C   UNL     1     -20.804  27.748  17.299  0.00  0.00    +0.000 A 
ATOM     16  C   UNL     1     -18.802  28.336  15.571  0.00  0.00    +0.000 A 
ATOM     17  C   UNL     1     -13.404  28.682  20.366  0.00  0.00    +0.000 A 
ATOM     18  C   UNL     1     -13.813  28.437  21.671  0.00  0.00    +0.000 A 
ATOM     19  C   UNL     1     -21.020  27.887  15.941  0.00  0.00    +0.000 A 
ATOM     20  H   UNL     1     -17.955  27.682  21.732  0.00  0.00    +0.000 HD
ENDROOT
TORSDOF 0
ENDMDL
MODEL 8
REMARK VINA RESULT:      -7.0     31.866     34.348
REMARK  Name = Ellipticine.pdbqt.pdb
REMARK  0 active torsions:
REMARK  status: ('A' for Active; 'I' for Inactive)
REMARK                            x       y       z     vdW  Elec       q    Type
REMARK                         _______ _______ _______ _____ _____    ______ ____
ROOT
ATOM      1  N   UNL     1      -1.176  62.683  12.256  0.00  0.00    +0.000 N 
ATOM      2  N   UNL     1       0.054  64.255   6.154  0.00  0.00    +0.000 NA
ATOM      3  C   UNL     1      -1.695  62.078  10.163  0.00  0.00    +0.000 A 
ATOM      4  C   UNL     1      -0.947  62.978  10.929  0.00  0.00    +0.000 A 
ATOM      5  C   UNL     1      -1.627  62.178   8.749  0.00  0.00    +0.000 A 
ATOM      6  C   UNL     1      -2.388  61.225  11.092  0.00  0.00    +0.000 A 
ATOM      7  C   UNL     1      -0.135  63.972  10.362  0.00  0.00    +0.000 A 
ATOM      8  C   UNL     1      -0.069  64.069   8.959  0.00  0.00    +0.000 A 
ATOM      9  C   UNL     1      -0.814  63.175   8.160  0.00  0.00    +0.000 A 
ATOM     10  C   UNL     1      -2.043  61.628  12.380  0.00  0.00    +0.000 A 
ATOM     11  C   UNL     1      -2.424  61.221   7.890  0.00  0.00    +0.000 C 
ATOM     12  C   UNL     1      -3.280  60.143  10.949  0.00  0.00    +0.000 A 
ATOM     13  C   UNL     1       0.631  64.891  11.285  0.00  0.00    +0.000 C 
ATOM     14  C   UNL     1      -2.539  61.010  13.533  0.00  0.00    +0.000 A 
ATOM     15  C   UNL     1       0.721  65.038   8.322  0.00  0.00    +0.000 A 
ATOM     16  C   UNL     1      -0.703  63.327   6.779  0.00  0.00    +0.000 A 
ATOM     17  C   UNL     1      -3.787  59.512  12.087  0.00  0.00    +0.000 A 
ATOM     18  C   UNL     1      -3.420  59.942  13.356  0.00  0.00    +0.000 A 
ATOM     19  C   UNL     1       0.752  65.092   6.941  0.00  0.00    +0.000 A 
ATOM     20  H   UNL     1      -0.755  63.185  13.030  0.00  0.00    +0.000 HD
ENDROOT
TORSDOF 0
ENDMDL
MODEL 9
REMARK VINA RESULT:      -6.8     18.038     20.436
REMARK  Name = Ellipticine.pdbqt.pdb
REMARK  0 active torsions:
REMARK  status: ('A' for Active; 'I' for Inactive)
REMARK                            x       y       z     vdW  Elec       q    Type
REMARK                         _______ _______ _______ _____ _____    ______ ____
ROOT
ATOM      1  N   UNL     1      11.872  45.358  10.319  0.00  0.00    +0.000 N 
ATOM      2  N   UNL     1      17.911  44.606   8.272  0.00  0.00    +0.000 NA
ATOM      3  C   UNL     1      13.851  46.407  10.307  0.00  0.00    +0.000 A 
ATOM      4  C   UNL     1      13.182  45.248   9.902  0.00  0.00    +0.000 A 
ATOM      5  C   UNL     1      15.228  46.535   9.992  0.00  0.00    +0.000 A 
ATOM      6  C   UNL     1      12.882  47.224  10.990  0.00  0.00    +0.000 A 
ATOM      7  C   UNL     1      13.812  44.208   9.200  0.00  0.00    +0.000 A 
ATOM      8  C   UNL     1      15.179  44.337   8.889  0.00  0.00    +0.000 A 
ATOM      9  C   UNL     1      15.879  45.497   9.285  0.00  0.00    +0.000 A 
ATOM     10  C   UNL     1      11.667  46.543  10.978  0.00  0.00    +0.000 A 
ATOM     11  C   UNL     1      15.983  47.776  10.415  0.00  0.00    +0.000 C 
ATOM     12  C   UNL     1      12.933  48.485  11.617  0.00  0.00    +0.000 A 
ATOM     13  C   UNL     1      12.992  43.000   8.812  0.00  0.00    +0.000 C 
ATOM     14  C   UNL     1      10.500  47.051  11.559  0.00  0.00    +0.000 A 
ATOM     15  C   UNL     1      15.874  43.339   8.189  0.00  0.00    +0.000 A 
ATOM     16  C   UNL     1      17.231  45.559   8.944  0.00  0.00    +0.000 A 
ATOM     17  C   UNL     1      11.779  49.011  12.202  0.00  0.00    +0.000 A 
ATOM     18  C   UNL     1      10.584  48.302  12.172  0.00  0.00    +0.000 A 
ATOM     19  C   UNL     1      17.216  43.514   7.908  0.00  0.00    +0.000 A 
ATOM     20  H   UNL     1      11.163  44.651  10.155  0.00  0.00    +0.000 HD
ENDROOT
TORSDOF 0
ENDMDL
