MODEL 1
REMARK VINA RESULT:      -8.4      0.000      0.000
REMARK  Name = Enterolactone.pdbqt.pdb
REMARK  2 active torsions:
REMARK  status: ('A' for Active; 'I' for Inactive)
REMARK    1  A    between atoms: C_10  and  O_14
REMARK    2  A    between atoms: C_19  and  O_23
REMARK                            x       y       z     vdW  Elec       q    Type
REMARK                         _______ _______ _______ _____ _____    ______ ____
ROOT
ATOM      1  O   UNL     1       8.314  28.838  15.563  0.00  0.00    +0.000 OA
ATOM      2  O   UNL     1       6.042  28.336  15.413  0.00  0.00    +0.000 OA
ATOM      3  C   UNL     1       8.188  31.205  15.535  0.00  0.00    +0.000 C 
ATOM      4  C   UNL     1       6.859  30.648  15.459  0.00  0.00    +0.000 C 
ATOM      5  C   UNL     1       8.916  30.017  15.602  0.00  0.00    +0.000 C 
ATOM      6  C   UNL     1       6.959  29.134  15.467  0.00  0.00    +0.000 C 
ATOM      7  C   UNL     1       8.522  32.504  15.965  0.00  0.00    +0.000 C 
ATOM      8  C   UNL     1       8.841  33.824  16.394  0.00  0.00    +0.000 C 
ATOM      9  C   UNL     1       8.042  34.455  17.346  0.00  0.00    +0.000 C 
ATOM     10  C   UNL     1       8.359  35.748  17.749  0.00  0.00    +0.000 C 
ATOM     11  C   UNL     1       9.457  36.415  17.216  0.00  0.00    +0.000 C 
ATOM     12  C   UNL     1      10.252  35.779  16.266  0.00  0.00    +0.000 C 
ATOM     13  C   UNL     1       9.944  34.484  15.854  0.00  0.00    +0.000 C 
ATOM     14  C   UNL     1       5.653  31.385  15.462  0.00  0.00    +0.000 C 
ATOM     15  C   UNL     1       4.441  32.134  15.471  0.00  0.00    +0.000 C 
ATOM     16  C   UNL     1       4.366  33.339  14.777  0.00  0.00    +0.000 C 
ATOM     17  C   UNL     1       3.180  34.066  14.803  0.00  0.00    +0.000 C 
ATOM     18  C   UNL     1       2.075  33.607  15.510  0.00  0.00    +0.000 C 
ATOM     19  C   UNL     1       2.156  32.401  16.202  0.00  0.00    +0.000 C 
ATOM     20  C   UNL     1       3.339  31.663  16.183  0.00  0.00    +0.000 C 
ENDROOT
BRANCH  10  21
ATOM     21  O   UNL     1       7.597  36.394  18.679  0.00  0.00    +0.000 OA
ATOM     22  H   UNL     1       6.784  35.880  18.826  0.00  0.00    +0.000 HD
ENDBRANCH  10  21
BRANCH  17  23
ATOM     23  O   UNL     1       3.074  35.251  14.135  0.00  0.00    +0.000 OA
ATOM     24  H   UNL     1       3.630  35.911  14.586  0.00  0.00    +0.000 HD
ENDBRANCH  17  23
TORSDOF 2
ENDMDL
MODEL 2
REMARK VINA RESULT:      -7.8      2.222      3.561
REMARK  Name = Enterolactone.pdbqt.pdb
REMARK  2 active torsions:
REMARK  status: ('A' for Active; 'I' for Inactive)
REMARK    1  A    between atoms: C_10  and  O_14
REMARK    2  A    between atoms: C_19  and  O_23
REMARK                            x       y       z     vdW  Elec       q    Type
REMARK                         _______ _______ _______ _____ _____    ______ ____
ROOT
ATOM      1  O   UNL     1       3.120  27.554  15.270  0.00  0.00    +0.000 OA
ATOM      2  O   UNL     1       0.956  28.421  15.286  0.00  0.00    +0.000 OA
ATOM      3  C   UNL     1       4.340  29.566  14.982  0.00  0.00    +0.000 C 
ATOM      4  C   UNL     1       2.928  29.858  15.032  0.00  0.00    +0.000 C 
ATOM      5  C   UNL     1       4.279  28.182  15.147  0.00  0.00    +0.000 C 
ATOM      6  C   UNL     1       2.163  28.559  15.207  0.00  0.00    +0.000 C 
ATOM      7  C   UNL     1       5.386  30.470  15.246  0.00  0.00    +0.000 C 
ATOM      8  C   UNL     1       6.433  31.401  15.509  0.00  0.00    +0.000 C 
ATOM      9  C   UNL     1       6.227  32.434  16.420  0.00  0.00    +0.000 C 
ATOM     10  C   UNL     1       7.254  33.343  16.660  0.00  0.00    +0.000 C 
ATOM     11  C   UNL     1       8.475  33.232  16.003  0.00  0.00    +0.000 C 
ATOM     12  C   UNL     1       8.674  32.197  15.094  0.00  0.00    +0.000 C 
ATOM     13  C   UNL     1       7.653  31.281  14.846  0.00  0.00    +0.000 C 
ATOM     14  C   UNL     1       2.349  31.147  15.010  0.00  0.00    +0.000 C 
ATOM     15  C   UNL     1       1.774  32.451  14.992  0.00  0.00    +0.000 C 
ATOM     16  C   UNL     1       2.316  33.436  14.172  0.00  0.00    +0.000 C 
ATOM     17  C   UNL     1       1.751  34.708  14.172  0.00  0.00    +0.000 C 
ATOM     18  C   UNL     1       0.659  35.005  14.979  0.00  0.00    +0.000 C 
ATOM     19  C   UNL     1       0.120  34.014  15.797  0.00  0.00    +0.000 C 
ATOM     20  C   UNL     1       0.678  32.736  15.806  0.00  0.00    +0.000 C 
ENDROOT
BRANCH  10  21
ATOM     21  O   UNL     1       7.085  34.367  17.546  0.00  0.00    +0.000 OA
ATOM     22  H   UNL     1       6.132  34.520  17.666  0.00  0.00    +0.000 HD
ENDBRANCH  10  21
BRANCH  17  23
ATOM     23  O   UNL     1       2.259  35.696  13.381  0.00  0.00    +0.000 OA
ATOM     24  H   UNL     1       1.559  36.354  13.220  0.00  0.00    +0.000 HD
ENDBRANCH  17  23
TORSDOF 2
ENDMDL
MODEL 3
REMARK VINA RESULT:      -7.4      2.246      5.996
REMARK  Name = Enterolactone.pdbqt.pdb
REMARK  2 active torsions:
REMARK  status: ('A' for Active; 'I' for Inactive)
REMARK    1  A    between atoms: C_10  and  O_14
REMARK    2  A    between atoms: C_19  and  O_23
REMARK                            x       y       z     vdW  Elec       q    Type
REMARK                         _______ _______ _______ _____ _____    ______ ____
ROOT
ATOM      1  O   UNL     1       3.225  30.631  16.300  0.00  0.00    +0.000 OA
ATOM      2  O   UNL     1       3.376  32.880  16.894  0.00  0.00    +0.000 OA
ATOM      3  C   UNL     1       5.484  30.239  15.696  0.00  0.00    +0.000 C 
ATOM      4  C   UNL     1       5.327  31.609  16.123  0.00  0.00    +0.000 C 
ATOM      5  C   UNL     1       4.169  29.807  15.872  0.00  0.00    +0.000 C 
ATOM      6  C   UNL     1       3.875  31.844  16.495  0.00  0.00    +0.000 C 
ATOM      7  C   UNL     1       6.687  29.509  15.671  0.00  0.00    +0.000 C 
ATOM      8  C   UNL     1       7.916  28.787  15.644  0.00  0.00    +0.000 C 
ATOM      9  C   UNL     1       8.908  29.076  16.577  0.00  0.00    +0.000 C 
ATOM     10  C   UNL     1      10.108  28.372  16.534  0.00  0.00    +0.000 C 
ATOM     11  C   UNL     1      10.325  27.388  15.575  0.00  0.00    +0.000 C 
ATOM     12  C   UNL     1       9.328  27.104  14.645  0.00  0.00    +0.000 C 
ATOM     13  C   UNL     1       8.123  27.803  14.679  0.00  0.00    +0.000 C 
ATOM     14  C   UNL     1       6.366  32.557  16.256  0.00  0.00    +0.000 C 
ATOM     15  C   UNL     1       7.420  33.506  16.393  0.00  0.00    +0.000 C 
ATOM     16  C   UNL     1       8.450  33.536  15.458  0.00  0.00    +0.000 C 
ATOM     17  C   UNL     1       9.480  34.461  15.609  0.00  0.00    +0.000 C 
ATOM     18  C   UNL     1       9.491  35.349  16.679  0.00  0.00    +0.000 C 
ATOM     19  C   UNL     1       8.457  35.314  17.612  0.00  0.00    +0.000 C 
ATOM     20  C   UNL     1       7.421  34.392  17.470  0.00  0.00    +0.000 C 
ENDROOT
BRANCH  10  21
ATOM     21  O   UNL     1      11.101  28.630  17.433  0.00  0.00    +0.000 OA
ATOM     22  H   UNL     1      11.959  28.464  17.005  0.00  0.00    +0.000 HD
ENDBRANCH  10  21
BRANCH  17  23
ATOM     23  O   UNL     1      10.505  34.516  14.711  0.00  0.00    +0.000 OA
ATOM     24  H   UNL     1      10.756  33.606  14.472  0.00  0.00    +0.000 HD
ENDBRANCH  17  23
TORSDOF 2
ENDMDL
MODEL 4
REMARK VINA RESULT:      -6.3     11.608     15.771
REMARK  Name = Enterolactone.pdbqt.pdb
REMARK  2 active torsions:
REMARK  status: ('A' for Active; 'I' for Inactive)
REMARK    1  A    between atoms: C_10  and  O_14
REMARK    2  A    between atoms: C_19  and  O_23
REMARK                            x       y       z     vdW  Elec       q    Type
REMARK                         _______ _______ _______ _____ _____    ______ ____
ROOT
ATOM      1  O   UNL     1      -5.980  44.548  11.268  0.00  0.00    +0.000 OA
ATOM      2  O   UNL     1      -8.191  44.265  11.951  0.00  0.00    +0.000 OA
ATOM      3  C   UNL     1      -4.891  43.301  12.964  0.00  0.00    +0.000 C 
ATOM      4  C   UNL     1      -6.318  43.263  13.176  0.00  0.00    +0.000 C 
ATOM      5  C   UNL     1      -4.865  44.079  11.806  0.00  0.00    +0.000 C 
ATOM      6  C   UNL     1      -6.997  44.074  12.088  0.00  0.00    +0.000 C 
ATOM      7  C   UNL     1      -3.952  42.378  13.462  0.00  0.00    +0.000 C 
ATOM      8  C   UNL     1      -3.014  41.439  13.982  0.00  0.00    +0.000 C 
ATOM      9  C   UNL     1      -3.398  40.114  14.178  0.00  0.00    +0.000 C 
ATOM     10  C   UNL     1      -2.476  39.209  14.696  0.00  0.00    +0.000 C 
ATOM     11  C   UNL     1      -1.184  39.610  15.018  0.00  0.00    +0.000 C 
ATOM     12  C   UNL     1      -0.807  40.936  14.820  0.00  0.00    +0.000 C 
ATOM     13  C   UNL     1      -1.722  41.851  14.302  0.00  0.00    +0.000 C 
ATOM     14  C   UNL     1      -6.985  42.525  14.179  0.00  0.00    +0.000 C 
ATOM     15  C   UNL     1      -7.651  41.773  15.190  0.00  0.00    +0.000 C 
ATOM     16  C   UNL     1      -7.096  41.681  16.463  0.00  0.00    +0.000 C 
ATOM     17  C   UNL     1      -7.751  40.935  17.438  0.00  0.00    +0.000 C 
ATOM     18  C   UNL     1      -8.947  40.283  17.157  0.00  0.00    +0.000 C 
ATOM     19  C   UNL     1      -9.497  40.380  15.881  0.00  0.00    +0.000 C 
ATOM     20  C   UNL     1      -8.850  41.125  14.896  0.00  0.00    +0.000 C 
ENDROOT
BRANCH  10  21
ATOM     21  O   UNL     1      -2.819  37.904  14.900  0.00  0.00    +0.000 OA
ATOM     22  H   UNL     1      -2.047  37.433  15.258  0.00  0.00    +0.000 HD
ENDBRANCH  10  21
BRANCH  17  23
ATOM     23  O   UNL     1      -7.233  40.823  18.695  0.00  0.00    +0.000 OA
ATOM     24  H   UNL     1      -7.554  39.991  19.089  0.00  0.00    +0.000 HD
ENDBRANCH  17  23
TORSDOF 2
ENDMDL
MODEL 5
REMARK VINA RESULT:      -6.3     15.115     17.828
REMARK  Name = Enterolactone.pdbqt.pdb
REMARK  2 active torsions:
REMARK  status: ('A' for Active; 'I' for Inactive)
REMARK    1  A    between atoms: C_10  and  O_14
REMARK    2  A    between atoms: C_19  and  O_23
REMARK                            x       y       z     vdW  Elec       q    Type
REMARK                         _______ _______ _______ _____ _____    ______ ____
ROOT
ATOM      1  O   UNL     1      10.342  48.112  12.625  0.00  0.00    +0.000 OA
ATOM      2  O   UNL     1       9.884  45.994  11.766  0.00  0.00    +0.000 OA
ATOM      3  C   UNL     1      12.633  48.280  12.039  0.00  0.00    +0.000 C 
ATOM      4  C   UNL     1      12.108  47.013  11.587  0.00  0.00    +0.000 C 
ATOM      5  C   UNL     1      11.472  48.801  12.611  0.00  0.00    +0.000 C 
ATOM      6  C   UNL     1      10.646  46.919  11.979  0.00  0.00    +0.000 C 
ATOM      7  C   UNL     1      13.775  48.933  11.538  0.00  0.00    +0.000 C 
ATOM      8  C   UNL     1      14.938  49.575  11.024  0.00  0.00    +0.000 C 
ATOM      9  C   UNL     1      15.293  49.401   9.688  0.00  0.00    +0.000 C 
ATOM     10  C   UNL     1      16.437  50.025   9.201  0.00  0.00    +0.000 C 
ATOM     11  C   UNL     1      17.226  50.818  10.029  0.00  0.00    +0.000 C 
ATOM     12  C   UNL     1      16.866  50.988  11.363  0.00  0.00    +0.000 C 
ATOM     13  C   UNL     1      15.722  50.367  11.861  0.00  0.00    +0.000 C 
ATOM     14  C   UNL     1      12.811  46.050  10.829  0.00  0.00    +0.000 C 
ATOM     15  C   UNL     1      13.526  45.087  10.060  0.00  0.00    +0.000 C 
ATOM     16  C   UNL     1      14.870  44.844  10.330  0.00  0.00    +0.000 C 
ATOM     17  C   UNL     1      15.559  43.908   9.564  0.00  0.00    +0.000 C 
ATOM     18  C   UNL     1      14.925  43.217   8.537  0.00  0.00    +0.000 C 
ATOM     19  C   UNL     1      13.579  43.465   8.273  0.00  0.00    +0.000 C 
ATOM     20  C   UNL     1      12.879  44.400   9.033  0.00  0.00    +0.000 C 
ENDROOT
BRANCH  10  21
ATOM     21  O   UNL     1      16.813  49.875   7.898  0.00  0.00    +0.000 OA
ATOM     22  H   UNL     1      17.018  48.937   7.741  0.00  0.00    +0.000 HD
ENDBRANCH  10  21
BRANCH  17  23
ATOM     23  O   UNL     1      16.877  43.647   9.801  0.00  0.00    +0.000 OA
ATOM     24  H   UNL     1      17.253  43.213   9.014  0.00  0.00    +0.000 HD
ENDBRANCH  17  23
TORSDOF 2
ENDMDL
MODEL 6
REMARK VINA RESULT:      -6.3     16.607     19.040
REMARK  Name = Enterolactone.pdbqt.pdb
REMARK  2 active torsions:
REMARK  status: ('A' for Active; 'I' for Inactive)
REMARK    1  A    between atoms: C_10  and  O_14
REMARK    2  A    between atoms: C_19  and  O_23
REMARK                            x       y       z     vdW  Elec       q    Type
REMARK                         _______ _______ _______ _____ _____    ______ ____
ROOT
ATOM      1  O   UNL     1      -2.484  25.563  28.738  0.00  0.00    +0.000 OA
ATOM      2  O   UNL     1      -0.814  27.181  28.908  0.00  0.00    +0.000 OA
ATOM      3  C   UNL     1      -1.153  23.613  28.944  0.00  0.00    +0.000 C 
ATOM      4  C   UNL     1      -0.314  24.783  29.031  0.00  0.00    +0.000 C 
ATOM      5  C   UNL     1      -2.387  24.244  28.786  0.00  0.00    +0.000 C 
ATOM      6  C   UNL     1      -1.180  26.021  28.888  0.00  0.00    +0.000 C 
ATOM      7  C   UNL     1      -0.842  22.329  29.430  0.00  0.00    +0.000 C 
ATOM      8  C   UNL     1      -0.506  21.033  29.921  0.00  0.00    +0.000 C 
ATOM      9  C   UNL     1       0.313  20.908  31.040  0.00  0.00    +0.000 C 
ATOM     10  C   UNL     1       0.641  19.637  31.503  0.00  0.00    +0.000 C 
ATOM     11  C   UNL     1       0.164  18.498  30.864  0.00  0.00    +0.000 C 
ATOM     12  C   UNL     1      -0.655  18.630  29.745  0.00  0.00    +0.000 C 
ATOM     13  C   UNL     1      -0.990  19.898  29.273  0.00  0.00    +0.000 C 
ATOM     14  C   UNL     1       1.075  24.788  29.294  0.00  0.00    +0.000 C 
ATOM     15  C   UNL     1       2.474  24.783  29.564  0.00  0.00    +0.000 C 
ATOM     16  C   UNL     1       3.285  23.801  29.002  0.00  0.00    +0.000 C 
ATOM     17  C   UNL     1       4.648  23.801  29.283  0.00  0.00    +0.000 C 
ATOM     18  C   UNL     1       5.206  24.766  30.114  0.00  0.00    +0.000 C 
ATOM     19  C   UNL     1       4.390  25.747  30.672  0.00  0.00    +0.000 C 
ATOM     20  C   UNL     1       3.023  25.756  30.398  0.00  0.00    +0.000 C 
ENDROOT
BRANCH  10  21
ATOM     21  O   UNL     1       1.441  19.479  32.597  0.00  0.00    +0.000 OA
ATOM     22  H   UNL     1       0.914  19.081  33.312  0.00  0.00    +0.000 HD
ENDBRANCH  10  21
BRANCH  17  23
ATOM     23  O   UNL     1       5.470  22.852  28.750  0.00  0.00    +0.000 OA
ATOM     24  H   UNL     1       6.323  23.269  28.532  0.00  0.00    +0.000 HD
ENDBRANCH  17  23
TORSDOF 2
ENDMDL
MODEL 7
REMARK VINA RESULT:      -6.2     32.629     34.507
REMARK  Name = Enterolactone.pdbqt.pdb
REMARK  2 active torsions:
REMARK  status: ('A' for Active; 'I' for Inactive)
REMARK    1  A    between atoms: C_10  and  O_14
REMARK    2  A    between atoms: C_19  and  O_23
REMARK                            x       y       z     vdW  Elec       q    Type
REMARK                         _______ _______ _______ _____ _____    ______ ____
ROOT
ATOM      1  O   UNL     1      10.653  58.739  -7.231  0.00  0.00    +0.000 OA
ATOM      2  O   UNL     1       8.907  59.716  -6.036  0.00  0.00    +0.000 OA
ATOM      3  C   UNL     1       9.484  56.924  -8.209  0.00  0.00    +0.000 C 
ATOM      4  C   UNL     1       8.578  57.706  -7.403  0.00  0.00    +0.000 C 
ATOM      5  C   UNL     1      10.647  57.669  -8.010  0.00  0.00    +0.000 C 
ATOM      6  C   UNL     1       9.345  58.856  -6.777  0.00  0.00    +0.000 C 
ATOM      7  C   UNL     1       9.125  56.057  -9.259  0.00  0.00    +0.000 C 
ATOM      8  C   UNL     1       8.743  55.178 -10.313  0.00  0.00    +0.000 C 
ATOM      9  C   UNL     1       7.606  55.455 -11.068  0.00  0.00    +0.000 C 
ATOM     10  C   UNL     1       7.238  54.583 -12.088  0.00  0.00    +0.000 C 
ATOM     11  C   UNL     1       7.989  53.444 -12.361  0.00  0.00    +0.000 C 
ATOM     12  C   UNL     1       9.125  53.173 -11.602  0.00  0.00    +0.000 C 
ATOM     13  C   UNL     1       9.503  54.040 -10.578  0.00  0.00    +0.000 C 
ATOM     14  C   UNL     1       7.187  57.493  -7.279  0.00  0.00    +0.000 C 
ATOM     15  C   UNL     1       5.783  57.274  -7.164  0.00  0.00    +0.000 C 
ATOM     16  C   UNL     1       5.287  55.975  -7.104  0.00  0.00    +0.000 C 
ATOM     17  C   UNL     1       3.914  55.775  -7.004  0.00  0.00    +0.000 C 
ATOM     18  C   UNL     1       3.036  56.852  -6.963  0.00  0.00    +0.000 C 
ATOM     19  C   UNL     1       3.538  58.150  -7.022  0.00  0.00    +0.000 C 
ATOM     20  C   UNL     1       4.912  58.362  -7.124  0.00  0.00    +0.000 C 
ENDROOT
BRANCH  10  21
ATOM     21  O   UNL     1       6.130  54.825 -12.846  0.00  0.00    +0.000 OA
ATOM     22  H   UNL     1       6.415  55.083 -13.740  0.00  0.00    +0.000 HD
ENDBRANCH  10  21
BRANCH  17  23
ATOM     23  O   UNL     1       3.395  54.515  -6.944  0.00  0.00    +0.000 OA
ATOM     24  H   UNL     1       2.543  54.508  -7.417  0.00  0.00    +0.000 HD
ENDBRANCH  17  23
TORSDOF 2
ENDMDL
MODEL 8
REMARK VINA RESULT:      -6.1     30.554     33.381
REMARK  Name = Enterolactone.pdbqt.pdb
REMARK  2 active torsions:
REMARK  status: ('A' for Active; 'I' for Inactive)
REMARK    1  A    between atoms: C_10  and  O_14
REMARK    2  A    between atoms: C_19  and  O_23
REMARK                            x       y       z     vdW  Elec       q    Type
REMARK                         _______ _______ _______ _____ _____    ______ ____
ROOT
ATOM      1  O   UNL     1       0.813  65.160   6.673  0.00  0.00    +0.000 OA
ATOM      2  O   UNL     1       1.686  64.271   8.643  0.00  0.00    +0.000 OA
ATOM      3  C   UNL     1      -1.382  64.273   6.787  0.00  0.00    +0.000 C 
ATOM      4  C   UNL     1      -0.628  63.852   7.944  0.00  0.00    +0.000 C 
ATOM      5  C   UNL     1      -0.399  65.037   6.156  0.00  0.00    +0.000 C 
ATOM      6  C   UNL     1       0.776  64.421   7.849  0.00  0.00    +0.000 C 
ATOM      7  C   UNL     1      -2.784  64.328   6.684  0.00  0.00    +0.000 C 
ATOM      8  C   UNL     1      -4.206  64.369   6.595  0.00  0.00    +0.000 C 
ATOM      9  C   UNL     1      -4.964  64.627   7.735  0.00  0.00    +0.000 C 
ATOM     10  C   UNL     1      -6.352  64.654   7.636  0.00  0.00    +0.000 C 
ATOM     11  C   UNL     1      -6.987  64.428   6.420  0.00  0.00    +0.000 C 
ATOM     12  C   UNL     1      -6.224  64.171   5.284  0.00  0.00    +0.000 C 
ATOM     13  C   UNL     1      -4.833  64.141   5.371  0.00  0.00    +0.000 C 
ATOM     14  C   UNL     1      -1.132  63.106   9.032  0.00  0.00    +0.000 C 
ATOM     15  C   UNL     1      -1.650  62.357  10.129  0.00  0.00    +0.000 C 
ATOM     16  C   UNL     1      -2.557  61.328   9.897  0.00  0.00    +0.000 C 
ATOM     17  C   UNL     1      -3.064  60.611  10.978  0.00  0.00    +0.000 C 
ATOM     18  C   UNL     1      -2.676  60.911  12.279  0.00  0.00    +0.000 C 
ATOM     19  C   UNL     1      -1.767  61.942  12.504  0.00  0.00    +0.000 C 
ATOM     20  C   UNL     1      -1.253  62.667  11.429  0.00  0.00    +0.000 C 
ENDROOT
BRANCH  10  21
ATOM     21  O   UNL     1      -7.124  64.904   8.733  0.00  0.00    +0.000 OA
ATOM     22  H   UNL     1      -6.592  64.738   9.531  0.00  0.00    +0.000 HD
ENDBRANCH  10  21
BRANCH  17  23
ATOM     23  O   UNL     1      -3.956  59.597  10.786  0.00  0.00    +0.000 OA
ATOM     24  H   UNL     1      -4.112  59.500   9.829  0.00  0.00    +0.000 HD
ENDBRANCH  17  23
TORSDOF 2
ENDMDL
MODEL 9
REMARK VINA RESULT:      -6.1     15.409     17.196
REMARK  Name = Enterolactone.pdbqt.pdb
REMARK  2 active torsions:
REMARK  status: ('A' for Active; 'I' for Inactive)
REMARK    1  A    between atoms: C_10  and  O_14
REMARK    2  A    between atoms: C_19  and  O_23
REMARK                            x       y       z     vdW  Elec       q    Type
REMARK                         _______ _______ _______ _____ _____    ______ ____
ROOT
ATOM      1  O   UNL     1      12.042  45.181   8.641  0.00  0.00    +0.000 OA
ATOM      2  O   UNL     1      13.958  43.978   9.203  0.00  0.00    +0.000 OA
ATOM      3  C   UNL     1      11.869  46.554  10.565  0.00  0.00    +0.000 C 
ATOM      4  C   UNL     1      13.026  45.699  10.682  0.00  0.00    +0.000 C 
ATOM      5  C   UNL     1      11.416  46.134   9.314  0.00  0.00    +0.000 C 
ATOM      6  C   UNL     1      13.115  44.821   9.448  0.00  0.00    +0.000 C 
ATOM      7  C   UNL     1      11.658  47.765  11.250  0.00  0.00    +0.000 C 
ATOM      8  C   UNL     1      11.457  48.985  11.959  0.00  0.00    +0.000 C 
ATOM      9  C   UNL     1      12.553  49.770  12.312  0.00  0.00    +0.000 C 
ATOM     10  C   UNL     1      12.344  50.953  13.013  0.00  0.00    +0.000 C 
ATOM     11  C   UNL     1      11.061  51.360  13.364  0.00  0.00    +0.000 C 
ATOM     12  C   UNL     1       9.969  50.571  13.008  0.00  0.00    +0.000 C 
ATOM     13  C   UNL     1      10.167  49.384  12.306  0.00  0.00    +0.000 C 
ATOM     14  C   UNL     1      13.972  45.729  11.730  0.00  0.00    +0.000 C 
ATOM     15  C   UNL     1      14.926  45.768  12.789  0.00  0.00    +0.000 C 
ATOM     16  C   UNL     1      14.500  45.978  14.097  0.00  0.00    +0.000 C 
ATOM     17  C   UNL     1      15.442  46.026  15.120  0.00  0.00    +0.000 C 
ATOM     18  C   UNL     1      16.797  45.868  14.852  0.00  0.00    +0.000 C 
ATOM     19  C   UNL     1      17.217  45.658  13.540  0.00  0.00    +0.000 C 
ATOM     20  C   UNL     1      16.282  45.608  12.507  0.00  0.00    +0.000 C 
ENDROOT
BRANCH  10  21
ATOM     21  O   UNL     1      13.395  51.745  13.373  0.00  0.00    +0.000 OA
ATOM     22  H   UNL     1      13.362  51.886  14.336  0.00  0.00    +0.000 HD
ENDBRANCH  10  21
BRANCH  17  23
ATOM     23  O   UNL     1      15.059  46.231  16.413  0.00  0.00    +0.000 OA
ATOM     24  H   UNL     1      14.521  47.042  16.451  0.00  0.00    +0.000 HD
ENDBRANCH  17  23
TORSDOF 2
ENDMDL
