MODEL 1
REMARK VINA RESULT:      -8.8      0.000      0.000
REMARK  Name = 
REMARK  12 active torsions:
REMARK  status: ('A' for Active; 'I' for Inactive)
REMARK    1  A    between atoms: O_2  and  C_12
REMARK    2  A    between atoms: O_2  and  C_24
REMARK    3  A    between atoms: O_3  and  C_18
REMARK    4  A    between atoms: O_4  and  C_23
REMARK    5  A    between atoms: O_5  and  C_25
REMARK    6  A    between atoms: O_6  and  C_26
REMARK    7  A    between atoms: O_8  and  C_27
REMARK    8  A    between atoms: O_9  and  C_31
REMARK    9  A    between atoms: O_10  and  C_32
REMARK   10  A    between atoms: O_11  and  C_33
REMARK   11  A    between atoms: C_13  and  C_16
REMARK   12  A    between atoms: C_24  and  C_28
REMARK                            x       y       z     vdW  Elec       q    Type
REMARK                         _______ _______ _______ _____ _____    ______ ____
ROOT
ATOM      1  O   UNL     1      -4.137  41.170  13.271  0.00  0.00    +0.000 OA
ATOM      2  C   UNL     1      -5.432  43.262  13.500  0.00  0.00    +0.000 C 
ATOM      3  C   UNL     1      -5.427  41.725  13.580  0.00  0.00    +0.000 C 
ATOM      4  C   UNL     1      -4.456  43.801  14.545  0.00  0.00    +0.000 C 
ATOM      5  C   UNL     1      -3.173  43.009  14.558  0.00  0.00    +0.000 A 
ATOM      6  C   UNL     1      -3.093  41.757  13.935  0.00  0.00    +0.000 A 
ATOM      7  C   UNL     1      -2.039  43.500  15.217  0.00  0.00    +0.000 A 
ATOM      8  C   UNL     1      -1.897  41.037  13.930  0.00  0.00    +0.000 A 
ATOM      9  C   UNL     1      -0.844  42.784  15.228  0.00  0.00    +0.000 A 
ATOM     10  C   UNL     1      -0.782  41.558  14.579  0.00  0.00    +0.000 A 
ENDROOT
BRANCH   3  11
ATOM     11  C   UNL     1      -6.464  41.111  12.648  0.00  0.00    +0.000 A 
ATOM     12  C   UNL     1      -7.710  40.700  13.162  0.00  0.00    +0.000 A 
ATOM     13  C   UNL     1      -6.217  40.978  11.269  0.00  0.00    +0.000 A 
ATOM     14  C   UNL     1      -7.195  40.442  10.437  0.00  0.00    +0.000 A 
ATOM     15  C   UNL     1      -8.680  40.161  12.316  0.00  0.00    +0.000 A 
ATOM     16  C   UNL     1      -8.421  40.033  10.955  0.00  0.00    +0.000 A 
BRANCH  14  17
ATOM     17  O   UNL     1      -6.994  40.301   9.090  0.00  0.00    +0.000 OA
ATOM     18  H   UNL     1      -7.572  40.932   8.627  0.00  0.00    +0.000 HD
ENDBRANCH  14  17
BRANCH  15  19
ATOM     19  O   UNL     1      -9.887  39.758  12.811  0.00  0.00    +0.000 OA
ATOM     20  H   UNL     1     -10.557  40.432  12.624  0.00  0.00    +0.000 HD
ENDBRANCH  15  19
BRANCH  16  21
ATOM     21  O   UNL     1      -9.360  39.511  10.108  0.00  0.00    +0.000 OA
ATOM     22  H   UNL     1     -10.208  39.624  10.578  0.00  0.00    +0.000 HD
ENDBRANCH  16  21
ENDBRANCH   3  11
BRANCH   7  23
ATOM     23  O   UNL     1      -2.123  44.707  15.853  0.00  0.00    +0.000 OA
ATOM     24  H   UNL     1      -2.488  44.567  16.743  0.00  0.00    +0.000 HD
ENDBRANCH   7  23
BRANCH  10  25
ATOM     25  O   UNL     1       0.403  40.885  14.607  0.00  0.00    +0.000 OA
ATOM     26  H   UNL     1       0.225  39.932  14.528  0.00  0.00    +0.000 HD
ENDBRANCH  10  25
BRANCH   2  27
ATOM     27  O   UNL     1      -4.994  43.683  12.185  0.00  0.00    +0.000 OA
BRANCH  27  29
ATOM     28  O   UNL     1      -6.751  45.145  11.970  0.00  0.00    +0.000 OA
ATOM     29  C   UNL     1      -5.656  44.725  11.635  0.00  0.00    +0.000 C 
BRANCH  29  30
ATOM     30  C   UNL     1      -4.866  45.284  10.509  0.00  0.00    +0.000 A 
ATOM     31  C   UNL     1      -5.368  45.123   9.208  0.00  0.00    +0.000 A 
ATOM     32  C   UNL     1      -3.655  45.966  10.721  0.00  0.00    +0.000 A 
ATOM     33  C   UNL     1      -2.945  46.469   9.633  0.00  0.00    +0.000 A 
ATOM     34  C   UNL     1      -4.645  45.629   8.134  0.00  0.00    +0.000 A 
ATOM     35  C   UNL     1      -3.438  46.294   8.343  0.00  0.00    +0.000 A 
BRANCH  33  36
ATOM     36  O   UNL     1      -1.766  47.131   9.821  0.00  0.00    +0.000 OA
ATOM     37  H   UNL     1      -1.459  47.496   8.978  0.00  0.00    +0.000 HD
ENDBRANCH  33  36
BRANCH  34  38
ATOM     38  O   UNL     1      -5.084  45.495   6.845  0.00  0.00    +0.000 OA
ATOM     39  H   UNL     1      -5.377  44.576   6.710  0.00  0.00    +0.000 HD
ENDBRANCH  34  38
BRANCH  35  40
ATOM     40  O   UNL     1      -2.753  46.779   7.262  0.00  0.00    +0.000 OA
ATOM     41  H   UNL     1      -2.555  45.995   6.715  0.00  0.00    +0.000 HD
ENDBRANCH  35  40
ENDBRANCH  29  30
ENDBRANCH  27  29
ENDBRANCH   2  27
TORSDOF 12
ENDMDL
MODEL 2
REMARK VINA RESULT:      -8.3     15.290     18.887
REMARK  Name = 
REMARK  12 active torsions:
REMARK  status: ('A' for Active; 'I' for Inactive)
REMARK    1  A    between atoms: O_2  and  C_12
REMARK    2  A    between atoms: O_2  and  C_24
REMARK    3  A    between atoms: O_3  and  C_18
REMARK    4  A    between atoms: O_4  and  C_23
REMARK    5  A    between atoms: O_5  and  C_25
REMARK    6  A    between atoms: O_6  and  C_26
REMARK    7  A    between atoms: O_8  and  C_27
REMARK    8  A    between atoms: O_9  and  C_31
REMARK    9  A    between atoms: O_10  and  C_32
REMARK   10  A    between atoms: O_11  and  C_33
REMARK   11  A    between atoms: C_13  and  C_16
REMARK   12  A    between atoms: C_24  and  C_28
REMARK                            x       y       z     vdW  Elec       q    Type
REMARK                         _______ _______ _______ _____ _____    ______ ____
ROOT
ATOM      1  O   UNL     1       9.608  30.643  17.074  0.00  0.00    +0.000 OA
ATOM      2  C   UNL     1       7.923  31.074  15.319  0.00  0.00    +0.000 C 
ATOM      3  C   UNL     1       9.134  31.599  16.110  0.00  0.00    +0.000 C 
ATOM      4  C   UNL     1       8.359  29.836  14.537  0.00  0.00    +0.000 C 
ATOM      5  C   UNL     1       9.214  28.925  15.382  0.00  0.00    +0.000 A 
ATOM      6  C   UNL     1       9.783  29.378  16.579  0.00  0.00    +0.000 A 
ATOM      7  C   UNL     1       9.475  27.612  14.974  0.00  0.00    +0.000 A 
ATOM      8  C   UNL     1      10.555  28.525  17.370  0.00  0.00    +0.000 A 
ATOM      9  C   UNL     1      10.254  26.755  15.750  0.00  0.00    +0.000 A 
ATOM     10  C   UNL     1      10.784  27.220  16.946  0.00  0.00    +0.000 A 
ENDROOT
BRANCH   3  11
ATOM     11  C   UNL     1       8.812  32.904  16.827  0.00  0.00    +0.000 A 
ATOM     12  C   UNL     1       8.447  34.041  16.080  0.00  0.00    +0.000 A 
ATOM     13  C   UNL     1       8.839  32.990  18.232  0.00  0.00    +0.000 A 
ATOM     14  C   UNL     1       8.512  34.187  18.860  0.00  0.00    +0.000 A 
ATOM     15  C   UNL     1       8.124  35.237  16.724  0.00  0.00    +0.000 A 
ATOM     16  C   UNL     1       8.156  35.307  18.113  0.00  0.00    +0.000 A 
BRANCH  14  17
ATOM     17  O   UNL     1       8.521  34.308  20.224  0.00  0.00    +0.000 OA
ATOM     18  H   UNL     1       7.609  34.464  20.523  0.00  0.00    +0.000 HD
ENDBRANCH  14  17
BRANCH  15  19
ATOM     19  O   UNL     1       7.771  36.341  16.003  0.00  0.00    +0.000 OA
ATOM     20  H   UNL     1       6.932  36.178  15.547  0.00  0.00    +0.000 HD
ENDBRANCH  15  19
BRANCH  16  21
ATOM     21  O   UNL     1       7.840  36.468  18.764  0.00  0.00    +0.000 OA
ATOM     22  H   UNL     1       7.094  36.841  18.256  0.00  0.00    +0.000 HD
ENDBRANCH  16  21
ENDBRANCH   3  11
BRANCH   7  23
ATOM     23  O   UNL     1       8.947  27.177  13.791  0.00  0.00    +0.000 OA
ATOM     24  H   UNL     1       9.628  27.240  13.102  0.00  0.00    +0.000 HD
ENDBRANCH   7  23
BRANCH  10  25
ATOM     25  O   UNL     1      11.539  26.356  17.683  0.00  0.00    +0.000 OA
ATOM     26  H   UNL     1      11.593  25.507  17.212  0.00  0.00    +0.000 HD
ENDBRANCH  10  25
BRANCH   2  27
ATOM     27  O   UNL     1       6.865  30.702  16.237  0.00  0.00    +0.000 OA
BRANCH  27  29
ATOM     28  O   UNL     1       5.395  32.465  16.275  0.00  0.00    +0.000 OA
ATOM     29  C   UNL     1       5.667  31.297  16.048  0.00  0.00    +0.000 C 
BRANCH  29  30
ATOM     30  C   UNL     1       4.685  30.302  15.548  0.00  0.00    +0.000 A 
ATOM     31  C   UNL     1       3.325  30.527  15.815  0.00  0.00    +0.000 A 
ATOM     32  C   UNL     1       5.086  29.168  14.819  0.00  0.00    +0.000 A 
ATOM     33  C   UNL     1       4.128  28.259  14.375  0.00  0.00    +0.000 A 
ATOM     34  C   UNL     1       2.385  29.608  15.366  0.00  0.00    +0.000 A 
ATOM     35  C   UNL     1       2.782  28.477  14.654  0.00  0.00    +0.000 A 
BRANCH  33  36
ATOM     36  O   UNL     1       4.500  27.151  13.668  0.00  0.00    +0.000 OA
ATOM     37  H   UNL     1       5.101  26.611  14.201  0.00  0.00    +0.000 HD
ENDBRANCH  33  36
BRANCH  34  38
ATOM     38  O   UNL     1       1.047  29.774  15.604  0.00  0.00    +0.000 OA
ATOM     39  H   UNL     1       0.754  30.595  15.169  0.00  0.00    +0.000 HD
ENDBRANCH  34  38
BRANCH  35  40
ATOM     40  O   UNL     1       1.828  27.593  14.228  0.00  0.00    +0.000 OA
ATOM     41  H   UNL     1       1.326  27.355  15.031  0.00  0.00    +0.000 HD
ENDBRANCH  35  40
ENDBRANCH  29  30
ENDBRANCH  27  29
ENDBRANCH   2  27
TORSDOF 12
ENDMDL
MODEL 3
REMARK VINA RESULT:      -8.2     15.317     18.855
REMARK  Name = 
REMARK  12 active torsions:
REMARK  status: ('A' for Active; 'I' for Inactive)
REMARK    1  A    between atoms: O_2  and  C_12
REMARK    2  A    between atoms: O_2  and  C_24
REMARK    3  A    between atoms: O_3  and  C_18
REMARK    4  A    between atoms: O_4  and  C_23
REMARK    5  A    between atoms: O_5  and  C_25
REMARK    6  A    between atoms: O_6  and  C_26
REMARK    7  A    between atoms: O_8  and  C_27
REMARK    8  A    between atoms: O_9  and  C_31
REMARK    9  A    between atoms: O_10  and  C_32
REMARK   10  A    between atoms: O_11  and  C_33
REMARK   11  A    between atoms: C_13  and  C_16
REMARK   12  A    between atoms: C_24  and  C_28
REMARK                            x       y       z     vdW  Elec       q    Type
REMARK                         _______ _______ _______ _____ _____    ______ ____
ROOT
ATOM      1  O   UNL     1       9.552  30.650  17.051  0.00  0.00    +0.000 OA
ATOM      2  C   UNL     1       7.862  31.068  15.297  0.00  0.00    +0.000 C 
ATOM      3  C   UNL     1       9.070  31.602  16.087  0.00  0.00    +0.000 C 
ATOM      4  C   UNL     1       8.306  29.832  14.515  0.00  0.00    +0.000 C 
ATOM      5  C   UNL     1       9.167  28.928  15.360  0.00  0.00    +0.000 A 
ATOM      6  C   UNL     1       9.735  29.386  16.557  0.00  0.00    +0.000 A 
ATOM      7  C   UNL     1       9.437  27.616  14.953  0.00  0.00    +0.000 A 
ATOM      8  C   UNL     1      10.513  28.538  17.347  0.00  0.00    +0.000 A 
ATOM      9  C   UNL     1      10.223  26.766  15.729  0.00  0.00    +0.000 A 
ATOM     10  C   UNL     1      10.751  27.235  16.924  0.00  0.00    +0.000 A 
ENDROOT
BRANCH   3  11
ATOM     11  C   UNL     1       8.740  32.905  16.803  0.00  0.00    +0.000 A 
ATOM     12  C   UNL     1       8.796  32.964  18.209  0.00  0.00    +0.000 A 
ATOM     13  C   UNL     1       8.413  34.069  16.082  0.00  0.00    +0.000 A 
ATOM     14  C   UNL     1       8.146  35.254  16.762  0.00  0.00    +0.000 A 
ATOM     15  C   UNL     1       8.523  34.160  18.877  0.00  0.00    +0.000 A 
ATOM     16  C   UNL     1       8.199  35.302  18.153  0.00  0.00    +0.000 A 
BRANCH  14  17
ATOM     17  O   UNL     1       7.830  36.408  16.097  0.00  0.00    +0.000 OA
ATOM     18  H   UNL     1       7.663  36.188  15.164  0.00  0.00    +0.000 HD
ENDBRANCH  14  17
BRANCH  15  19
ATOM     19  O   UNL     1       8.573  34.219  20.241  0.00  0.00    +0.000 OA
ATOM     20  H   UNL     1       8.850  35.106  20.518  0.00  0.00    +0.000 HD
ENDBRANCH  15  19
BRANCH  16  21
ATOM     21  O   UNL     1       7.931  36.483  18.788  0.00  0.00    +0.000 OA
ATOM     22  H   UNL     1       7.473  37.026  18.118  0.00  0.00    +0.000 HD
ENDBRANCH  16  21
ENDBRANCH   3  11
BRANCH   7  23
ATOM     23  O   UNL     1       8.911  27.176  13.771  0.00  0.00    +0.000 OA
ATOM     24  H   UNL     1       9.591  27.244  13.081  0.00  0.00    +0.000 HD
ENDBRANCH   7  23
BRANCH  10  25
ATOM     25  O   UNL     1      11.512  26.376  17.661  0.00  0.00    +0.000 OA
ATOM     26  H   UNL     1      11.572  25.527  17.191  0.00  0.00    +0.000 HD
ENDBRANCH  10  25
BRANCH   2  27
ATOM     27  O   UNL     1       6.807  30.689  16.216  0.00  0.00    +0.000 OA
BRANCH  27  29
ATOM     28  O   UNL     1       5.358  32.469  16.271  0.00  0.00    +0.000 OA
ATOM     29  C   UNL     1       5.612  31.297  16.045  0.00  0.00    +0.000 C 
BRANCH  29  30
ATOM     30  C   UNL     1       4.611  30.310  15.568  0.00  0.00    +0.000 A 
ATOM     31  C   UNL     1       5.073  29.200  14.844  0.00  0.00    +0.000 A 
ATOM     32  C   UNL     1       3.238  30.462  15.833  0.00  0.00    +0.000 A 
ATOM     33  C   UNL     1       2.335  29.512  15.361  0.00  0.00    +0.000 A 
ATOM     34  C   UNL     1       4.157  28.265  14.379  0.00  0.00    +0.000 A 
ATOM     35  C   UNL     1       2.794  28.420  14.630  0.00  0.00    +0.000 A 
BRANCH  33  36
ATOM     36  O   UNL     1       0.998  29.645  15.607  0.00  0.00    +0.000 OA
ATOM     37  H   UNL     1       0.685  30.492  15.257  0.00  0.00    +0.000 HD
ENDBRANCH  33  36
BRANCH  34  38
ATOM     38  O   UNL     1       4.551  27.168  13.663  0.00  0.00    +0.000 OA
ATOM     39  H   UNL     1       3.778  26.591  13.525  0.00  0.00    +0.000 HD
ENDBRANCH  34  38
BRANCH  35  40
ATOM     40  O   UNL     1       1.921  27.480  14.156  0.00  0.00    +0.000 OA
ATOM     41  H   UNL     1       2.106  27.422  13.199  0.00  0.00    +0.000 HD
ENDBRANCH  35  40
ENDBRANCH  29  30
ENDBRANCH  27  29
ENDBRANCH   2  27
TORSDOF 12
ENDMDL
MODEL 4
REMARK VINA RESULT:      -7.7     15.625     18.787
REMARK  Name = 
REMARK  12 active torsions:
REMARK  status: ('A' for Active; 'I' for Inactive)
REMARK    1  A    between atoms: O_2  and  C_12
REMARK    2  A    between atoms: O_2  and  C_24
REMARK    3  A    between atoms: O_3  and  C_18
REMARK    4  A    between atoms: O_4  and  C_23
REMARK    5  A    between atoms: O_5  and  C_25
REMARK    6  A    between atoms: O_6  and  C_26
REMARK    7  A    between atoms: O_8  and  C_27
REMARK    8  A    between atoms: O_9  and  C_31
REMARK    9  A    between atoms: O_10  and  C_32
REMARK   10  A    between atoms: O_11  and  C_33
REMARK   11  A    between atoms: C_13  and  C_16
REMARK   12  A    between atoms: C_24  and  C_28
REMARK                            x       y       z     vdW  Elec       q    Type
REMARK                         _______ _______ _______ _____ _____    ______ ____
ROOT
ATOM      1  O   UNL     1      10.508  33.344  16.074  0.00  0.00    +0.000 OA
ATOM      2  C   UNL     1       8.367  33.056  17.274  0.00  0.00    +0.000 C 
ATOM      3  C   UNL     1       9.868  32.724  17.203  0.00  0.00    +0.000 C 
ATOM      4  C   UNL     1       8.217  34.567  17.454  0.00  0.00    +0.000 C 
ATOM      5  C   UNL     1       9.158  35.324  16.552  0.00  0.00    +0.000 A 
ATOM      6  C   UNL     1      10.235  34.678  15.929  0.00  0.00    +0.000 A 
ATOM      7  C   UNL     1       8.988  36.696  16.335  0.00  0.00    +0.000 A 
ATOM      8  C   UNL     1      11.090  35.378  15.077  0.00  0.00    +0.000 A 
ATOM      9  C   UNL     1       9.843  37.407  15.496  0.00  0.00    +0.000 A 
ATOM     10  C   UNL     1      10.887  36.738  14.869  0.00  0.00    +0.000 A 
ENDROOT
BRANCH   3  11
ATOM     11  C   UNL     1      10.107  31.221  17.141  0.00  0.00    +0.000 A 
ATOM     12  C   UNL     1      10.024  30.451  18.318  0.00  0.00    +0.000 A 
ATOM     13  C   UNL     1      10.377  30.575  15.920  0.00  0.00    +0.000 A 
ATOM     14  C   UNL     1      10.561  29.197  15.889  0.00  0.00    +0.000 A 
ATOM     15  C   UNL     1      10.214  29.068  18.272  0.00  0.00    +0.000 A 
ATOM     16  C   UNL     1      10.482  28.444  17.059  0.00  0.00    +0.000 A 
BRANCH  14  17
ATOM     17  O   UNL     1      10.820  28.532  14.721  0.00  0.00    +0.000 OA
ATOM     18  H   UNL     1      10.001  28.096  14.429  0.00  0.00    +0.000 HD
ENDBRANCH  14  17
BRANCH  15  19
ATOM     19  O   UNL     1      10.137  28.319  19.411  0.00  0.00    +0.000 OA
ATOM     20  H   UNL     1       9.858  28.879  20.151  0.00  0.00    +0.000 HD
ENDBRANCH  15  19
BRANCH  16  21
ATOM     21  O   UNL     1      10.668  27.090  16.991  0.00  0.00    +0.000 OA
ATOM     22  H   UNL     1      10.033  26.721  17.634  0.00  0.00    +0.000 HD
ENDBRANCH  16  21
ENDBRANCH   3  11
BRANCH   7  23
ATOM     23  O   UNL     1       7.958  37.335  16.966  0.00  0.00    +0.000 OA
ATOM     24  H   UNL     1       7.262  36.687  17.166  0.00  0.00    +0.000 HD
ENDBRANCH   7  23
BRANCH  10  25
ATOM     25  O   UNL     1      11.703  37.462  14.051  0.00  0.00    +0.000 OA
ATOM     26  H   UNL     1      12.621  37.364  14.357  0.00  0.00    +0.000 HD
ENDBRANCH  10  25
BRANCH   2  27
ATOM     27  O   UNL     1       7.721  32.663  16.038  0.00  0.00    +0.000 OA
BRANCH  27  29
ATOM     28  O   UNL     1       5.541  33.099  16.609  0.00  0.00    +0.000 OA
ATOM     29  C   UNL     1       6.400  32.391  16.108  0.00  0.00    +0.000 C 
BRANCH  29  30
ATOM     30  C   UNL     1       6.128  31.059  15.512  0.00  0.00    +0.000 A 
ATOM     31  C   UNL     1       4.807  30.586  15.532  0.00  0.00    +0.000 A 
ATOM     32  C   UNL     1       7.149  30.287  14.931  0.00  0.00    +0.000 A 
ATOM     33  C   UNL     1       6.847  29.039  14.388  0.00  0.00    +0.000 A 
ATOM     34  C   UNL     1       4.525  29.338  14.988  0.00  0.00    +0.000 A 
ATOM     35  C   UNL     1       5.539  28.565  14.422  0.00  0.00    +0.000 A 
BRANCH  33  36
ATOM     36  O   UNL     1       7.827  28.275  13.822  0.00  0.00    +0.000 OA
ATOM     37  H   UNL     1       8.683  28.719  13.918  0.00  0.00    +0.000 HD
ENDBRANCH  33  36
BRANCH  34  38
ATOM     38  O   UNL     1       3.257  28.825  14.986  0.00  0.00    +0.000 OA
ATOM     39  H   UNL     1       3.275  27.953  14.553  0.00  0.00    +0.000 HD
ENDBRANCH  34  38
BRANCH  35  40
ATOM     40  O   UNL     1       5.225  27.342  13.896  0.00  0.00    +0.000 OA
ATOM     41  H   UNL     1       5.766  27.268  13.086  0.00  0.00    +0.000 HD
ENDBRANCH  35  40
ENDBRANCH  29  30
ENDBRANCH  27  29
ENDBRANCH   2  27
TORSDOF 12
ENDMDL
MODEL 5
REMARK VINA RESULT:      -7.6      1.967      2.391
REMARK  Name = 
REMARK  12 active torsions:
REMARK  status: ('A' for Active; 'I' for Inactive)
REMARK    1  A    between atoms: O_2  and  C_12
REMARK    2  A    between atoms: O_2  and  C_24
REMARK    3  A    between atoms: O_3  and  C_18
REMARK    4  A    between atoms: O_4  and  C_23
REMARK    5  A    between atoms: O_5  and  C_25
REMARK    6  A    between atoms: O_6  and  C_26
REMARK    7  A    between atoms: O_8  and  C_27
REMARK    8  A    between atoms: O_9  and  C_31
REMARK    9  A    between atoms: O_10  and  C_32
REMARK   10  A    between atoms: O_11  and  C_33
REMARK   11  A    between atoms: C_13  and  C_16
REMARK   12  A    between atoms: C_24  and  C_28
REMARK                            x       y       z     vdW  Elec       q    Type
REMARK                         _______ _______ _______ _____ _____    ______ ____
ROOT
ATOM      1  O   UNL     1      -5.917  41.105  13.907  0.00  0.00    +0.000 OA
ATOM      2  C   UNL     1      -6.896  43.364  14.121  0.00  0.00    +0.000 C 
ATOM      3  C   UNL     1      -7.133  41.870  13.838  0.00  0.00    +0.000 C 
ATOM      4  C   UNL     1      -6.364  43.506  15.547  0.00  0.00    +0.000 C 
ATOM      5  C   UNL     1      -5.317  42.463  15.848  0.00  0.00    +0.000 A 
ATOM      6  C   UNL     1      -5.162  41.339  15.026  0.00  0.00    +0.000 A 
ATOM      7  C   UNL     1      -4.492  42.586  16.973  0.00  0.00    +0.000 A 
ATOM      8  C   UNL     1      -4.177  40.387  15.296  0.00  0.00    +0.000 A 
ATOM      9  C   UNL     1      -3.514  41.635  17.259  0.00  0.00    +0.000 A 
ATOM     10  C   UNL     1      -3.362  40.544  16.413  0.00  0.00    +0.000 A 
ENDROOT
BRANCH   3  11
ATOM     11  C   UNL     1      -7.776  41.652  12.475  0.00  0.00    +0.000 A 
ATOM     12  C   UNL     1      -7.042  41.030  11.447  0.00  0.00    +0.000 A 
ATOM     13  C   UNL     1      -9.110  42.030  12.231  0.00  0.00    +0.000 A 
ATOM     14  C   UNL     1      -9.681  41.791  10.985  0.00  0.00    +0.000 A 
ATOM     15  C   UNL     1      -7.628  40.799  10.200  0.00  0.00    +0.000 A 
ATOM     16  C   UNL     1      -8.946  41.180   9.972  0.00  0.00    +0.000 A 
BRANCH  14  17
ATOM     17  O   UNL     1     -10.976  42.139  10.710  0.00  0.00    +0.000 OA
ATOM     18  H   UNL     1     -11.047  43.109  10.743  0.00  0.00    +0.000 HD
ENDBRANCH  14  17
BRANCH  15  19
ATOM     19  O   UNL     1      -6.918  40.199   9.200  0.00  0.00    +0.000 OA
ATOM     20  H   UNL     1      -7.044  40.688   8.373  0.00  0.00    +0.000 HD
ENDBRANCH  15  19
BRANCH  16  21
ATOM     21  O   UNL     1      -9.540  40.960   8.760  0.00  0.00    +0.000 OA
ATOM     22  H   UNL     1      -9.173  41.650   8.175  0.00  0.00    +0.000 HD
ENDBRANCH  16  21
ENDBRANCH   3  11
BRANCH   7  23
ATOM     23  O   UNL     1      -4.662  43.664  17.794  0.00  0.00    +0.000 OA
ATOM     24  H   UNL     1      -4.723  43.352  18.713  0.00  0.00    +0.000 HD
ENDBRANCH   7  23
BRANCH  10  25
ATOM     25  O   UNL     1      -2.394  39.635  16.719  0.00  0.00    +0.000 OA
ATOM     26  H   UNL     1      -2.204  39.100  15.929  0.00  0.00    +0.000 HD
ENDBRANCH  10  25
BRANCH   2  27
ATOM     27  O   UNL     1      -5.909  43.885  13.196  0.00  0.00    +0.000 OA
BRANCH  27  29
ATOM     28  O   UNL     1      -7.038  45.873  12.989  0.00  0.00    +0.000 OA
ATOM     29  C   UNL     1      -6.191  45.075  12.622  0.00  0.00    +0.000 C 
BRANCH  29  30
ATOM     30  C   UNL     1      -5.332  45.272  11.427  0.00  0.00    +0.000 A 
ATOM     31  C   UNL     1      -5.845  44.888  10.178  0.00  0.00    +0.000 A 
ATOM     32  C   UNL     1      -4.047  45.832  11.524  0.00  0.00    +0.000 A 
ATOM     33  C   UNL     1      -3.275  45.993  10.374  0.00  0.00    +0.000 A 
ATOM     34  C   UNL     1      -5.060  45.053   9.043  0.00  0.00    +0.000 A 
ATOM     35  C   UNL     1      -3.780  45.598   9.138  0.00  0.00    +0.000 A 
BRANCH  33  36
ATOM     36  O   UNL     1      -2.023  46.534  10.450  0.00  0.00    +0.000 OA
ATOM     37  H   UNL     1      -1.878  46.895  11.337  0.00  0.00    +0.000 HD
ENDBRANCH  33  36
BRANCH  34  38
ATOM     38  O   UNL     1      -5.507  44.692   7.801  0.00  0.00    +0.000 OA
ATOM     39  H   UNL     1      -4.800  44.864   7.154  0.00  0.00    +0.000 HD
ENDBRANCH  34  38
BRANCH  35  40
ATOM     40  O   UNL     1      -3.035  45.746   8.000  0.00  0.00    +0.000 OA
ATOM     41  H   UNL     1      -2.754  44.841   7.763  0.00  0.00    +0.000 HD
ENDBRANCH  35  40
ENDBRANCH  29  30
ENDBRANCH  27  29
ENDBRANCH   2  27
TORSDOF 12
ENDMDL
MODEL 6
REMARK VINA RESULT:      -7.5     14.186     17.718
REMARK  Name = 
REMARK  12 active torsions:
REMARK  status: ('A' for Active; 'I' for Inactive)
REMARK    1  A    between atoms: O_2  and  C_12
REMARK    2  A    between atoms: O_2  and  C_24
REMARK    3  A    between atoms: O_3  and  C_18
REMARK    4  A    between atoms: O_4  and  C_23
REMARK    5  A    between atoms: O_5  and  C_25
REMARK    6  A    between atoms: O_6  and  C_26
REMARK    7  A    between atoms: O_8  and  C_27
REMARK    8  A    between atoms: O_9  and  C_31
REMARK    9  A    between atoms: O_10  and  C_32
REMARK   10  A    between atoms: O_11  and  C_33
REMARK   11  A    between atoms: C_13  and  C_16
REMARK   12  A    between atoms: C_24  and  C_28
REMARK                            x       y       z     vdW  Elec       q    Type
REMARK                         _______ _______ _______ _____ _____    ______ ____
ROOT
ATOM      1  O   UNL     1       9.501  32.657  15.366  0.00  0.00    +0.000 OA
ATOM      2  C   UNL     1       7.388  32.220  16.570  0.00  0.00    +0.000 C 
ATOM      3  C   UNL     1       8.821  31.756  16.256  0.00  0.00    +0.000 C 
ATOM      4  C   UNL     1       7.463  33.571  17.281  0.00  0.00    +0.000 C 
ATOM      5  C   UNL     1       8.469  34.481  16.623  0.00  0.00    +0.000 A 
ATOM      6  C   UNL     1       9.417  33.977  15.723  0.00  0.00    +0.000 A 
ATOM      7  C   UNL     1       8.490  35.850  16.918  0.00  0.00    +0.000 A 
ATOM      8  C   UNL     1      10.332  34.828  15.099  0.00  0.00    +0.000 A 
ATOM      9  C   UNL     1       9.407  36.706  16.310  0.00  0.00    +0.000 A 
ATOM     10  C   UNL     1      10.319  36.186  15.400  0.00  0.00    +0.000 A 
ENDROOT
BRANCH   3  11
ATOM     11  C   UNL     1       8.839  30.358  15.651  0.00  0.00    +0.000 A 
ATOM     12  C   UNL     1      10.068  29.754  15.321  0.00  0.00    +0.000 A 
ATOM     13  C   UNL     1       7.647  29.638  15.446  0.00  0.00    +0.000 A 
ATOM     14  C   UNL     1       7.695  28.352  14.919  0.00  0.00    +0.000 A 
ATOM     15  C   UNL     1      10.101  28.463  14.790  0.00  0.00    +0.000 A 
ATOM     16  C   UNL     1       8.915  27.764  14.591  0.00  0.00    +0.000 A 
BRANCH  14  17
ATOM     17  O   UNL     1       6.559  27.617  14.710  0.00  0.00    +0.000 OA
ATOM     18  H   UNL     1       5.821  28.058  15.166  0.00  0.00    +0.000 HD
ENDBRANCH  14  17
BRANCH  15  19
ATOM     19  O   UNL     1      11.290  27.876  14.466  0.00  0.00    +0.000 OA
ATOM     20  H   UNL     1      11.139  26.955  14.208  0.00  0.00    +0.000 HD
ENDBRANCH  15  19
BRANCH  16  21
ATOM     21  O   UNL     1       8.925  26.497  14.076  0.00  0.00    +0.000 OA
ATOM     22  H   UNL     1       9.871  26.278  13.977  0.00  0.00    +0.000 HD
ENDBRANCH  16  21
ENDBRANCH   3  11
BRANCH   7  23
ATOM     23  O   UNL     1       7.588  36.339  17.819  0.00  0.00    +0.000 OA
ATOM     24  H   UNL     1       6.852  35.709  17.900  0.00  0.00    +0.000 HD
ENDBRANCH   7  23
BRANCH  10  25
ATOM     25  O   UNL     1      11.199  37.051  14.820  0.00  0.00    +0.000 OA
ATOM     26  H   UNL     1      12.073  36.930  15.229  0.00  0.00    +0.000 HD
ENDBRANCH  10  25
BRANCH   2  27
ATOM     27  O   UNL     1       6.645  32.379  15.335  0.00  0.00    +0.000 OA
BRANCH  27  29
ATOM     28  O   UNL     1       5.222  34.176  15.445  0.00  0.00    +0.000 OA
ATOM     29  C   UNL     1       5.437  32.975  15.432  0.00  0.00    +0.000 C 
BRANCH  29  30
ATOM     30  C   UNL     1       4.376  31.944  15.561  0.00  0.00    +0.000 A 
ATOM     31  C   UNL     1       3.096  32.363  15.956  0.00  0.00    +0.000 A 
ATOM     32  C   UNL     1       4.627  30.588  15.292  0.00  0.00    +0.000 A 
ATOM     33  C   UNL     1       3.600  29.655  15.432  0.00  0.00    +0.000 A 
ATOM     34  C   UNL     1       2.086  31.419  16.094  0.00  0.00    +0.000 A 
ATOM     35  C   UNL     1       2.335  30.071  15.838  0.00  0.00    +0.000 A 
BRANCH  33  36
ATOM     36  O   UNL     1       3.826  28.333  15.177  0.00  0.00    +0.000 OA
ATOM     37  H   UNL     1       4.701  28.081  15.510  0.00  0.00    +0.000 HD
ENDBRANCH  33  36
BRANCH  34  38
ATOM     38  O   UNL     1       0.822  31.770  16.481  0.00  0.00    +0.000 OA
ATOM     39  H   UNL     1       0.851  32.064  17.409  0.00  0.00    +0.000 HD
ENDBRANCH  34  38
BRANCH  35  40
ATOM     40  O   UNL     1       1.317  29.169  15.984  0.00  0.00    +0.000 OA
ATOM     41  H   UNL     1       0.514  29.645  15.699  0.00  0.00    +0.000 HD
ENDBRANCH  35  40
ENDBRANCH  29  30
ENDBRANCH  27  29
ENDBRANCH   2  27
TORSDOF 12
ENDMDL
MODEL 7
REMARK VINA RESULT:      -7.5      6.281      8.794
REMARK  Name = 
REMARK  12 active torsions:
REMARK  status: ('A' for Active; 'I' for Inactive)
REMARK    1  A    between atoms: O_2  and  C_12
REMARK    2  A    between atoms: O_2  and  C_24
REMARK    3  A    between atoms: O_3  and  C_18
REMARK    4  A    between atoms: O_4  and  C_23
REMARK    5  A    between atoms: O_5  and  C_25
REMARK    6  A    between atoms: O_6  and  C_26
REMARK    7  A    between atoms: O_8  and  C_27
REMARK    8  A    between atoms: O_9  and  C_31
REMARK    9  A    between atoms: O_10  and  C_32
REMARK   10  A    between atoms: O_11  and  C_33
REMARK   11  A    between atoms: C_13  and  C_16
REMARK   12  A    between atoms: C_24  and  C_28
REMARK                            x       y       z     vdW  Elec       q    Type
REMARK                         _______ _______ _______ _____ _____    ______ ____
ROOT
ATOM      1  O   UNL     1      -2.664  43.443  19.023  0.00  0.00    +0.000 OA
ATOM      2  C   UNL     1      -1.232  44.935  17.670  0.00  0.00    +0.000 C 
ATOM      3  C   UNL     1      -2.349  43.877  17.689  0.00  0.00    +0.000 C 
ATOM      4  C   UNL     1      -1.721  46.166  18.433  0.00  0.00    +0.000 C 
ATOM      5  C   UNL     1      -2.429  45.777  19.706  0.00  0.00    +0.000 A 
ATOM      6  C   UNL     1      -2.856  44.460  19.920  0.00  0.00    +0.000 A 
ATOM      7  C   UNL     1      -2.695  46.733  20.694  0.00  0.00    +0.000 A 
ATOM      8  C   UNL     1      -3.491  44.099  21.110  0.00  0.00    +0.000 A 
ATOM      9  C   UNL     1      -3.338  46.386  21.880  0.00  0.00    +0.000 A 
ATOM     10  C   UNL     1      -3.728  45.068  22.080  0.00  0.00    +0.000 A 
ENDROOT
BRANCH   3  11
ATOM     11  C   UNL     1      -1.984  42.661  16.847  0.00  0.00    +0.000 A 
ATOM     12  C   UNL     1      -2.428  41.382  17.237  0.00  0.00    +0.000 A 
ATOM     13  C   UNL     1      -1.238  42.793  15.661  0.00  0.00    +0.000 A 
ATOM     14  C   UNL     1      -0.945  41.668  14.897  0.00  0.00    +0.000 A 
ATOM     15  C   UNL     1      -2.123  40.262  16.461  0.00  0.00    +0.000 A 
ATOM     16  C   UNL     1      -1.384  40.407  15.293  0.00  0.00    +0.000 A 
BRANCH  14  17
ATOM     17  O   UNL     1      -0.227  41.757  13.734  0.00  0.00    +0.000 OA
ATOM     18  H   UNL     1      -0.633  42.441  13.175  0.00  0.00    +0.000 HD
ENDBRANCH  14  17
BRANCH  15  19
ATOM     19  O   UNL     1      -2.549  39.020  16.838  0.00  0.00    +0.000 OA
ATOM     20  H   UNL     1      -2.871  38.537  16.062  0.00  0.00    +0.000 HD
ENDBRANCH  15  19
BRANCH  16  21
ATOM     21  O   UNL     1      -1.078  39.323  14.516  0.00  0.00    +0.000 OA
ATOM     22  H   UNL     1      -1.943  38.970  14.233  0.00  0.00    +0.000 HD
ENDBRANCH  16  21
ENDBRANCH   3  11
BRANCH   7  23
ATOM     23  O   UNL     1      -2.307  48.025  20.475  0.00  0.00    +0.000 OA
ATOM     24  H   UNL     1      -1.587  48.244  21.090  0.00  0.00    +0.000 HD
ENDBRANCH   7  23
BRANCH  10  25
ATOM     25  O   UNL     1      -4.352  44.762  23.253  0.00  0.00    +0.000 OA
ATOM     26  H   UNL     1      -4.965  45.482  23.479  0.00  0.00    +0.000 HD
ENDBRANCH  10  25
BRANCH   2  27
ATOM     27  O   UNL     1      -0.053  44.410  18.331  0.00  0.00    +0.000 OA
BRANCH  27  29
ATOM     28  O   UNL     1       1.222  46.290  18.666  0.00  0.00    +0.000 OA
ATOM     29  C   UNL     1       1.070  45.156  18.240  0.00  0.00    +0.000 C 
BRANCH  29  30
ATOM     30  C   UNL     1       2.114  44.405  17.498  0.00  0.00    +0.000 A 
ATOM     31  C   UNL     1       3.317  45.065  17.205  0.00  0.00    +0.000 A 
ATOM     32  C   UNL     1       1.923  43.070  17.101  0.00  0.00    +0.000 A 
ATOM     33  C   UNL     1       2.929  42.407  16.402  0.00  0.00    +0.000 A 
ATOM     34  C   UNL     1       4.308  44.389  16.504  0.00  0.00    +0.000 A 
ATOM     35  C   UNL     1       4.116  43.068  16.100  0.00  0.00    +0.000 A 
BRANCH  33  36
ATOM     36  O   UNL     1       2.760  41.110  16.007  0.00  0.00    +0.000 OA
ATOM     37  H   UNL     1       1.949  40.753  16.399  0.00  0.00    +0.000 HD
ENDBRANCH  33  36
BRANCH  34  38
ATOM     38  O   UNL     1       5.498  44.985  16.187  0.00  0.00    +0.000 OA
ATOM     39  H   UNL     1       6.189  44.299  16.145  0.00  0.00    +0.000 HD
ENDBRANCH  34  38
BRANCH  35  40
ATOM     40  O   UNL     1       5.114  42.433  15.411  0.00  0.00    +0.000 OA
ATOM     41  H   UNL     1       5.724  43.145  15.137  0.00  0.00    +0.000 HD
ENDBRANCH  35  40
ENDBRANCH  29  30
ENDBRANCH  27  29
ENDBRANCH   2  27
TORSDOF 12
ENDMDL
MODEL 8
REMARK VINA RESULT:      -7.3      4.889      9.628
REMARK  Name = 
REMARK  12 active torsions:
REMARK  status: ('A' for Active; 'I' for Inactive)
REMARK    1  A    between atoms: O_2  and  C_12
REMARK    2  A    between atoms: O_2  and  C_24
REMARK    3  A    between atoms: O_3  and  C_18
REMARK    4  A    between atoms: O_4  and  C_23
REMARK    5  A    between atoms: O_5  and  C_25
REMARK    6  A    between atoms: O_6  and  C_26
REMARK    7  A    between atoms: O_8  and  C_27
REMARK    8  A    between atoms: O_9  and  C_31
REMARK    9  A    between atoms: O_10  and  C_32
REMARK   10  A    between atoms: O_11  and  C_33
REMARK   11  A    between atoms: C_13  and  C_16
REMARK   12  A    between atoms: C_24  and  C_28
REMARK                            x       y       z     vdW  Elec       q    Type
REMARK                         _______ _______ _______ _____ _____    ______ ____
ROOT
ATOM      1  O   UNL     1     -13.676  40.083  12.058  0.00  0.00    +0.000 OA
ATOM      2  C   UNL     1     -12.712  41.646  13.712  0.00  0.00    +0.000 C 
ATOM      3  C   UNL     1     -12.837  41.238  12.234  0.00  0.00    +0.000 C 
ATOM      4  C   UNL     1     -14.101  42.025  14.226  0.00  0.00    +0.000 C 
ATOM      5  C   UNL     1     -15.146  41.045  13.756  0.00  0.00    +0.000 A 
ATOM      6  C   UNL     1     -14.877  40.150  12.712  0.00  0.00    +0.000 A 
ATOM      7  C   UNL     1     -16.419  41.026  14.340  0.00  0.00    +0.000 A 
ATOM      8  C   UNL     1     -15.841  39.230  12.295  0.00  0.00    +0.000 A 
ATOM      9  C   UNL     1     -17.392  40.120  13.923  0.00  0.00    +0.000 A 
ATOM     10  C   UNL     1     -17.091  39.224  12.905  0.00  0.00    +0.000 A 
ENDROOT
BRANCH   3  11
ATOM     11  C   UNL     1     -11.475  40.958  11.612  0.00  0.00    +0.000 A 
ATOM     12  C   UNL     1     -11.052  39.627  11.425  0.00  0.00    +0.000 A 
ATOM     13  C   UNL     1     -10.640  42.007  11.185  0.00  0.00    +0.000 A 
ATOM     14  C   UNL     1      -9.414  41.720  10.593  0.00  0.00    +0.000 A 
ATOM     15  C   UNL     1      -9.817  39.355  10.832  0.00  0.00    +0.000 A 
ATOM     16  C   UNL     1      -9.001  40.402  10.417  0.00  0.00    +0.000 A 
BRANCH  14  17
ATOM     17  O   UNL     1      -8.576  42.713  10.160  0.00  0.00    +0.000 OA
ATOM     18  H   UNL     1      -8.064  43.035  10.921  0.00  0.00    +0.000 HD
ENDBRANCH  14  17
BRANCH  15  19
ATOM     19  O   UNL     1      -9.403  38.067  10.652  0.00  0.00    +0.000 OA
ATOM     20  H   UNL     1      -9.849  37.686   9.881  0.00  0.00    +0.000 HD
ENDBRANCH  15  19
BRANCH  16  21
ATOM     21  O   UNL     1      -7.790  40.157   9.830  0.00  0.00    +0.000 OA
ATOM     22  H   UNL     1      -7.203  40.857  10.174  0.00  0.00    +0.000 HD
ENDBRANCH  16  21
ENDBRANCH   3  11
BRANCH   7  23
ATOM     23  O   UNL     1     -16.695  41.919  15.337  0.00  0.00    +0.000 OA
ATOM     24  H   UNL     1     -15.901  42.029  15.888  0.00  0.00    +0.000 HD
ENDBRANCH   7  23
BRANCH  10  25
ATOM     25  O   UNL     1     -18.064  38.349  12.523  0.00  0.00    +0.000 OA
ATOM     26  H   UNL     1     -18.509  38.699  11.733  0.00  0.00    +0.000 HD
ENDBRANCH  10  25
BRANCH   2  27
ATOM     27  O   UNL     1     -12.213  40.527  14.486  0.00  0.00    +0.000 OA
BRANCH  27  29
ATOM     28  O   UNL     1     -11.554  40.871  16.658  0.00  0.00    +0.000 OA
ATOM     29  C   UNL     1     -11.324  40.818  15.461  0.00  0.00    +0.000 C 
BRANCH  29  30
ATOM     30  C   UNL     1      -9.998  41.110  14.860  0.00  0.00    +0.000 A 
ATOM     31  C   UNL     1      -9.572  42.447  14.823  0.00  0.00    +0.000 A 
ATOM     32  C   UNL     1      -9.176  40.090  14.348  0.00  0.00    +0.000 A 
ATOM     33  C   UNL     1      -7.942  40.413  13.789  0.00  0.00    +0.000 A 
ATOM     34  C   UNL     1      -8.339  42.751  14.258  0.00  0.00    +0.000 A 
ATOM     35  C   UNL     1      -7.528  41.742  13.739  0.00  0.00    +0.000 A 
BRANCH  33  36
ATOM     36  O   UNL     1      -7.132  39.436  13.285  0.00  0.00    +0.000 OA
ATOM     37  H   UNL     1      -7.597  38.586  13.303  0.00  0.00    +0.000 HD
ENDBRANCH  33  36
BRANCH  34  38
ATOM     38  O   UNL     1      -7.878  44.037  14.190  0.00  0.00    +0.000 OA
ATOM     39  H   UNL     1      -7.001  44.031  13.766  0.00  0.00    +0.000 HD
ENDBRANCH  34  38
BRANCH  35  40
ATOM     40  O   UNL     1      -6.321  42.078  13.191  0.00  0.00    +0.000 OA
ATOM     41  H   UNL     1      -6.028  42.866  13.688  0.00  0.00    +0.000 HD
ENDBRANCH  35  40
ENDBRANCH  29  30
ENDBRANCH  27  29
ENDBRANCH   2  27
TORSDOF 12
ENDMDL
MODEL 9
REMARK VINA RESULT:      -7.3     13.104     17.959
REMARK  Name = 
REMARK  12 active torsions:
REMARK  status: ('A' for Active; 'I' for Inactive)
REMARK    1  A    between atoms: O_2  and  C_12
REMARK    2  A    between atoms: O_2  and  C_24
REMARK    3  A    between atoms: O_3  and  C_18
REMARK    4  A    between atoms: O_4  and  C_23
REMARK    5  A    between atoms: O_5  and  C_25
REMARK    6  A    between atoms: O_6  and  C_26
REMARK    7  A    between atoms: O_8  and  C_27
REMARK    8  A    between atoms: O_9  and  C_31
REMARK    9  A    between atoms: O_10  and  C_32
REMARK   10  A    between atoms: O_11  and  C_33
REMARK   11  A    between atoms: C_13  and  C_16
REMARK   12  A    between atoms: C_24  and  C_28
REMARK                            x       y       z     vdW  Elec       q    Type
REMARK                         _______ _______ _______ _____ _____    ______ ____
ROOT
ATOM      1  O   UNL     1      10.625  33.445  16.238  0.00  0.00    +0.000 OA
ATOM      2  C   UNL     1       8.395  33.106  17.249  0.00  0.00    +0.000 C 
ATOM      3  C   UNL     1       9.905  32.816  17.312  0.00  0.00    +0.000 C 
ATOM      4  C   UNL     1       8.187  34.612  17.398  0.00  0.00    +0.000 C 
ATOM      5  C   UNL     1       9.182  35.389  16.574  0.00  0.00    +0.000 A 
ATOM      6  C   UNL     1      10.327  34.770  16.055  0.00  0.00    +0.000 A 
ATOM      7  C   UNL     1       8.993  36.754  16.329  0.00  0.00    +0.000 A 
ATOM      8  C   UNL     1      11.235  35.488  15.274  0.00  0.00    +0.000 A 
ATOM      9  C   UNL     1       9.899  37.483  15.560  0.00  0.00    +0.000 A 
ATOM     10  C   UNL     1      11.012  36.840  15.034  0.00  0.00    +0.000 A 
ENDROOT
BRANCH   3  11
ATOM     11  C   UNL     1      10.191  31.321  17.288  0.00  0.00    +0.000 A 
ATOM     12  C   UNL     1      10.024  30.558  18.461  0.00  0.00    +0.000 A 
ATOM     13  C   UNL     1      10.588  30.674  16.103  0.00  0.00    +0.000 A 
ATOM     14  C   UNL     1      10.813  29.301  16.104  0.00  0.00    +0.000 A 
ATOM     15  C   UNL     1      10.256  29.181  18.447  0.00  0.00    +0.000 A 
ATOM     16  C   UNL     1      10.650  28.555  17.269  0.00  0.00    +0.000 A 
BRANCH  14  17
ATOM     17  O   UNL     1      11.195  28.635  14.970  0.00  0.00    +0.000 OA
ATOM     18  H   UNL     1      12.162  28.531  14.987  0.00  0.00    +0.000 HD
ENDBRANCH  14  17
BRANCH  15  19
ATOM     19  O   UNL     1      10.098  28.439  19.582  0.00  0.00    +0.000 OA
ATOM     20  H   UNL     1      10.902  27.925  19.750  0.00  0.00    +0.000 HD
ENDBRANCH  15  19
BRANCH  16  21
ATOM     21  O   UNL     1      10.880  27.207  17.233  0.00  0.00    +0.000 OA
ATOM     22  H   UNL     1      10.648  26.893  18.127  0.00  0.00    +0.000 HD
ENDBRANCH  16  21
ENDBRANCH   3  11
BRANCH   7  23
ATOM     23  O   UNL     1       7.893  37.368  16.859  0.00  0.00    +0.000 OA
ATOM     24  H   UNL     1       8.017  38.331  16.810  0.00  0.00    +0.000 HD
ENDBRANCH   7  23
BRANCH  10  25
ATOM     25  O   UNL     1      11.876  37.580  14.284  0.00  0.00    +0.000 OA
ATOM     26  H   UNL     1      11.724  37.382  13.344  0.00  0.00    +0.000 HD
ENDBRANCH  10  25
BRANCH   2  27
ATOM     27  O   UNL     1       7.872  32.684  15.964  0.00  0.00    +0.000 OA
BRANCH  27  29
ATOM     28  O   UNL     1       7.166  30.502  16.050  0.00  0.00    +0.000 OA
ATOM     29  C   UNL     1       6.946  31.700  15.985  0.00  0.00    +0.000 C 
BRANCH  29  30
ATOM     30  C   UNL     1       5.587  32.287  15.874  0.00  0.00    +0.000 A 
ATOM     31  C   UNL     1       5.427  33.434  15.082  0.00  0.00    +0.000 A 
ATOM     32  C   UNL     1       4.480  31.718  16.529  0.00  0.00    +0.000 A 
ATOM     33  C   UNL     1       3.224  32.307  16.400  0.00  0.00    +0.000 A 
ATOM     34  C   UNL     1       4.168  34.009  14.967  0.00  0.00    +0.000 A 
ATOM     35  C   UNL     1       3.071  33.453  15.625  0.00  0.00    +0.000 A 
BRANCH  33  36
ATOM     36  O   UNL     1       2.139  31.769  17.030  0.00  0.00    +0.000 OA
ATOM     37  H   UNL     1       2.153  32.012  17.968  0.00  0.00    +0.000 HD
ENDBRANCH  33  36
BRANCH  34  38
ATOM     38  O   UNL     1       3.956  35.131  14.213  0.00  0.00    +0.000 OA
ATOM     39  H   UNL     1       3.026  35.141  13.924  0.00  0.00    +0.000 HD
ENDBRANCH  34  38
BRANCH  35  40
ATOM     40  O   UNL     1       1.846  34.047  15.490  0.00  0.00    +0.000 OA
ATOM     41  H   UNL     1       2.003  34.995  15.664  0.00  0.00    +0.000 HD
ENDBRANCH  35  40
ENDBRANCH  29  30
ENDBRANCH  27  29
ENDBRANCH   2  27
TORSDOF 12
ENDMDL
