MODEL 1
REMARK VINA RESULT:      -6.4      0.000      0.000
REMARK  Name = Estradiol.pdbqt.pdb
REMARK  2 active torsions:
REMARK  status: ('A' for Active; 'I' for Inactive)
REMARK    1  A    between atoms: C_5  and  O_19
REMARK    2  A    between atoms: C_18  and  O_21
REMARK                            x       y       z     vdW  Elec       q    Type
REMARK                         _______ _______ _______ _____ _____    ______ ____
ROOT
ATOM      1  C   UNL     1      17.924  44.108  10.233  0.00  0.00    +0.000 C 
ATOM      2  C   UNL     1      16.658  43.649   9.359  0.00  0.00    +0.000 C 
ATOM      3  C   UNL     1      15.347  44.302   9.502  0.00  0.00    +0.000 A 
ATOM      4  C   UNL     1      15.063  45.588  10.248  0.00  0.00    +0.000 A 
ATOM      5  C   UNL     1      19.063  44.136   9.192  0.00  0.00    +0.000 C 
ATOM      6  C   UNL     1      17.583  45.424  10.776  0.00  0.00    +0.000 C 
ATOM      7  C   UNL     1      17.151  43.308   8.058  0.00  0.00    +0.000 C 
ATOM      8  C   UNL     1      16.245  46.121  10.820  0.00  0.00    +0.000 C 
ATOM      9  C   UNL     1      18.618  43.634   7.940  0.00  0.00    +0.000 C 
ATOM     10  C   UNL     1      14.176  43.790   8.886  0.00  0.00    +0.000 A 
ATOM     11  C   UNL     1      18.199  43.033  11.316  0.00  0.00    +0.000 C 
ATOM     12  C   UNL     1      13.704  46.217  10.362  0.00  0.00    +0.000 A 
ATOM     13  C   UNL     1      12.815  44.432   8.992  0.00  0.00    +0.000 A 
ATOM     14  C   UNL     1      12.569  45.629   9.726  0.00  0.00    +0.000 A 
ATOM     15  C   UNL     1      13.518  47.388  11.097  0.00  0.00    +0.000 A 
ATOM     16  C   UNL     1      11.303  46.189   9.828  0.00  0.00    +0.000 A 
ATOM     17  C   UNL     1      12.248  47.956  11.203  0.00  0.00    +0.000 A 
ATOM     18  C   UNL     1      11.158  47.355  10.571  0.00  0.00    +0.000 A 
ENDROOT
BRANCH   5  19
ATOM     19  O   UNL     1      20.165  44.955   9.310  0.00  0.00    +0.000 OA
ATOM     20  H   UNL     1      20.304  45.241  10.231  0.00  0.00    +0.000 HD
ENDBRANCH   5  19
BRANCH  18  21
ATOM     21  O   UNL     1       9.912  47.903  10.674  0.00  0.00    +0.000 OA
ATOM     22  H   UNL     1       9.405  47.392  11.330  0.00  0.00    +0.000 HD
ENDBRANCH  18  21
TORSDOF 2
ENDMDL
MODEL 2
REMARK VINA RESULT:      -6.3     19.856     21.050
REMARK  Name = Estradiol.pdbqt.pdb
REMARK  2 active torsions:
REMARK  status: ('A' for Active; 'I' for Inactive)
REMARK    1  A    between atoms: C_5  and  O_19
REMARK    2  A    between atoms: C_18  and  O_21
REMARK                            x       y       z     vdW  Elec       q    Type
REMARK                         _______ _______ _______ _____ _____    ______ ____
ROOT
ATOM      1  C   UNL     1       1.014  57.629  18.709  0.00  0.00    +0.000 C 
ATOM      2  C   UNL     1       0.745  58.715  17.557  0.00  0.00    +0.000 C 
ATOM      3  C   UNL     1       1.774  59.690  17.165  0.00  0.00    +0.000 A 
ATOM      4  C   UNL     1       3.233  59.666  17.567  0.00  0.00    +0.000 A 
ATOM      5  C   UNL     1       0.430  56.336  18.101  0.00  0.00    +0.000 C 
ATOM      6  C   UNL     1       2.465  57.594  18.900  0.00  0.00    +0.000 C 
ATOM      7  C   UNL     1      -0.052  58.071  16.556  0.00  0.00    +0.000 C 
ATOM      8  C   UNL     1       3.517  58.553  18.398  0.00  0.00    +0.000 C 
ATOM      9  C   UNL     1      -0.221  56.605  16.867  0.00  0.00    +0.000 C 
ATOM     10  C   UNL     1       1.495  60.773  16.293  0.00  0.00    +0.000 A 
ATOM     11  C   UNL     1       0.224  58.041  19.978  0.00  0.00    +0.000 C 
ATOM     12  C   UNL     1       4.246  60.686  17.136  0.00  0.00    +0.000 A 
ATOM     13  C   UNL     1       2.519  61.790  15.851  0.00  0.00    +0.000 A 
ATOM     14  C   UNL     1       3.882  61.760  16.269  0.00  0.00    +0.000 A 
ATOM     15  C   UNL     1       5.568  60.613  17.578  0.00  0.00    +0.000 A 
ATOM     16  C   UNL     1       4.801  62.719  15.866  0.00  0.00    +0.000 A 
ATOM     17  C   UNL     1       6.497  61.573  17.177  0.00  0.00    +0.000 A 
ATOM     18  C   UNL     1       6.107  62.612  16.330  0.00  0.00    +0.000 A 
ENDROOT
BRANCH   5  19
ATOM     19  O   UNL     1       0.883  55.079  18.438  0.00  0.00    +0.000 OA
ATOM     20  H   UNL     1       0.203  54.566  18.910  0.00  0.00    +0.000 HD
ENDBRANCH   5  19
BRANCH  18  21
ATOM     21  O   UNL     1       7.010  63.559  15.938  0.00  0.00    +0.000 OA
ATOM     22  H   UNL     1       7.138  64.184  16.673  0.00  0.00    +0.000 HD
ENDBRANCH  18  21
TORSDOF 2
ENDMDL
MODEL 3
REMARK VINA RESULT:      -6.3      4.054      6.835
REMARK  Name = Estradiol.pdbqt.pdb
REMARK  2 active torsions:
REMARK  status: ('A' for Active; 'I' for Inactive)
REMARK    1  A    between atoms: C_5  and  O_19
REMARK    2  A    between atoms: C_18  and  O_21
REMARK                            x       y       z     vdW  Elec       q    Type
REMARK                         _______ _______ _______ _____ _____    ______ ____
ROOT
ATOM      1  C   UNL     1      13.250  47.105  11.512  0.00  0.00    +0.000 C 
ATOM      2  C   UNL     1      11.876  47.746  12.041  0.00  0.00    +0.000 C 
ATOM      3  C   UNL     1      11.776  49.173  12.385  0.00  0.00    +0.000 A 
ATOM      4  C   UNL     1      12.798  50.245  12.073  0.00  0.00    +0.000 A 
ATOM      5  C   UNL     1      12.782  46.217  10.340  0.00  0.00    +0.000 C 
ATOM      6  C   UNL     1      14.091  48.232  11.105  0.00  0.00    +0.000 C 
ATOM      7  C   UNL     1      10.815  47.104  11.325  0.00  0.00    +0.000 C 
ATOM      8  C   UNL     1      13.912  49.706  11.382  0.00  0.00    +0.000 C 
ATOM      9  C   UNL     1      11.364  46.190  10.259  0.00  0.00    +0.000 C 
ATOM     10  C   UNL     1      10.636  49.716  13.032  0.00  0.00    +0.000 A 
ATOM     11  C   UNL     1      13.865  46.239  12.643  0.00  0.00    +0.000 C 
ATOM     12  C   UNL     1      12.647  51.692  12.444  0.00  0.00    +0.000 A 
ATOM     13  C   UNL     1      10.482  51.173  13.391  0.00  0.00    +0.000 A 
ATOM     14  C   UNL     1      11.474  52.158  13.112  0.00  0.00    +0.000 A 
ATOM     15  C   UNL     1      13.650  52.615  12.149  0.00  0.00    +0.000 A 
ATOM     16  C   UNL     1      11.318  53.490  13.471  0.00  0.00    +0.000 A 
ATOM     17  C   UNL     1      13.501  53.954  12.508  0.00  0.00    +0.000 A 
ATOM     18  C   UNL     1      12.343  54.377  13.163  0.00  0.00    +0.000 A 
ENDROOT
BRANCH   5  19
ATOM     19  O   UNL     1      13.589  45.907   9.267  0.00  0.00    +0.000 OA
ATOM     20  H   UNL     1      13.118  46.009   8.421  0.00  0.00    +0.000 HD
ENDBRANCH   5  19
BRANCH  18  21
ATOM     21  O   UNL     1      12.191  55.686  13.521  0.00  0.00    +0.000 OA
ATOM     22  H   UNL     1      11.240  55.869  13.620  0.00  0.00    +0.000 HD
ENDBRANCH  18  21
TORSDOF 2
ENDMDL
MODEL 4
REMARK VINA RESULT:      -6.2     23.280     26.003
REMARK  Name = Estradiol.pdbqt.pdb
REMARK  2 active torsions:
REMARK  status: ('A' for Active; 'I' for Inactive)
REMARK    1  A    between atoms: C_5  and  O_19
REMARK    2  A    between atoms: C_18  and  O_21
REMARK                            x       y       z     vdW  Elec       q    Type
REMARK                         _______ _______ _______ _____ _____    ______ ____
ROOT
ATOM      1  C   UNL     1       0.758  62.489  -5.578  0.00  0.00    +0.000 C 
ATOM      2  C   UNL     1       0.091  61.029  -5.535  0.00  0.00    +0.000 C 
ATOM      3  C   UNL     1       0.844  59.828  -5.931  0.00  0.00    +0.000 A 
ATOM      4  C   UNL     1       2.335  59.744  -6.175  0.00  0.00    +0.000 A 
ATOM      5  C   UNL     1       0.297  63.112  -4.244  0.00  0.00    +0.000 C 
ATOM      6  C   UNL     1       2.203  62.270  -5.665  0.00  0.00    +0.000 C 
ATOM      7  C   UNL     1      -0.761  60.994  -4.385  0.00  0.00    +0.000 C 
ATOM      8  C   UNL     1       2.959  61.000  -5.972  0.00  0.00    +0.000 C 
ATOM      9  C   UNL     1      -0.615  62.255  -3.572  0.00  0.00    +0.000 C 
ATOM     10  C   UNL     1       0.221  58.562  -6.084  0.00  0.00    +0.000 A 
ATOM     11  C   UNL     1       0.168  63.272  -6.780  0.00  0.00    +0.000 C 
ATOM     12  C   UNL     1       3.058  58.490  -6.576  0.00  0.00    +0.000 A 
ATOM     13  C   UNL     1       0.953  57.302  -6.474  0.00  0.00    +0.000 A 
ATOM     14  C   UNL     1       2.355  57.256  -6.727  0.00  0.00    +0.000 A 
ATOM     15  C   UNL     1       4.432  58.502  -6.814  0.00  0.00    +0.000 A 
ATOM     16  C   UNL     1       3.003  56.088  -7.106  0.00  0.00    +0.000 A 
ATOM     17  C   UNL     1       5.089  57.332  -7.195  0.00  0.00    +0.000 A 
ATOM     18  C   UNL     1       4.372  56.143  -7.337  0.00  0.00    +0.000 A 
ENDROOT
BRANCH   5  19
ATOM     19  O   UNL     1       1.014  64.088  -3.587  0.00  0.00    +0.000 OA
ATOM     20  H   UNL     1       1.963  64.048  -3.807  0.00  0.00    +0.000 HD
ENDBRANCH   5  19
BRANCH  18  21
ATOM     21  O   UNL     1       5.008  54.994  -7.714  0.00  0.00    +0.000 OA
ATOM     22  H   UNL     1       4.559  54.241  -7.289  0.00  0.00    +0.000 HD
ENDBRANCH  18  21
TORSDOF 2
ENDMDL
MODEL 5
REMARK VINA RESULT:      -6.2     34.853     35.988
REMARK  Name = Estradiol.pdbqt.pdb
REMARK  2 active torsions:
REMARK  status: ('A' for Active; 'I' for Inactive)
REMARK    1  A    between atoms: C_5  and  O_19
REMARK    2  A    between atoms: C_18  and  O_21
REMARK                            x       y       z     vdW  Elec       q    Type
REMARK                         _______ _______ _______ _____ _____    ______ ____
ROOT
ATOM      1  C   UNL     1      -1.584  12.208   9.130  0.00  0.00    +0.000 C 
ATOM      2  C   UNL     1      -1.978  13.705   8.702  0.00  0.00    +0.000 C 
ATOM      3  C   UNL     1      -2.899  14.519   9.511  0.00  0.00    +0.000 A 
ATOM      4  C   UNL     1      -3.384  14.202  10.909  0.00  0.00    +0.000 A 
ATOM      5  C   UNL     1      -0.060  12.177   8.889  0.00  0.00    +0.000 C 
ATOM      6  C   UNL     1      -1.967  12.077  10.536  0.00  0.00    +0.000 C 
ATOM      7  C   UNL     1      -0.804  14.299   8.136  0.00  0.00    +0.000 C 
ATOM      8  C   UNL     1      -2.832  12.983  11.379  0.00  0.00    +0.000 C 
ATOM      9  C   UNL     1       0.382  13.380   8.277  0.00  0.00    +0.000 C 
ATOM     10  C   UNL     1      -3.408  15.762   9.055  0.00  0.00    +0.000 A 
ATOM     11  C   UNL     1      -2.307  11.213   8.186  0.00  0.00    +0.000 C 
ATOM     12  C   UNL     1      -4.324  15.069  11.696  0.00  0.00    +0.000 A 
ATOM     13  C   UNL     1      -4.342  16.637   9.853  0.00  0.00    +0.000 A 
ATOM     14  C   UNL     1      -4.807  16.300  11.158  0.00  0.00    +0.000 A 
ATOM     15  C   UNL     1      -4.751  14.690  12.968  0.00  0.00    +0.000 A 
ATOM     16  C   UNL     1      -5.684  17.112  11.865  0.00  0.00    +0.000 A 
ATOM     17  C   UNL     1      -5.632  15.501  13.684  0.00  0.00    +0.000 A 
ATOM     18  C   UNL     1      -6.088  16.697  13.129  0.00  0.00    +0.000 A 
ENDROOT
BRANCH   5  19
ATOM     19  O   UNL     1       0.791  11.348   9.588  0.00  0.00    +0.000 OA
ATOM     20  H   UNL     1       1.428  11.853  10.123  0.00  0.00    +0.000 HD
ENDBRANCH   5  19
BRANCH  18  21
ATOM     21  O   UNL     1      -6.954  17.494  13.822  0.00  0.00    +0.000 OA
ATOM     22  H   UNL     1      -7.583  16.923  14.297  0.00  0.00    +0.000 HD
ENDBRANCH  18  21
TORSDOF 2
ENDMDL
MODEL 6
REMARK VINA RESULT:      -6.1     26.478     28.366
REMARK  Name = Estradiol.pdbqt.pdb
REMARK  2 active torsions:
REMARK  status: ('A' for Active; 'I' for Inactive)
REMARK    1  A    between atoms: C_5  and  O_19
REMARK    2  A    between atoms: C_18  and  O_21
REMARK                            x       y       z     vdW  Elec       q    Type
REMARK                         _______ _______ _______ _____ _____    ______ ____
ROOT
ATOM      1  C   UNL     1       1.752  22.196  -0.676  0.00  0.00    +0.000 C 
ATOM      2  C   UNL     1       2.135  23.755  -0.647  0.00  0.00    +0.000 C 
ATOM      3  C   UNL     1       1.778  24.655  -1.755  0.00  0.00    +0.000 A 
ATOM      4  C   UNL     1       0.834  24.342  -2.896  0.00  0.00    +0.000 A 
ATOM      5  C   UNL     1       1.232  21.948   0.756  0.00  0.00    +0.000 C 
ATOM      6  C   UNL     1       0.730  22.051  -1.713  0.00  0.00    +0.000 C 
ATOM      7  C   UNL     1       1.992  24.194   0.709  0.00  0.00    +0.000 C 
ATOM      8  C   UNL     1       0.306  23.031  -2.780  0.00  0.00    +0.000 C 
ATOM      9  C   UNL     1       1.408  23.101   1.567  0.00  0.00    +0.000 C 
ATOM     10  C   UNL     1       2.271  25.983  -1.839  0.00  0.00    +0.000 A 
ATOM     11  C   UNL     1       3.039  21.371  -0.941  0.00  0.00    +0.000 C 
ATOM     12  C   UNL     1       0.499  25.298  -4.004  0.00  0.00    +0.000 A 
ATOM     13  C   UNL     1       1.921  26.946  -2.947  0.00  0.00    +0.000 A 
ATOM     14  C   UNL     1       1.052  26.615  -4.027  0.00  0.00    +0.000 A 
ATOM     15  C   UNL     1      -0.356  24.922  -5.040  0.00  0.00    +0.000 A 
ATOM     16  C   UNL     1       0.762  27.511  -5.046  0.00  0.00    +0.000 A 
ATOM     17  C   UNL     1      -0.651  25.818  -6.067  0.00  0.00    +0.000 A 
ATOM     18  C   UNL     1      -0.092  27.097  -6.062  0.00  0.00    +0.000 A 
ENDROOT
BRANCH   5  19
ATOM     19  O   UNL     1       0.315  20.964   1.059  0.00  0.00    +0.000 OA
ATOM     20  H   UNL     1      -0.435  20.968   0.437  0.00  0.00    +0.000 HD
ENDBRANCH   5  19
BRANCH  18  21
ATOM     21  O   UNL     1      -0.373  27.978  -7.067  0.00  0.00    +0.000 OA
ATOM     22  H   UNL     1       0.055  27.660  -7.882  0.00  0.00    +0.000 HD
ENDBRANCH  18  21
TORSDOF 2
ENDMDL
MODEL 7
REMARK VINA RESULT:      -6.0      4.877      8.696
REMARK  Name = Estradiol.pdbqt.pdb
REMARK  2 active torsions:
REMARK  status: ('A' for Active; 'I' for Inactive)
REMARK    1  A    between atoms: C_5  and  O_19
REMARK    2  A    between atoms: C_18  and  O_21
REMARK                            x       y       z     vdW  Elec       q    Type
REMARK                         _______ _______ _______ _____ _____    ______ ____
ROOT
ATOM      1  C   UNL     1      12.396  53.418  14.098  0.00  0.00    +0.000 C 
ATOM      2  C   UNL     1      13.453  52.707  13.120  0.00  0.00    +0.000 C 
ATOM      3  C   UNL     1      13.208  51.366  12.568  0.00  0.00    +0.000 A 
ATOM      4  C   UNL     1      11.903  50.600  12.616  0.00  0.00    +0.000 A 
ATOM      5  C   UNL     1      12.346  54.861  13.553  0.00  0.00    +0.000 C 
ATOM      6  C   UNL     1      11.142  52.679  13.942  0.00  0.00    +0.000 C 
ATOM      7  C   UNL     1      14.007  53.734  12.290  0.00  0.00    +0.000 C 
ATOM      8  C   UNL     1      10.895  51.346  13.277  0.00  0.00    +0.000 C 
ATOM      9  C   UNL     1      13.311  55.050  12.528  0.00  0.00    +0.000 C 
ATOM     10  C   UNL     1      14.206  50.645  11.864  0.00  0.00    +0.000 A 
ATOM     11  C   UNL     1      12.961  53.398  15.542  0.00  0.00    +0.000 C 
ATOM     12  C   UNL     1      11.704  49.231  12.034  0.00  0.00    +0.000 A 
ATOM     13  C   UNL     1      13.998  49.274  11.268  0.00  0.00    +0.000 A 
ATOM     14  C   UNL     1      12.766  48.562  11.353  0.00  0.00    +0.000 A 
ATOM     15  C   UNL     1      10.477  48.577  12.148  0.00  0.00    +0.000 A 
ATOM     16  C   UNL     1      12.605  47.293  10.816  0.00  0.00    +0.000 A 
ATOM     17  C   UNL     1      10.308  47.301  11.610  0.00  0.00    +0.000 A 
ATOM     18  C   UNL     1      11.368  46.674  10.953  0.00  0.00    +0.000 A 
ENDROOT
BRANCH   5  19
ATOM     19  O   UNL     1      11.241  55.673  13.687  0.00  0.00    +0.000 OA
ATOM     20  H   UNL     1      10.799  55.542  14.545  0.00  0.00    +0.000 HD
ENDBRANCH   5  19
BRANCH  18  21
ATOM     21  O   UNL     1      11.212  45.423  10.428  0.00  0.00    +0.000 OA
ATOM     22  H   UNL     1      11.675  45.388   9.573  0.00  0.00    +0.000 HD
ENDBRANCH  18  21
TORSDOF 2
ENDMDL
MODEL 8
REMARK VINA RESULT:      -6.0     23.573     24.392
REMARK  Name = Estradiol.pdbqt.pdb
REMARK  2 active torsions:
REMARK  status: ('A' for Active; 'I' for Inactive)
REMARK    1  A    between atoms: C_5  and  O_19
REMARK    2  A    between atoms: C_18  and  O_21
REMARK                            x       y       z     vdW  Elec       q    Type
REMARK                         _______ _______ _______ _____ _____    ______ ____
ROOT
ATOM      1  C   UNL     1      -2.281  62.184  14.523  0.00  0.00    +0.000 C 
ATOM      2  C   UNL     1      -2.805  61.288  13.298  0.00  0.00    +0.000 C 
ATOM      3  C   UNL     1      -2.426  61.588  11.909  0.00  0.00    +0.000 A 
ATOM      4  C   UNL     1      -1.353  62.558  11.461  0.00  0.00    +0.000 A 
ATOM      5  C   UNL     1      -1.880  61.124  15.571  0.00  0.00    +0.000 C 
ATOM      6  C   UNL     1      -1.156  62.961  14.003  0.00  0.00    +0.000 C 
ATOM      7  C   UNL     1      -2.832  59.931  13.756  0.00  0.00    +0.000 C 
ATOM      8  C   UNL     1      -0.722  63.173  12.572  0.00  0.00    +0.000 C 
ATOM      9  C   UNL     1      -2.237  59.820  15.137  0.00  0.00    +0.000 C 
ATOM     10  C   UNL     1      -3.026  60.934  10.803  0.00  0.00    +0.000 A 
ATOM     11  C   UNL     1      -3.457  63.051  15.045  0.00  0.00    +0.000 C 
ATOM     12  C   UNL     1      -1.002  62.828  10.027  0.00  0.00    +0.000 A 
ATOM     13  C   UNL     1      -2.661  61.198   9.363  0.00  0.00    +0.000 A 
ATOM     14  C   UNL     1      -1.666  62.139   8.968  0.00  0.00    +0.000 A 
ATOM     15  C   UNL     1      -0.021  63.763   9.695  0.00  0.00    +0.000 A 
ATOM     16  C   UNL     1      -1.362  62.381   7.635  0.00  0.00    +0.000 A 
ATOM     17  C   UNL     1       0.289  64.011   8.358  0.00  0.00    +0.000 A 
ATOM     18  C   UNL     1      -0.381  63.322   7.345  0.00  0.00    +0.000 A 
ENDROOT
BRANCH   5  19
ATOM     19  O   UNL     1      -0.911  61.346  16.526  0.00  0.00    +0.000 OA
ATOM     20  H   UNL     1      -0.413  60.534  16.729  0.00  0.00    +0.000 HD
ENDBRANCH   5  19
BRANCH  18  21
ATOM     21  O   UNL     1      -0.087  63.563   6.034  0.00  0.00    +0.000 OA
ATOM     22  H   UNL     1       0.630  62.962   5.765  0.00  0.00    +0.000 HD
ENDBRANCH  18  21
TORSDOF 2
ENDMDL
MODEL 9
REMARK VINA RESULT:      -5.8     12.762     15.032
REMARK  Name = Estradiol.pdbqt.pdb
REMARK  2 active torsions:
REMARK  status: ('A' for Active; 'I' for Inactive)
REMARK    1  A    between atoms: C_5  and  O_19
REMARK    2  A    between atoms: C_18  and  O_21
REMARK                            x       y       z     vdW  Elec       q    Type
REMARK                         _______ _______ _______ _____ _____    ______ ____
ROOT
ATOM      1  C   UNL     1      22.230  40.017  -0.953  0.00  0.00    +0.000 C 
ATOM      2  C   UNL     1      22.374  41.469  -1.625  0.00  0.00    +0.000 C 
ATOM      3  C   UNL     1      21.514  41.888  -2.742  0.00  0.00    +0.000 A 
ATOM      4  C   UNL     1      20.272  41.177  -3.233  0.00  0.00    +0.000 A 
ATOM      5  C   UNL     1      22.310  40.332   0.555  0.00  0.00    +0.000 C 
ATOM      6  C   UNL     1      20.930  39.501  -1.384  0.00  0.00    +0.000 C 
ATOM      7  C   UNL     1      22.678  42.388  -0.569  0.00  0.00    +0.000 C 
ATOM      8  C   UNL     1      20.012  40.012  -2.469  0.00  0.00    +0.000 C 
ATOM      9  C   UNL     1      22.608  41.703   0.773  0.00  0.00    +0.000 C 
ATOM     10  C   UNL     1      21.751  43.081  -3.472  0.00  0.00    +0.000 A 
ATOM     11  C   UNL     1      23.431  39.142  -1.394  0.00  0.00    +0.000 C 
ATOM     12  C   UNL     1      19.424  41.648  -4.379  0.00  0.00    +0.000 A 
ATOM     13  C   UNL     1      20.889  43.559  -4.614  0.00  0.00    +0.000 A 
ATOM     14  C   UNL     1      19.739  42.854  -5.076  0.00  0.00    +0.000 A 
ATOM     15  C   UNL     1      18.310  40.917  -4.793  0.00  0.00    +0.000 A 
ATOM     16  C   UNL     1      18.974  43.303  -6.144  0.00  0.00    +0.000 A 
ATOM     17  C   UNL     1      17.536  41.362  -5.866  0.00  0.00    +0.000 A 
ATOM     18  C   UNL     1      17.874  42.544  -6.528  0.00  0.00    +0.000 A 
ENDROOT
BRANCH   5  19
ATOM     19  O   UNL     1      21.716  39.543   1.517  0.00  0.00    +0.000 OA
ATOM     20  H   UNL     1      22.366  38.983   1.977  0.00  0.00    +0.000 HD
ENDBRANCH   5  19
BRANCH  18  21
ATOM     21  O   UNL     1      17.124  42.984  -7.581  0.00  0.00    +0.000 OA
ATOM     22  H   UNL     1      16.240  42.581  -7.518  0.00  0.00    +0.000 HD
ENDBRANCH  18  21
TORSDOF 2
ENDMDL
