MODEL 1
REMARK VINA RESULT:      -8.1      0.000      0.000
REMARK  Name = 
REMARK  11 active torsions:
REMARK  status: ('A' for Active; 'I' for Inactive)
REMARK    1  A    between atoms: O_1  and  C_16
REMARK    2  A    between atoms: O_1  and  C_22
REMARK    3  A    between atoms: O_6  and  C_24
REMARK    4  A    between atoms: O_8  and  C_26
REMARK    5  A    between atoms: O_11  and  C_36
REMARK    6  A    between atoms: O_11  and  C_41
REMARK    7  A    between atoms: O_12  and  C_37
REMARK    8  A    between atoms: O_12  and  C_42
REMARK    9  A    between atoms: O_13  and  C_39
REMARK   10  A    between atoms: C_17  and  C_23
REMARK   11  A    between atoms: C_35  and  C_40
REMARK                            x       y       z     vdW  Elec       q    Type
REMARK                         _______ _______ _______ _____ _____    ______ ____
ROOT
ATOM      1  O   UNL     1      -0.603  45.716  13.896  0.00  0.00    +0.000 OA
ATOM      2  O   UNL     1       1.387  46.470  14.749  0.00  0.00    +0.000 OA
ATOM      3  O   UNL     1      -3.026  43.987  21.763  0.00  0.00    +0.000 OA
ATOM      4  O   UNL     1      -0.684  44.376  22.188  0.00  0.00    +0.000 OA
ATOM      5  C   UNL     1      -1.539  44.852  15.831  0.00  0.00    +0.000 C 
ATOM      6  C   UNL     1      -0.424  45.801  16.227  0.00  0.00    +0.000 C 
ATOM      7  C   UNL     1      -2.627  44.837  16.897  0.00  0.00    +0.000 C 
ATOM      8  C   UNL     1       0.364  45.248  17.414  0.00  0.00    +0.000 C 
ATOM      9  C   UNL     1      -2.018  44.701  18.292  0.00  0.00    +0.000 A 
ATOM     10  C   UNL     1      -0.626  44.931  18.547  0.00  0.00    +0.000 A 
ATOM     11  C   UNL     1      -1.881  45.376  14.459  0.00  0.00    +0.000 C 
ATOM     12  C   UNL     1       0.268  46.015  14.915  0.00  0.00    +0.000 C 
ATOM     13  C   UNL     1      -2.872  44.376  19.364  0.00  0.00    +0.000 A 
ATOM     14  C   UNL     1      -0.126  44.830  19.861  0.00  0.00    +0.000 A 
ATOM     15  C   UNL     1      -2.336  44.290  20.631  0.00  0.00    +0.000 A 
ATOM     16  C   UNL     1      -1.004  44.512  20.873  0.00  0.00    +0.000 A 
ATOM     17  C   UNL     1      -1.971  44.041  22.747  0.00  0.00    +0.000 C 
ENDROOT
BRANCH   8  18
ATOM     18  C   UNL     1       1.293  44.078  17.082  0.00  0.00    +0.000 A 
ATOM     19  C   UNL     1       2.646  44.251  16.741  0.00  0.00    +0.000 A 
ATOM     20  C   UNL     1       0.787  42.768  17.127  0.00  0.00    +0.000 A 
ATOM     21  C   UNL     1       1.612  41.673  16.867  0.00  0.00    +0.000 A 
ATOM     22  C   UNL     1       3.489  43.167  16.455  0.00  0.00    +0.000 A 
ATOM     23  C   UNL     1       2.958  41.879  16.522  0.00  0.00    +0.000 A 
BRANCH  21  24
ATOM     24  O   UNL     1       1.222  40.354  16.908  0.00  0.00    +0.000 OA
ATOM     25  C   UNL     1       0.119  39.996  16.080  0.00  0.00    +0.000 C 
ENDBRANCH  21  24
BRANCH  22  26
ATOM     26  O   UNL     1       4.767  43.552  16.149  0.00  0.00    +0.000 OA
ATOM     27  C   UNL     1       5.009  44.931  15.912  0.00  0.00    +0.000 C 
ENDBRANCH  22  26
BRANCH  23  28
ATOM     28  O   UNL     1       3.719  40.764  16.271  0.00  0.00    +0.000 OA
ATOM     29  H   UNL     1       3.725  40.268  17.113  0.00  0.00    +0.000 HD
ENDBRANCH  23  28
ENDBRANCH   8  18
BRANCH   7  30
ATOM     30  O   UNL     1      -3.330  46.079  16.877  0.00  0.00    +0.000 OA
BRANCH  30  34
ATOM     31  O   UNL     1      -4.926  44.603  16.016  0.00  0.00    +0.000 OA
ATOM     32  O   UNL     1      -7.759  45.085  13.720  0.00  0.00    +0.000 OA
ATOM     33  O   UNL     1      -7.852  42.891  14.593  0.00  0.00    +0.000 OA
ATOM     34  C   UNL     1      -4.683  45.952  16.422  0.00  0.00    +0.000 C 
ATOM     35  C   UNL     1      -4.861  46.953  15.258  0.00  0.00    +0.000 C 
ATOM     36  C   UNL     1      -6.440  45.277  14.242  0.00  0.00    +0.000 C 
ATOM     37  C   UNL     1      -6.213  46.755  14.558  0.00  0.00    +0.000 C 
ATOM     38  C   UNL     1      -6.250  44.452  15.512  0.00  0.00    +0.000 C 
ATOM     39  C   UNL     1      -6.548  42.997  15.163  0.00  0.00    +0.000 C 
ATOM     40  C   UNL     1      -7.979  43.702  13.426  0.00  0.00    +0.000 C 
ATOM     41  C   UNL     1      -9.397  43.556  12.904  0.00  0.00    +0.000 C 
BRANCH  35  42
ATOM     42  O   UNL     1      -4.764  48.293  15.770  0.00  0.00    +0.000 OA
ATOM     43  H   UNL     1      -5.638  48.498  16.154  0.00  0.00    +0.000 HD
ENDBRANCH  35  42
BRANCH  37  44
ATOM     44  O   UNL     1      -6.247  47.494  13.327  0.00  0.00    +0.000 OA
ATOM     45  H   UNL     1      -6.019  46.856  12.625  0.00  0.00    +0.000 HD
ENDBRANCH  37  44
ENDBRANCH  30  34
ENDBRANCH   7  30
TORSDOF 8
ENDMDL
MODEL 2
REMARK VINA RESULT:      -7.8      3.034      5.999
REMARK  Name = 
REMARK  11 active torsions:
REMARK  status: ('A' for Active; 'I' for Inactive)
REMARK    1  A    between atoms: O_1  and  C_16
REMARK    2  A    between atoms: O_1  and  C_22
REMARK    3  A    between atoms: O_6  and  C_24
REMARK    4  A    between atoms: O_8  and  C_26
REMARK    5  A    between atoms: O_11  and  C_36
REMARK    6  A    between atoms: O_11  and  C_41
REMARK    7  A    between atoms: O_12  and  C_37
REMARK    8  A    between atoms: O_12  and  C_42
REMARK    9  A    between atoms: O_13  and  C_39
REMARK   10  A    between atoms: C_17  and  C_23
REMARK   11  A    between atoms: C_35  and  C_40
REMARK                            x       y       z     vdW  Elec       q    Type
REMARK                         _______ _______ _______ _____ _____    ______ ____
ROOT
ATOM      1  O   UNL     1      -1.991  39.872  14.237  0.00  0.00    +0.000 OA
ATOM      2  O   UNL     1      -0.155  41.242  14.349  0.00  0.00    +0.000 OA
ATOM      3  O   UNL     1      -6.824  46.727  14.871  0.00  0.00    +0.000 OA
ATOM      4  O   UNL     1      -4.708  47.726  15.458  0.00  0.00    +0.000 OA
ATOM      5  C   UNL     1      -3.651  41.432  14.657  0.00  0.00    +0.000 C 
ATOM      6  C   UNL     1      -2.398  42.176  14.238  0.00  0.00    +0.000 C 
ATOM      7  C   UNL     1      -4.893  42.207  14.237  0.00  0.00    +0.000 C 
ATOM      8  C   UNL     1      -2.218  43.449  15.065  0.00  0.00    +0.000 C 
ATOM      9  C   UNL     1      -4.765  43.683  14.611  0.00  0.00    +0.000 A 
ATOM     10  C   UNL     1      -3.509  44.279  14.961  0.00  0.00    +0.000 A 
ATOM     11  C   UNL     1      -3.398  40.082  14.036  0.00  0.00    +0.000 C 
ATOM     12  C   UNL     1      -1.366  41.092  14.317  0.00  0.00    +0.000 C 
ATOM     13  C   UNL     1      -5.921  44.486  14.568  0.00  0.00    +0.000 A 
ATOM     14  C   UNL     1      -3.442  45.655  15.258  0.00  0.00    +0.000 A 
ATOM     15  C   UNL     1      -5.805  45.827  14.867  0.00  0.00    +0.000 A 
ATOM     16  C   UNL     1      -4.602  46.395  15.201  0.00  0.00    +0.000 A 
ATOM     17  C   UNL     1      -6.121  47.930  15.248  0.00  0.00    +0.000 C 
ENDROOT
BRANCH   8  18
ATOM     18  C   UNL     1      -1.765  43.220  16.509  0.00  0.00    +0.000 A 
ATOM     19  C   UNL     1      -2.494  42.440  17.424  0.00  0.00    +0.000 A 
ATOM     20  C   UNL     1      -0.562  43.799  16.949  0.00  0.00    +0.000 A 
ATOM     21  C   UNL     1      -0.098  43.585  18.247  0.00  0.00    +0.000 A 
ATOM     22  C   UNL     1      -2.058  42.228  18.739  0.00  0.00    +0.000 A 
ATOM     23  C   UNL     1      -0.853  42.806  19.140  0.00  0.00    +0.000 A 
BRANCH  21  24
ATOM     24  O   UNL     1       1.074  44.085  18.767  0.00  0.00    +0.000 OA
ATOM     25  C   UNL     1       1.982  44.665  17.835  0.00  0.00    +0.000 C 
ENDBRANCH  21  24
BRANCH  22  26
ATOM     26  O   UNL     1      -2.911  41.439  19.463  0.00  0.00    +0.000 OA
ATOM     27  C   UNL     1      -4.300  41.732  19.406  0.00  0.00    +0.000 C 
ENDBRANCH  22  26
BRANCH  23  28
ATOM     28  O   UNL     1      -0.349  42.635  20.405  0.00  0.00    +0.000 OA
ATOM     29  H   UNL     1      -0.247  41.669  20.506  0.00  0.00    +0.000 HD
ENDBRANCH  23  28
ENDBRANCH   8  18
BRANCH   7  30
ATOM     30  O   UNL     1      -5.029  42.156  12.817  0.00  0.00    +0.000 OA
BRANCH  30  34
ATOM     31  O   UNL     1      -7.150  41.272  13.250  0.00  0.00    +0.000 OA
ATOM     32  O   UNL     1      -9.955  40.374  11.048  0.00  0.00    +0.000 OA
ATOM     33  O   UNL     1     -10.669  40.210  13.295  0.00  0.00    +0.000 OA
ATOM     34  C   UNL     1      -6.395  42.121  12.384  0.00  0.00    +0.000 C 
ATOM     35  C   UNL     1      -6.390  41.610  10.925  0.00  0.00    +0.000 C 
ATOM     36  C   UNL     1      -8.588  40.504  11.453  0.00  0.00    +0.000 C 
ATOM     37  C   UNL     1      -7.817  41.336  10.429  0.00  0.00    +0.000 C 
ATOM     38  C   UNL     1      -8.505  41.177  12.820  0.00  0.00    +0.000 C 
ATOM     39  C   UNL     1      -9.339  40.348  13.791  0.00  0.00    +0.000 C 
ATOM     40  C   UNL     1     -10.684  39.599  12.005  0.00  0.00    +0.000 C 
ATOM     41  C   UNL     1     -12.127  39.520  11.539  0.00  0.00    +0.000 C 
BRANCH  35  42
ATOM     42  O   UNL     1      -5.756  42.589  10.085  0.00  0.00    +0.000 OA
ATOM     43  H   UNL     1      -4.867  42.238   9.885  0.00  0.00    +0.000 HD
ENDBRANCH  35  42
BRANCH  37  44
ATOM     44  O   UNL     1      -7.780  40.612   9.188  0.00  0.00    +0.000 OA
ATOM     45  H   UNL     1      -7.017  40.966   8.694  0.00  0.00    +0.000 HD
ENDBRANCH  37  44
ENDBRANCH  30  34
ENDBRANCH   7  30
TORSDOF 8
ENDMDL
MODEL 3
REMARK VINA RESULT:      -7.7      3.072      5.838
REMARK  Name = 
REMARK  11 active torsions:
REMARK  status: ('A' for Active; 'I' for Inactive)
REMARK    1  A    between atoms: O_1  and  C_16
REMARK    2  A    between atoms: O_1  and  C_22
REMARK    3  A    between atoms: O_6  and  C_24
REMARK    4  A    between atoms: O_8  and  C_26
REMARK    5  A    between atoms: O_11  and  C_36
REMARK    6  A    between atoms: O_11  and  C_41
REMARK    7  A    between atoms: O_12  and  C_37
REMARK    8  A    between atoms: O_12  and  C_42
REMARK    9  A    between atoms: O_13  and  C_39
REMARK   10  A    between atoms: C_17  and  C_23
REMARK   11  A    between atoms: C_35  and  C_40
REMARK                            x       y       z     vdW  Elec       q    Type
REMARK                         _______ _______ _______ _____ _____    ______ ____
ROOT
ATOM      1  O   UNL     1      -1.895  39.792  14.339  0.00  0.00    +0.000 OA
ATOM      2  O   UNL     1      -0.102  41.218  14.426  0.00  0.00    +0.000 OA
ATOM      3  O   UNL     1      -6.933  46.523  14.598  0.00  0.00    +0.000 OA
ATOM      4  O   UNL     1      -4.858  47.607  15.179  0.00  0.00    +0.000 OA
ATOM      5  C   UNL     1      -3.607  41.319  14.664  0.00  0.00    +0.000 C 
ATOM      6  C   UNL     1      -2.367  42.081  14.235  0.00  0.00    +0.000 C 
ATOM      7  C   UNL     1      -4.863  42.039  14.190  0.00  0.00    +0.000 C 
ATOM      8  C   UNL     1      -2.240  43.392  15.011  0.00  0.00    +0.000 C 
ATOM      9  C   UNL     1      -4.784  43.533  14.503  0.00  0.00    +0.000 A 
ATOM     10  C   UNL     1      -3.552  44.179  14.850  0.00  0.00    +0.000 A 
ATOM     11  C   UNL     1      -3.304  39.952  14.105  0.00  0.00    +0.000 C 
ATOM     12  C   UNL     1      -1.307  41.032  14.378  0.00  0.00    +0.000 C 
ATOM     13  C   UNL     1      -5.961  44.299  14.406  0.00  0.00    +0.000 A 
ATOM     14  C   UNL     1      -3.529  45.568  15.090  0.00  0.00    +0.000 A 
ATOM     15  C   UNL     1      -5.889  45.654  14.650  0.00  0.00    +0.000 A 
ATOM     16  C   UNL     1      -4.709  46.270  14.981  0.00  0.00    +0.000 A 
ATOM     17  C   UNL     1      -6.272  47.761  14.936  0.00  0.00    +0.000 C 
ENDROOT
BRANCH   8  18
ATOM     18  C   UNL     1      -1.807  43.237  16.471  0.00  0.00    +0.000 A 
ATOM     19  C   UNL     1      -0.565  43.689  16.951  0.00  0.00    +0.000 A 
ATOM     20  C   UNL     1      -2.686  42.632  17.386  0.00  0.00    +0.000 A 
ATOM     21  C   UNL     1      -2.342  42.506  18.732  0.00  0.00    +0.000 A 
ATOM     22  C   UNL     1      -0.189  43.554  18.295  0.00  0.00    +0.000 A 
ATOM     23  C   UNL     1      -1.090  42.960  19.179  0.00  0.00    +0.000 A 
BRANCH  21  24
ATOM     24  O   UNL     1      -3.137  41.952  19.709  0.00  0.00    +0.000 OA
ATOM     25  C   UNL     1      -4.490  41.686  19.348  0.00  0.00    +0.000 C 
ENDBRANCH  21  24
BRANCH  22  26
ATOM     26  O   UNL     1       1.057  44.059  18.553  0.00  0.00    +0.000 OA
ATOM     27  C   UNL     1       1.235  45.466  18.477  0.00  0.00    +0.000 C 
ENDBRANCH  22  26
BRANCH  23  28
ATOM     28  O   UNL     1      -0.806  42.804  20.513  0.00  0.00    +0.000 OA
ATOM     29  H   UNL     1      -0.304  41.967  20.567  0.00  0.00    +0.000 HD
ENDBRANCH  23  28
ENDBRANCH   8  18
BRANCH   7  30
ATOM     30  O   UNL     1      -4.970  41.925  12.771  0.00  0.00    +0.000 OA
BRANCH  30  34
ATOM     31  O   UNL     1      -7.126  41.112  13.169  0.00  0.00    +0.000 OA
ATOM     32  O   UNL     1      -9.910  40.269  10.917  0.00  0.00    +0.000 OA
ATOM     33  O   UNL     1     -10.677  40.158  13.150  0.00  0.00    +0.000 OA
ATOM     34  C   UNL     1      -6.326  41.925  12.308  0.00  0.00    +0.000 C 
ATOM     35  C   UNL     1      -6.306  41.394  10.856  0.00  0.00    +0.000 C 
ATOM     36  C   UNL     1      -8.548  40.363  11.351  0.00  0.00    +0.000 C 
ATOM     37  C   UNL     1      -7.730  41.157  10.333  0.00  0.00    +0.000 C 
ATOM     38  C   UNL     1      -8.474  41.052  12.710  0.00  0.00    +0.000 C 
ATOM     39  C   UNL     1      -9.354  40.263  13.674  0.00  0.00    +0.000 C 
ATOM     40  C   UNL     1     -10.683  39.531  11.868  0.00  0.00    +0.000 C 
ATOM     41  C   UNL     1     -12.116  39.489  11.372  0.00  0.00    +0.000 C 
BRANCH  35  42
ATOM     42  O   UNL     1      -5.624  42.342  10.018  0.00  0.00    +0.000 OA
ATOM     43  H   UNL     1      -4.742  41.960   9.842  0.00  0.00    +0.000 HD
ENDBRANCH  35  42
BRANCH  37  44
ATOM     44  O   UNL     1      -7.689  40.415   9.103  0.00  0.00    +0.000 OA
ATOM     45  H   UNL     1      -6.743  40.319   8.880  0.00  0.00    +0.000 HD
ENDBRANCH  37  44
ENDBRANCH  30  34
ENDBRANCH   7  30
TORSDOF 8
ENDMDL
MODEL 4
REMARK VINA RESULT:      -7.7      2.015      2.380
REMARK  Name = 
REMARK  11 active torsions:
REMARK  status: ('A' for Active; 'I' for Inactive)
REMARK    1  A    between atoms: O_1  and  C_16
REMARK    2  A    between atoms: O_1  and  C_22
REMARK    3  A    between atoms: O_6  and  C_24
REMARK    4  A    between atoms: O_8  and  C_26
REMARK    5  A    between atoms: O_11  and  C_36
REMARK    6  A    between atoms: O_11  and  C_41
REMARK    7  A    between atoms: O_12  and  C_37
REMARK    8  A    between atoms: O_12  and  C_42
REMARK    9  A    between atoms: O_13  and  C_39
REMARK   10  A    between atoms: C_17  and  C_23
REMARK   11  A    between atoms: C_35  and  C_40
REMARK                            x       y       z     vdW  Elec       q    Type
REMARK                         _______ _______ _______ _____ _____    ______ ____
ROOT
ATOM      1  O   UNL     1      -1.418  45.270  14.813  0.00  0.00    +0.000 OA
ATOM      2  O   UNL     1       0.630  46.282  15.006  0.00  0.00    +0.000 OA
ATOM      3  O   UNL     1      -1.263  43.958  23.120  0.00  0.00    +0.000 OA
ATOM      4  O   UNL     1       1.040  44.608  22.818  0.00  0.00    +0.000 OA
ATOM      5  C   UNL     1      -1.652  44.479  16.978  0.00  0.00    +0.000 C 
ATOM      6  C   UNL     1      -0.590  45.562  16.982  0.00  0.00    +0.000 C 
ATOM      7  C   UNL     1      -2.379  44.444  18.316  0.00  0.00    +0.000 C 
ATOM      8  C   UNL     1       0.565  45.187  17.910  0.00  0.00    +0.000 C 
ATOM      9  C   UNL     1      -1.385  44.482  19.476  0.00  0.00    +0.000 A 
ATOM     10  C   UNL     1      -0.015  44.867  19.298  0.00  0.00    +0.000 A 
ATOM     11  C   UNL     1      -2.432  44.853  15.743  0.00  0.00    +0.000 C 
ATOM     12  C   UNL     1      -0.334  45.734  15.515  0.00  0.00    +0.000 C 
ATOM     13  C   UNL     1      -1.850  44.164  20.766  0.00  0.00    +0.000 A 
ATOM     14  C   UNL     1       0.849  44.924  20.410  0.00  0.00    +0.000 A 
ATOM     15  C   UNL     1      -0.968  44.234  21.822  0.00  0.00    +0.000 A 
ATOM     16  C   UNL     1       0.342  44.604  21.650  0.00  0.00    +0.000 A 
ATOM     17  C   UNL     1       0.015  44.196  23.746  0.00  0.00    +0.000 C 
ENDROOT
BRANCH   8  18
ATOM     18  C   UNL     1       1.490  44.090  17.377  0.00  0.00    +0.000 A 
ATOM     19  C   UNL     1       2.782  44.353  16.887  0.00  0.00    +0.000 A 
ATOM     20  C   UNL     1       1.047  42.757  17.385  0.00  0.00    +0.000 A 
ATOM     21  C   UNL     1       1.875  41.725  16.942  0.00  0.00    +0.000 A 
ATOM     22  C   UNL     1       3.624  43.335  16.417  0.00  0.00    +0.000 A 
ATOM     23  C   UNL     1       3.158  42.021  16.451  0.00  0.00    +0.000 A 
BRANCH  21  24
ATOM     24  O   UNL     1       1.547  40.389  16.930  0.00  0.00    +0.000 OA
ATOM     25  C   UNL     1       0.370  40.035  16.208  0.00  0.00    +0.000 C 
ENDBRANCH  21  24
BRANCH  22  26
ATOM     26  O   UNL     1       4.836  43.803  15.987  0.00  0.00    +0.000 OA
ATOM     27  C   UNL     1       5.075  45.201  16.058  0.00  0.00    +0.000 C 
ENDBRANCH  22  26
BRANCH  23  28
ATOM     28  O   UNL     1       3.925  40.966  16.024  0.00  0.00    +0.000 OA
ATOM     29  H   UNL     1       3.305  40.382  15.543  0.00  0.00    +0.000 HD
ENDBRANCH  23  28
ENDBRANCH   8  18
BRANCH   7  30
ATOM     30  O   UNL     1      -3.200  45.606  18.443  0.00  0.00    +0.000 OA
BRANCH  30  34
ATOM     31  O   UNL     1      -4.750  43.880  18.731  0.00  0.00    +0.000 OA
ATOM     32  O   UNL     1      -8.358  43.654  18.049  0.00  0.00    +0.000 OA
ATOM     33  O   UNL     1      -7.683  41.717  19.222  0.00  0.00    +0.000 OA
ATOM     34  C   UNL     1      -4.569  45.298  18.729  0.00  0.00    +0.000 C 
ATOM     35  C   UNL     1      -5.422  45.994  17.643  0.00  0.00    +0.000 C 
ATOM     36  C   UNL     1      -6.997  44.039  17.825  0.00  0.00    +0.000 C 
ATOM     37  C   UNL     1      -6.893  45.561  17.732  0.00  0.00    +0.000 C 
ATOM     38  C   UNL     1      -6.114  43.539  18.965  0.00  0.00    +0.000 C 
ATOM     39  C   UNL     1      -6.300  42.028  19.062  0.00  0.00    +0.000 C 
ATOM     40  C   UNL     1      -8.462  42.231  18.142  0.00  0.00    +0.000 C 
ATOM     41  C   UNL     1      -9.916  41.885  18.406  0.00  0.00    +0.000 C 
BRANCH  35  42
ATOM     42  O   UNL     1      -5.318  47.418  17.804  0.00  0.00    +0.000 OA
ATOM     43  H   UNL     1      -5.046  47.565  18.731  0.00  0.00    +0.000 HD
ENDBRANCH  35  42
BRANCH  37  44
ATOM     44  O   UNL     1      -7.608  45.995  16.564  0.00  0.00    +0.000 OA
ATOM     45  H   UNL     1      -7.629  45.227  15.961  0.00  0.00    +0.000 HD
ENDBRANCH  37  44
ENDBRANCH  30  34
ENDBRANCH   7  30
TORSDOF 8
ENDMDL
MODEL 5
REMARK VINA RESULT:      -7.6      3.544     10.358
REMARK  Name = 
REMARK  11 active torsions:
REMARK  status: ('A' for Active; 'I' for Inactive)
REMARK    1  A    between atoms: O_1  and  C_16
REMARK    2  A    between atoms: O_1  and  C_22
REMARK    3  A    between atoms: O_6  and  C_24
REMARK    4  A    between atoms: O_8  and  C_26
REMARK    5  A    between atoms: O_11  and  C_36
REMARK    6  A    between atoms: O_11  and  C_41
REMARK    7  A    between atoms: O_12  and  C_37
REMARK    8  A    between atoms: O_12  and  C_42
REMARK    9  A    between atoms: O_13  and  C_39
REMARK   10  A    between atoms: C_17  and  C_23
REMARK   11  A    between atoms: C_35  and  C_40
REMARK                            x       y       z     vdW  Elec       q    Type
REMARK                         _______ _______ _______ _____ _____    ______ ____
ROOT
ATOM      1  O   UNL     1      -6.358  40.731  10.356  0.00  0.00    +0.000 OA
ATOM      2  O   UNL     1      -8.405  39.730  10.100  0.00  0.00    +0.000 OA
ATOM      3  O   UNL     1      -8.368  42.204  18.390  0.00  0.00    +0.000 OA
ATOM      4  O   UNL     1     -10.549  41.557  17.588  0.00  0.00    +0.000 OA
ATOM      5  C   UNL     1      -6.610  41.562  12.503  0.00  0.00    +0.000 C 
ATOM      6  C   UNL     1      -7.655  40.484  12.287  0.00  0.00    +0.000 C 
ATOM      7  C   UNL     1      -6.203  41.621  13.970  0.00  0.00    +0.000 C 
ATOM      8  C   UNL     1      -8.986  40.881  12.924  0.00  0.00    +0.000 C 
ATOM      9  C   UNL     1      -7.434  41.608  14.876  0.00  0.00    +0.000 A 
ATOM     10  C   UNL     1      -8.731  41.225  14.402  0.00  0.00    +0.000 A 
ATOM     11  C   UNL     1      -5.576  41.161  11.482  0.00  0.00    +0.000 C 
ATOM     12  C   UNL     1      -7.576  40.284  10.804  0.00  0.00    +0.000 C 
ATOM     13  C   UNL     1      -7.268  41.950  16.232  0.00  0.00    +0.000 A 
ATOM     14  C   UNL     1      -9.824  41.194  15.292  0.00  0.00    +0.000 A 
ATOM     15  C   UNL     1      -8.366  41.904  17.064  0.00  0.00    +0.000 A 
ATOM     16  C   UNL     1      -9.607  41.536  16.608  0.00  0.00    +0.000 A 
ATOM     17  C   UNL     1      -9.756  41.983  18.716  0.00  0.00    +0.000 C 
ENDROOT
BRANCH   8  18
ATOM     18  C   UNL     1      -9.759  41.971  12.178  0.00  0.00    +0.000 A 
ATOM     19  C   UNL     1      -9.354  43.318  12.161  0.00  0.00    +0.000 A 
ATOM     20  C   UNL     1     -10.917  41.622  11.463  0.00  0.00    +0.000 A 
ATOM     21  C   UNL     1     -11.628  42.581  10.741  0.00  0.00    +0.000 A 
ATOM     22  C   UNL     1     -10.064  44.302  11.459  0.00  0.00    +0.000 A 
ATOM     23  C   UNL     1     -11.203  43.920  10.750  0.00  0.00    +0.000 A 
BRANCH  21  24
ATOM     24  O   UNL     1     -12.758  42.340   9.993  0.00  0.00    +0.000 OA
ATOM     25  C   UNL     1     -13.376  41.069  10.175  0.00  0.00    +0.000 C 
ENDBRANCH  21  24
BRANCH  22  26
ATOM     26  O   UNL     1      -9.502  45.546  11.570  0.00  0.00    +0.000 OA
ATOM     27  C   UNL     1      -8.226  45.648  12.185  0.00  0.00    +0.000 C 
ENDBRANCH  22  26
BRANCH  23  28
ATOM     28  O   UNL     1     -11.945  44.819  10.025  0.00  0.00    +0.000 OA
ATOM     29  H   UNL     1     -12.743  44.981  10.567  0.00  0.00    +0.000 HD
ENDBRANCH  23  28
ENDBRANCH   8  18
BRANCH   7  30
ATOM     30  O   UNL     1      -5.442  40.458  14.299  0.00  0.00    +0.000 OA
BRANCH  30  34
ATOM     31  O   UNL     1      -3.911  42.143  14.831  0.00  0.00    +0.000 OA
ATOM     32  O   UNL     1      -0.288  42.088  15.458  0.00  0.00    +0.000 OA
ATOM     33  O   UNL     1      -1.116  44.241  15.972  0.00  0.00    +0.000 OA
ATOM     34  C   UNL     1      -4.230  40.761  15.001  0.00  0.00    +0.000 C 
ATOM     35  C   UNL     1      -3.135  39.834  14.424  0.00  0.00    +0.000 C 
ATOM     36  C   UNL     1      -1.521  41.723  14.829  0.00  0.00    +0.000 C 
ATOM     37  C   UNL     1      -1.747  40.217  14.960  0.00  0.00    +0.000 C 
ATOM     38  C   UNL     1      -2.684  42.468  15.478  0.00  0.00    +0.000 C 
ATOM     39  C   UNL     1      -2.384  43.961  15.382  0.00  0.00    +0.000 C 
ATOM     40  C   UNL     1      -0.072  43.498  15.344  0.00  0.00    +0.000 C 
ATOM     41  C   UNL     1       1.231  43.829  16.050  0.00  0.00    +0.000 C 
BRANCH  35  42
ATOM     42  O   UNL     1      -3.438  38.473  14.772  0.00  0.00    +0.000 OA
ATOM     43  H   UNL     1      -2.658  38.139  15.256  0.00  0.00    +0.000 HD
ENDBRANCH  35  42
BRANCH  37  44
ATOM     44  O   UNL     1      -0.724  39.537  14.215  0.00  0.00    +0.000 OA
ATOM     45  H   UNL     1      -0.198  40.236  13.783  0.00  0.00    +0.000 HD
ENDBRANCH  37  44
ENDBRANCH  30  34
ENDBRANCH   7  30
TORSDOF 8
ENDMDL
MODEL 6
REMARK VINA RESULT:      -7.5      2.629      8.609
REMARK  Name = 
REMARK  11 active torsions:
REMARK  status: ('A' for Active; 'I' for Inactive)
REMARK    1  A    between atoms: O_1  and  C_16
REMARK    2  A    between atoms: O_1  and  C_22
REMARK    3  A    between atoms: O_6  and  C_24
REMARK    4  A    between atoms: O_8  and  C_26
REMARK    5  A    between atoms: O_11  and  C_36
REMARK    6  A    between atoms: O_11  and  C_41
REMARK    7  A    between atoms: O_12  and  C_37
REMARK    8  A    between atoms: O_12  and  C_42
REMARK    9  A    between atoms: O_13  and  C_39
REMARK   10  A    between atoms: C_17  and  C_23
REMARK   11  A    between atoms: C_35  and  C_40
REMARK                            x       y       z     vdW  Elec       q    Type
REMARK                         _______ _______ _______ _____ _____    ______ ____
ROOT
ATOM      1  O   UNL     1      -4.558  45.683  14.927  0.00  0.00    +0.000 OA
ATOM      2  O   UNL     1      -4.957  45.104  12.745  0.00  0.00    +0.000 OA
ATOM      3  O   UNL     1      -0.388  38.432  15.818  0.00  0.00    +0.000 OA
ATOM      4  O   UNL     1      -1.436  37.983  13.692  0.00  0.00    +0.000 OA
ATOM      5  C   UNL     1      -3.585  43.715  15.667  0.00  0.00    +0.000 C 
ATOM      6  C   UNL     1      -3.524  43.733  14.152  0.00  0.00    +0.000 C 
ATOM      7  C   UNL     1      -2.404  42.940  16.237  0.00  0.00    +0.000 C 
ATOM      8  C   UNL     1      -3.807  42.344  13.580  0.00  0.00    +0.000 C 
ATOM      9  C   UNL     1      -2.219  41.614  15.501  0.00  0.00    +0.000 A 
ATOM     10  C   UNL     1      -2.841  41.344  14.238  0.00  0.00    +0.000 A 
ATOM     11  C   UNL     1      -3.691  45.190  15.962  0.00  0.00    +0.000 C 
ATOM     12  C   UNL     1      -4.448  44.868  13.828  0.00  0.00    +0.000 C 
ATOM     13  C   UNL     1      -1.373  40.644  16.074  0.00  0.00    +0.000 A 
ATOM     14  C   UNL     1      -2.603  40.118  13.584  0.00  0.00    +0.000 A 
ATOM     15  C   UNL     1      -1.171  39.461  15.397  0.00  0.00    +0.000 A 
ATOM     16  C   UNL     1      -1.767  39.206  14.188  0.00  0.00    +0.000 A 
ATOM     17  C   UNL     1      -0.562  37.497  14.733  0.00  0.00    +0.000 C 
ENDROOT
BRANCH   8  18
ATOM     18  C   UNL     1      -5.271  41.903  13.652  0.00  0.00    +0.000 A 
ATOM     19  C   UNL     1      -5.954  41.723  14.867  0.00  0.00    +0.000 A 
ATOM     20  C   UNL     1      -5.978  41.677  12.459  0.00  0.00    +0.000 A 
ATOM     21  C   UNL     1      -7.323  41.310  12.483  0.00  0.00    +0.000 A 
ATOM     22  C   UNL     1      -7.300  41.333  14.917  0.00  0.00    +0.000 A 
ATOM     23  C   UNL     1      -7.976  41.130  13.714  0.00  0.00    +0.000 A 
BRANCH  21  24
ATOM     24  O   UNL     1      -8.109  41.088  11.375  0.00  0.00    +0.000 OA
ATOM     25  C   UNL     1      -7.467  40.484  10.256  0.00  0.00    +0.000 C 
ENDBRANCH  21  24
BRANCH  22  26
ATOM     26  O   UNL     1      -7.774  41.216  16.196  0.00  0.00    +0.000 OA
ATOM     27  C   UNL     1      -7.521  42.281  17.101  0.00  0.00    +0.000 C 
ENDBRANCH  22  26
BRANCH  23  28
ATOM     28  O   UNL     1      -9.298  40.762  13.675  0.00  0.00    +0.000 OA
ATOM     29  H   UNL     1      -9.548  40.819  12.732  0.00  0.00    +0.000 HD
ENDBRANCH  23  28
ENDBRANCH   8  18
BRANCH   7  30
ATOM     30  O   UNL     1      -1.204  43.688  16.039  0.00  0.00    +0.000 OA
BRANCH  30  34
ATOM     31  O   UNL     1      -1.044  43.248  18.329  0.00  0.00    +0.000 OA
ATOM     32  O   UNL     1       1.129  44.609  20.966  0.00  0.00    +0.000 OA
ATOM     33  O   UNL     1      -0.095  42.792  21.852  0.00  0.00    +0.000 OA
ATOM     34  C   UNL     1      -0.315  43.633  17.161  0.00  0.00    +0.000 C 
ATOM     35  C   UNL     1       0.316  45.037  17.304  0.00  0.00    +0.000 C 
ATOM     36  C   UNL     1       0.316  44.631  19.788  0.00  0.00    +0.000 C 
ATOM     37  C   UNL     1       1.129  45.150  18.602  0.00  0.00    +0.000 C 
ATOM     38  C   UNL     1      -0.198  43.229  19.476  0.00  0.00    +0.000 C 
ATOM     39  C   UNL     1      -0.946  42.729  20.708  0.00  0.00    +0.000 C 
ATOM     40  C   UNL     1       0.376  44.120  22.080  0.00  0.00    +0.000 C 
ATOM     41  C   UNL     1       1.294  44.093  23.288  0.00  0.00    +0.000 C 
BRANCH  35  42
ATOM     42  O   UNL     1       1.162  45.290  16.170  0.00  0.00    +0.000 OA
ATOM     43  H   UNL     1       2.012  45.606  16.533  0.00  0.00    +0.000 HD
ENDBRANCH  35  42
BRANCH  37  44
ATOM     44  O   UNL     1       1.475  46.521  18.852  0.00  0.00    +0.000 OA
ATOM     45  H   UNL     1       0.683  47.044  18.622  0.00  0.00    +0.000 HD
ENDBRANCH  37  44
ENDBRANCH  30  34
ENDBRANCH   7  30
TORSDOF 8
ENDMDL
MODEL 7
REMARK VINA RESULT:      -7.5     12.752     16.375
REMARK  Name = 
REMARK  11 active torsions:
REMARK  status: ('A' for Active; 'I' for Inactive)
REMARK    1  A    between atoms: O_1  and  C_16
REMARK    2  A    between atoms: O_1  and  C_22
REMARK    3  A    between atoms: O_6  and  C_24
REMARK    4  A    between atoms: O_8  and  C_26
REMARK    5  A    between atoms: O_11  and  C_36
REMARK    6  A    between atoms: O_11  and  C_41
REMARK    7  A    between atoms: O_12  and  C_37
REMARK    8  A    between atoms: O_12  and  C_42
REMARK    9  A    between atoms: O_13  and  C_39
REMARK   10  A    between atoms: C_17  and  C_23
REMARK   11  A    between atoms: C_35  and  C_40
REMARK                            x       y       z     vdW  Elec       q    Type
REMARK                         _______ _______ _______ _____ _____    ______ ____
ROOT
ATOM      1  O   UNL     1       8.239  39.068  15.657  0.00  0.00    +0.000 OA
ATOM      2  O   UNL     1       8.483  37.638  13.882  0.00  0.00    +0.000 OA
ATOM      3  O   UNL     1      15.947  36.836  18.181  0.00  0.00    +0.000 OA
ATOM      4  O   UNL     1      15.603  35.120  16.522  0.00  0.00    +0.000 OA
ATOM      5  C   UNL     1      10.166  38.542  16.831  0.00  0.00    +0.000 C 
ATOM      6  C   UNL     1      10.332  38.052  15.405  0.00  0.00    +0.000 C 
ATOM      7  C   UNL     1      11.517  38.924  17.422  0.00  0.00    +0.000 C 
ATOM      8  C   UNL     1      11.037  36.697  15.375  0.00  0.00    +0.000 C 
ATOM      9  C   UNL     1      12.558  37.841  17.142  0.00  0.00    +0.000 A 
ATOM     10  C   UNL     1      12.355  36.819  16.157  0.00  0.00    +0.000 A 
ATOM     11  C   UNL     1       9.130  39.621  16.640  0.00  0.00    +0.000 C 
ATOM     12  C   UNL     1       8.932  38.169  14.884  0.00  0.00    +0.000 C 
ATOM     13  C   UNL     1      13.772  37.882  17.855  0.00  0.00    +0.000 A 
ATOM     14  C   UNL     1      13.367  35.869  15.912  0.00  0.00    +0.000 A 
ATOM     15  C   UNL     1      14.731  36.931  17.580  0.00  0.00    +0.000 A 
ATOM     16  C   UNL     1      14.535  35.954  16.636  0.00  0.00    +0.000 A 
ATOM     17  C   UNL     1      16.494  35.684  17.506  0.00  0.00    +0.000 C 
ENDROOT
BRANCH   8  18
ATOM     18  C   UNL     1      10.178  35.513  15.826  0.00  0.00    +0.000 A 
ATOM     19  C   UNL     1       9.284  35.588  16.909  0.00  0.00    +0.000 A 
ATOM     20  C   UNL     1      10.267  34.296  15.129  0.00  0.00    +0.000 A 
ATOM     21  C   UNL     1       9.474  33.206  15.487  0.00  0.00    +0.000 A 
ATOM     22  C   UNL     1       8.492  34.499  17.301  0.00  0.00    +0.000 A 
ATOM     23  C   UNL     1       8.596  33.310  16.579  0.00  0.00    +0.000 A 
BRANCH  21  24
ATOM     24  O   UNL     1       9.469  31.983  14.857  0.00  0.00    +0.000 OA
ATOM     25  C   UNL     1      10.730  31.332  14.731  0.00  0.00    +0.000 C 
ENDBRANCH  21  24
BRANCH  22  26
ATOM     26  O   UNL     1       7.691  34.781  18.375  0.00  0.00    +0.000 OA
ATOM     27  C   UNL     1       8.146  34.399  19.665  0.00  0.00    +0.000 C 
ENDBRANCH  22  26
BRANCH  23  28
ATOM     28  O   UNL     1       7.846  32.203  16.888  0.00  0.00    +0.000 OA
ATOM     29  H   UNL     1       7.756  31.716  16.046  0.00  0.00    +0.000 HD
ENDBRANCH  23  28
ENDBRANCH   8  18
BRANCH   7  30
ATOM     30  O   UNL     1      11.990  40.117  16.796  0.00  0.00    +0.000 OA
BRANCH  30  34
ATOM     31  O   UNL     1      11.542  41.531  18.604  0.00  0.00    +0.000 OA
ATOM     32  O   UNL     1      13.025  44.721  19.679  0.00  0.00    +0.000 OA
ATOM     33  O   UNL     1      11.541  43.967  21.357  0.00  0.00    +0.000 OA
ATOM     34  C   UNL     1      12.559  41.050  17.723  0.00  0.00    +0.000 C 
ATOM     35  C   UNL     1      13.191  42.186  16.885  0.00  0.00    +0.000 C 
ATOM     36  C   UNL     1      12.540  43.738  18.757  0.00  0.00    +0.000 C 
ATOM     37  C   UNL     1      13.650  43.345  17.781  0.00  0.00    +0.000 C 
ATOM     38  C   UNL     1      12.065  42.498  19.510  0.00  0.00    +0.000 C 
ATOM     39  C   UNL     1      11.009  42.947  20.514  0.00  0.00    +0.000 C 
ATOM     40  C   UNL     1      11.993  45.089  20.599  0.00  0.00    +0.000 C 
ATOM     41  C   UNL     1      12.570  46.108  21.564  0.00  0.00    +0.000 C 
BRANCH  35  42
ATOM     42  O   UNL     1      14.308  41.662  16.148  0.00  0.00    +0.000 OA
ATOM     43  H   UNL     1      14.066  41.735  15.204  0.00  0.00    +0.000 HD
ENDBRANCH  35  42
BRANCH  37  44
ATOM     44  O   UNL     1      13.976  44.492  16.979  0.00  0.00    +0.000 OA
ATOM     45  H   UNL     1      13.179  44.685  16.451  0.00  0.00    +0.000 HD
ENDBRANCH  37  44
ENDBRANCH  30  34
ENDBRANCH   7  30
TORSDOF 8
ENDMDL
MODEL 8
REMARK VINA RESULT:      -7.5      1.758      2.903
REMARK  Name = 
REMARK  11 active torsions:
REMARK  status: ('A' for Active; 'I' for Inactive)
REMARK    1  A    between atoms: O_1  and  C_16
REMARK    2  A    between atoms: O_1  and  C_22
REMARK    3  A    between atoms: O_6  and  C_24
REMARK    4  A    between atoms: O_8  and  C_26
REMARK    5  A    between atoms: O_11  and  C_36
REMARK    6  A    between atoms: O_11  and  C_41
REMARK    7  A    between atoms: O_12  and  C_37
REMARK    8  A    between atoms: O_12  and  C_42
REMARK    9  A    between atoms: O_13  and  C_39
REMARK   10  A    between atoms: C_17  and  C_23
REMARK   11  A    between atoms: C_35  and  C_40
REMARK                            x       y       z     vdW  Elec       q    Type
REMARK                         _______ _______ _______ _____ _____    ______ ____
ROOT
ATOM      1  O   UNL     1      -1.433  45.379  14.526  0.00  0.00    +0.000 OA
ATOM      2  O   UNL     1       0.542  46.480  14.907  0.00  0.00    +0.000 OA
ATOM      3  O   UNL     1      -1.829  43.774  22.774  0.00  0.00    +0.000 OA
ATOM      4  O   UNL     1       0.455  44.543  22.669  0.00  0.00    +0.000 OA
ATOM      5  C   UNL     1      -1.787  44.500  16.640  0.00  0.00    +0.000 C 
ATOM      6  C   UNL     1      -0.784  45.631  16.760  0.00  0.00    +0.000 C 
ATOM      7  C   UNL     1      -2.608  44.381  17.918  0.00  0.00    +0.000 C 
ATOM      8  C   UNL     1       0.317  45.278  17.760  0.00  0.00    +0.000 C 
ATOM      9  C   UNL     1      -1.706  44.424  19.150  0.00  0.00    +0.000 A 
ATOM     10  C   UNL     1      -0.348  44.880  19.089  0.00  0.00    +0.000 A 
ATOM     11  C   UNL     1      -2.491  44.881  15.362  0.00  0.00    +0.000 C 
ATOM     12  C   UNL     1      -0.428  45.869  15.323  0.00  0.00    +0.000 C 
ATOM     13  C   UNL     1      -2.249  44.038  20.390  0.00  0.00    +0.000 A 
ATOM     14  C   UNL     1       0.428  44.937  20.265  0.00  0.00    +0.000 A 
ATOM     15  C   UNL     1      -1.452  44.111  21.512  0.00  0.00    +0.000 A 
ATOM     16  C   UNL     1      -0.153  44.549  21.452  0.00  0.00    +0.000 A 
ATOM     17  C   UNL     1      -0.614  44.049  23.503  0.00  0.00    +0.000 C 
ENDROOT
BRANCH   8  18
ATOM     18  C   UNL     1       1.333  44.246  17.264  0.00  0.00    +0.000 A 
ATOM     19  C   UNL     1       1.016  42.888  17.085  0.00  0.00    +0.000 A 
ATOM     20  C   UNL     1       2.639  44.663  16.958  0.00  0.00    +0.000 A 
ATOM     21  C   UNL     1       3.583  43.760  16.469  0.00  0.00    +0.000 A 
ATOM     22  C   UNL     1       1.953  41.957  16.615  0.00  0.00    +0.000 A 
ATOM     23  C   UNL     1       3.238  42.408  16.308  0.00  0.00    +0.000 A 
BRANCH  21  24
ATOM     24  O   UNL     1       4.877  44.070  16.119  0.00  0.00    +0.000 OA
ATOM     25  C   UNL     1       5.271  45.428  16.296  0.00  0.00    +0.000 C 
ENDBRANCH  21  24
BRANCH  22  26
ATOM     26  O   UNL     1       1.442  40.692  16.510  0.00  0.00    +0.000 OA
ATOM     27  C   UNL     1       0.031  40.536  16.557  0.00  0.00    +0.000 C 
ENDBRANCH  22  26
BRANCH  23  28
ATOM     28  O   UNL     1       4.209  41.565  15.829  0.00  0.00    +0.000 OA
ATOM     29  H   UNL     1       4.018  40.700  16.242  0.00  0.00    +0.000 HD
ENDBRANCH  23  28
ENDBRANCH   8  18
BRANCH   7  30
ATOM     30  O   UNL     1      -3.493  45.497  18.020  0.00  0.00    +0.000 OA
BRANCH  30  34
ATOM     31  O   UNL     1      -4.954  43.690  18.269  0.00  0.00    +0.000 OA
ATOM     32  O   UNL     1      -8.480  43.210  17.338  0.00  0.00    +0.000 OA
ATOM     33  O   UNL     1      -7.780  41.367  18.641  0.00  0.00    +0.000 OA
ATOM     34  C   UNL     1      -4.859  45.115  18.219  0.00  0.00    +0.000 C 
ATOM     35  C   UNL     1      -5.668  45.712  17.044  0.00  0.00    +0.000 C 
ATOM     36  C   UNL     1      -7.132  43.670  17.197  0.00  0.00    +0.000 C 
ATOM     37  C   UNL     1      -7.112  45.192  17.045  0.00  0.00    +0.000 C 
ATOM     38  C   UNL     1      -6.309  43.273  18.419  0.00  0.00    +0.000 C 
ATOM     39  C   UNL     1      -6.410  41.758  18.568  0.00  0.00    +0.000 C 
ATOM     40  C   UNL     1      -8.505  41.787  17.486  0.00  0.00    +0.000 C 
ATOM     41  C   UNL     1      -9.952  41.361  17.658  0.00  0.00    +0.000 C 
BRANCH  35  42
ATOM     42  O   UNL     1      -5.662  47.146  17.150  0.00  0.00    +0.000 OA
ATOM     43  H   UNL     1      -5.470  47.346  18.087  0.00  0.00    +0.000 HD
ENDBRANCH  35  42
BRANCH  37  44
ATOM     44  O   UNL     1      -7.763  45.533  15.810  0.00  0.00    +0.000 OA
ATOM     45  H   UNL     1      -7.708  44.736  15.249  0.00  0.00    +0.000 HD
ENDBRANCH  37  44
ENDBRANCH  30  34
ENDBRANCH   7  30
TORSDOF 8
ENDMDL
MODEL 9
REMARK VINA RESULT:      -7.3     13.820     19.389
REMARK  Name = 
REMARK  11 active torsions:
REMARK  status: ('A' for Active; 'I' for Inactive)
REMARK    1  A    between atoms: O_1  and  C_16
REMARK    2  A    between atoms: O_1  and  C_22
REMARK    3  A    between atoms: O_6  and  C_24
REMARK    4  A    between atoms: O_8  and  C_26
REMARK    5  A    between atoms: O_11  and  C_36
REMARK    6  A    between atoms: O_11  and  C_41
REMARK    7  A    between atoms: O_12  and  C_37
REMARK    8  A    between atoms: O_12  and  C_42
REMARK    9  A    between atoms: O_13  and  C_39
REMARK   10  A    between atoms: C_17  and  C_23
REMARK   11  A    between atoms: C_35  and  C_40
REMARK                            x       y       z     vdW  Elec       q    Type
REMARK                         _______ _______ _______ _____ _____    ______ ____
ROOT
ATOM      1  O   UNL     1      13.653  30.516  17.774  0.00  0.00    +0.000 OA
ATOM      2  O   UNL     1      13.526  28.283  18.280  0.00  0.00    +0.000 OA
ATOM      3  O   UNL     1       5.881  29.976  14.603  0.00  0.00    +0.000 OA
ATOM      4  O   UNL     1       6.341  27.619  14.825  0.00  0.00    +0.000 OA
ATOM      5  C   UNL     1      11.684  30.743  16.576  0.00  0.00    +0.000 C 
ATOM      6  C   UNL     1      11.597  29.467  17.391  0.00  0.00    +0.000 C 
ATOM      7  C   UNL     1      10.298  31.346  16.385  0.00  0.00    +0.000 C 
ATOM      8  C   UNL     1      10.923  28.354  16.590  0.00  0.00    +0.000 C 
ATOM      9  C   UNL     1       9.294  30.276  15.956  0.00  0.00    +0.000 A 
ATOM     10  C   UNL     1       9.566  28.875  16.086  0.00  0.00    +0.000 A 
ATOM     11  C   UNL     1      12.704  31.517  17.371  0.00  0.00    +0.000 C 
ATOM     12  C   UNL     1      13.018  29.300  17.837  0.00  0.00    +0.000 C 
ATOM     13  C   UNL     1       8.047  30.694  15.454  0.00  0.00    +0.000 A 
ATOM     14  C   UNL     1       8.588  27.931  15.712  0.00  0.00    +0.000 A 
ATOM     15  C   UNL     1       7.123  29.734  15.102  0.00  0.00    +0.000 A 
ATOM     16  C   UNL     1       7.384  28.393  15.228  0.00  0.00    +0.000 A 
ATOM     17  C   UNL     1       5.391  28.630  14.428  0.00  0.00    +0.000 C 
ENDROOT
BRANCH   8  18
ATOM     18  C   UNL     1      11.784  27.748  15.479  0.00  0.00    +0.000 A 
ATOM     19  C   UNL     1      12.237  26.417  15.505  0.00  0.00    +0.000 A 
ATOM     20  C   UNL     1      12.133  28.541  14.372  0.00  0.00    +0.000 A 
ATOM     21  C   UNL     1      12.885  28.013  13.323  0.00  0.00    +0.000 A 
ATOM     22  C   UNL     1      13.012  25.871  14.472  0.00  0.00    +0.000 A 
ATOM     23  C   UNL     1      13.330  26.682  13.382  0.00  0.00    +0.000 A 
BRANCH  21  24
ATOM     24  O   UNL     1      13.259  28.696  12.188  0.00  0.00    +0.000 OA
ATOM     25  C   UNL     1      14.044  29.869  12.387  0.00  0.00    +0.000 C 
ENDBRANCH  21  24
BRANCH  22  26
ATOM     26  O   UNL     1      13.347  24.562  14.691  0.00  0.00    +0.000 OA
ATOM     27  C   UNL     1      12.505  23.558  14.144  0.00  0.00    +0.000 C 
ENDBRANCH  22  26
BRANCH  23  28
ATOM     28  O   UNL     1      14.071  26.220  12.323  0.00  0.00    +0.000 OA
ATOM     29  H   UNL     1      13.539  26.432  11.532  0.00  0.00    +0.000 HD
ENDBRANCH  23  28
ENDBRANCH   8  18
BRANCH   7  30
ATOM     30  O   UNL     1       9.831  31.869  17.629  0.00  0.00    +0.000 OA
BRANCH  30  34
ATOM     31  O   UNL     1       9.936  33.874  16.431  0.00  0.00    +0.000 OA
ATOM     32  O   UNL     1       9.410  37.378  17.418  0.00  0.00    +0.000 OA
ATOM     33  O   UNL     1       9.637  37.276  15.068  0.00  0.00    +0.000 OA
ATOM     34  C   UNL     1       9.301  33.196  17.516  0.00  0.00    +0.000 C 
ATOM     35  C   UNL     1       9.555  33.896  18.871  0.00  0.00    +0.000 C 
ATOM     36  C   UNL     1       9.850  36.023  17.557  0.00  0.00    +0.000 C 
ATOM     37  C   UNL     1       9.212  35.391  18.795  0.00  0.00    +0.000 C 
ATOM     38  C   UNL     1       9.466  35.215  16.320  0.00  0.00    +0.000 C 
ATOM     39  C   UNL     1      10.068  35.917  15.108  0.00  0.00    +0.000 C 
ATOM     40  C   UNL     1      10.000  37.974  16.259  0.00  0.00    +0.000 C 
ATOM     41  C   UNL     1       9.478  39.395  16.148  0.00  0.00    +0.000 C 
BRANCH  35  42
ATOM     42  O   UNL     1       8.760  33.261  19.886  0.00  0.00    +0.000 OA
ATOM     43  H   UNL     1       9.193  33.468  20.737  0.00  0.00    +0.000 HD
ENDBRANCH  35  42
BRANCH  37  44
ATOM     44  O   UNL     1       9.706  36.073  19.959  0.00  0.00    +0.000 OA
ATOM     45  H   UNL     1      10.324  36.752  19.629  0.00  0.00    +0.000 HD
ENDBRANCH  37  44
ENDBRANCH  30  34
ENDBRANCH   7  30
TORSDOF 8
ENDMDL
