MODEL 1
REMARK VINA RESULT:      -8.3      0.000      0.000
REMARK  Name = Foretinib.pdbqt.pdb
REMARK  11 active torsions:
REMARK  status: ('A' for Active; 'I' for Inactive)
REMARK    1  A    between atoms: C_2  and  N_31
REMARK    2  A    between atoms: C_7  and  O_8
REMARK    3  A    between atoms: O_8  and  C_9
REMARK    4  A    between atoms: C_17  and  O_19
REMARK    5  A    between atoms: C_18  and  O_29
REMARK    6  A    between atoms: O_19  and  C_20
REMARK    7  A    between atoms: C_21  and  C_22
REMARK    8  A    between atoms: C_22  and  N_23
REMARK    9  A    between atoms: C_32  and  C_35
REMARK   10  A    between atoms: C_35  and  C_38
REMARK   11  A    between atoms: N_40  and  C_42
REMARK                            x       y       z     vdW  Elec       q    Type
REMARK                         _______ _______ _______ _____ _____    ______ ____
ROOT
ATOM      1  F   UNL     1      10.889  33.816  14.408  0.00  0.00    +0.000 F 
ATOM      2  C   UNL     1       7.744  32.705  15.838  0.00  0.00    +0.000 A 
ATOM      3  C   UNL     1       8.870  32.766  15.016  0.00  0.00    +0.000 A 
ATOM      4  C   UNL     1       7.589  33.639  16.864  0.00  0.00    +0.000 A 
ATOM      5  C   UNL     1       9.830  33.752  15.229  0.00  0.00    +0.000 A 
ATOM      6  C   UNL     1       8.549  34.626  17.075  0.00  0.00    +0.000 A 
ATOM      7  C   UNL     1       9.685  34.668  16.271  0.00  0.00    +0.000 A 
ENDROOT
BRANCH   2   8
ATOM      8  N   UNL     1       6.736  31.736  15.678  0.00  0.00    +0.000 N 
ATOM      9  C   UNL     1       6.947  30.389  15.434  0.00  0.00    +0.000 C 
ATOM     10  O   UNL     1       8.032  29.840  15.293  0.00  0.00    +0.000 OA
ATOM     11  H   UNL     1       5.776  32.068  15.707  0.00  0.00    +0.000 HD
BRANCH   9  12
ATOM     12  C   UNL     1       5.692  29.580  15.281  0.00  0.00    +0.000 C 
ATOM     13  C   UNL     1       5.812  28.127  15.324  0.00  0.00    +0.000 C 
ATOM     14  C   UNL     1       5.525  28.825  14.044  0.00  0.00    +0.000 C 
BRANCH  12  15
ATOM     15  C   UNL     1       4.474  30.187  15.910  0.00  0.00    +0.000 C 
ATOM     16  O   UNL     1       4.547  30.601  17.061  0.00  0.00    +0.000 OA
ATOM     17  N   UNL     1       3.369  30.266  15.078  0.00  0.00    +0.000 N 
ATOM     18  H   UNL     1       3.468  29.933  14.124  0.00  0.00    +0.000 HD
BRANCH  17  19
ATOM     19  C   UNL     1       2.119  30.806  15.431  0.00  0.00    +0.000 A 
ATOM     20  C   UNL     1       1.840  32.114  15.031  0.00  0.00    +0.000 A 
ATOM     21  C   UNL     1       0.619  32.705  15.350  0.00  0.00    +0.000 A 
ATOM     22  C   UNL     1      -0.321  31.976  16.070  0.00  0.00    +0.000 A 
ATOM     23  F   UNL     1      -1.496  32.540  16.376  0.00  0.00    +0.000 F 
ATOM     24  C   UNL     1      -0.061  30.672  16.475  0.00  0.00    +0.000 A 
ATOM     25  C   UNL     1       1.162  30.090  16.152  0.00  0.00    +0.000 A 
ENDBRANCH  17  19
ENDBRANCH  12  15
ENDBRANCH   9  12
ENDBRANCH   2   8
BRANCH   7  26
ATOM     26  O   UNL     1      10.566  35.700  16.482  0.00  0.00    +0.000 OA
BRANCH  26  27
ATOM     27  C   UNL     1      10.062  36.984  16.409  0.00  0.00    +0.000 A 
ATOM     28  C   UNL     1      10.527  37.931  17.335  0.00  0.00    +0.000 A 
ATOM     29  C   UNL     1      10.054  39.249  17.219  0.00  0.00    +0.000 A 
ATOM     30  C   UNL     1      11.430  37.603  18.359  0.00  0.00    +0.000 A 
ATOM     31  N   UNL     1       9.194  39.621  16.257  0.00  0.00    +0.000 NA
ATOM     32  C   UNL     1      10.504  40.187  18.136  0.00  0.00    +0.000 A 
ATOM     33  C   UNL     1       8.780  38.683  15.376  0.00  0.00    +0.000 A 
ATOM     34  C   UNL     1       9.186  37.364  15.399  0.00  0.00    +0.000 A 
ATOM     35  C   UNL     1      11.406  39.867  19.158  0.00  0.00    +0.000 A 
ATOM     36  C   UNL     1      11.875  38.558  19.274  0.00  0.00    +0.000 A 
BRANCH  36  37
ATOM     37  O   UNL     1      12.753  38.293  20.299  0.00  0.00    +0.000 OA
ATOM     38  C   UNL     1      13.176  36.961  20.406  0.00  0.00    +0.000 C 
ENDBRANCH  36  37
BRANCH  35  39
ATOM     39  O   UNL     1      11.859  40.784  20.078  0.00  0.00    +0.000 OA
BRANCH  39  40
ATOM     40  C   UNL     1      11.109  40.902  21.171  0.00  0.00    +0.000 C 
ATOM     41  C   UNL     1      10.250  41.055  22.431  0.00  0.00    +0.000 C 
BRANCH  41  42
ATOM     42  C   UNL     1       9.389  41.214  23.689  0.00  0.00    +0.000 C 
BRANCH  42  43
ATOM     43  N   UNL     1       8.572  41.364  24.885  0.00  0.00    +0.000 N 
ATOM     44  C   UNL     1       7.151  41.166  24.463  0.00  0.00    +0.000 C 
ATOM     45  C   UNL     1       6.190  39.976  24.785  0.00  0.00    +0.000 C 
ATOM     46  O   UNL     1       6.303  38.825  25.482  0.00  0.00    +0.000 OA
ATOM     47  C   UNL     1       7.587  38.999  25.858  0.00  0.00    +0.000 C 
ATOM     48  C   UNL     1       8.686  40.084  25.648  0.00  0.00    +0.000 C 
ENDBRANCH  42  43
ENDBRANCH  41  42
ENDBRANCH  39  40
ENDBRANCH  35  39
ENDBRANCH  26  27
ENDBRANCH   7  26
TORSDOF 11
ENDMDL
MODEL 2
REMARK VINA RESULT:      -8.2      2.786      4.283
REMARK  Name = Foretinib.pdbqt.pdb
REMARK  11 active torsions:
REMARK  status: ('A' for Active; 'I' for Inactive)
REMARK    1  A    between atoms: C_2  and  N_31
REMARK    2  A    between atoms: C_7  and  O_8
REMARK    3  A    between atoms: O_8  and  C_9
REMARK    4  A    between atoms: C_17  and  O_19
REMARK    5  A    between atoms: C_18  and  O_29
REMARK    6  A    between atoms: O_19  and  C_20
REMARK    7  A    between atoms: C_21  and  C_22
REMARK    8  A    between atoms: C_22  and  N_23
REMARK    9  A    between atoms: C_32  and  C_35
REMARK   10  A    between atoms: C_35  and  C_38
REMARK   11  A    between atoms: N_40  and  C_42
REMARK                            x       y       z     vdW  Elec       q    Type
REMARK                         _______ _______ _______ _____ _____    ______ ____
ROOT
ATOM      1  F   UNL     1      10.879  32.618  14.357  0.00  0.00    +0.000 F 
ATOM      2  C   UNL     1       7.534  31.991  15.616  0.00  0.00    +0.000 A 
ATOM      3  C   UNL     1       8.705  31.870  14.867  0.00  0.00    +0.000 A 
ATOM      4  C   UNL     1       7.445  32.978  16.600  0.00  0.00    +0.000 A 
ATOM      5  C   UNL     1       9.774  32.727  15.109  0.00  0.00    +0.000 A 
ATOM      6  C   UNL     1       8.516  33.837  16.841  0.00  0.00    +0.000 A 
ATOM      7  C   UNL     1       9.693  33.695  16.110  0.00  0.00    +0.000 A 
ENDROOT
BRANCH   2   8
ATOM      8  N   UNL     1       6.415  31.160  15.422  0.00  0.00    +0.000 N 
ATOM      9  C   UNL     1       6.440  29.775  15.384  0.00  0.00    +0.000 C 
ATOM     10  O   UNL     1       7.433  29.066  15.485  0.00  0.00    +0.000 OA
ATOM     11  H   UNL     1       5.525  31.622  15.258  0.00  0.00    +0.000 HD
BRANCH   9  12
ATOM     12  C   UNL     1       5.105  29.135  15.139  0.00  0.00    +0.000 C 
ATOM     13  C   UNL     1       5.055  27.680  15.053  0.00  0.00    +0.000 C 
ATOM     14  C   UNL     1       4.885  28.517  13.836  0.00  0.00    +0.000 C 
BRANCH  12  15
ATOM     15  C   UNL     1       3.948  29.823  15.800  0.00  0.00    +0.000 C 
ATOM     16  O   UNL     1       4.013  30.066  17.000  0.00  0.00    +0.000 OA
ATOM     17  N   UNL     1       2.914  30.170  14.948  0.00  0.00    +0.000 N 
ATOM     18  H   UNL     1       3.019  29.955  13.961  0.00  0.00    +0.000 HD
BRANCH  17  19
ATOM     19  C   UNL     1       1.732  30.832  15.326  0.00  0.00    +0.000 A 
ATOM     20  C   UNL     1       1.567  32.155  14.909  0.00  0.00    +0.000 A 
ATOM     21  C   UNL     1       0.419  32.865  15.252  0.00  0.00    +0.000 A 
ATOM     22  C   UNL     1      -0.565  32.241  16.012  0.00  0.00    +0.000 A 
ATOM     23  F   UNL     1      -1.671  32.920  16.340  0.00  0.00    +0.000 F 
ATOM     24  C   UNL     1      -0.419  30.924  16.433  0.00  0.00    +0.000 A 
ATOM     25  C   UNL     1       0.733  30.223  16.087  0.00  0.00    +0.000 A 
ENDBRANCH  17  19
ENDBRANCH  12  15
ENDBRANCH   9  12
ENDBRANCH   2   8
BRANCH   7  26
ATOM     26  O   UNL     1      10.690  34.609  16.346  0.00  0.00    +0.000 OA
BRANCH  26  27
ATOM     27  C   UNL     1      10.365  35.945  16.216  0.00  0.00    +0.000 A 
ATOM     28  C   UNL     1      10.576  36.787  17.320  0.00  0.00    +0.000 A 
ATOM     29  C   UNL     1      10.297  38.155  17.163  0.00  0.00    +0.000 A 
ATOM     30  C   UNL     1      11.042  36.308  18.554  0.00  0.00    +0.000 A 
ATOM     31  N   UNL     1       9.854  38.670  16.005  0.00  0.00    +0.000 NA
ATOM     32  C   UNL     1      10.496  38.990  18.253  0.00  0.00    +0.000 A 
ATOM     33  C   UNL     1       9.677  37.829  14.962  0.00  0.00    +0.000 A 
ATOM     34  C   UNL     1       9.924  36.472  15.008  0.00  0.00    +0.000 A 
ATOM     35  C   UNL     1      10.963  38.519  19.487  0.00  0.00    +0.000 A 
ATOM     36  C   UNL     1      11.239  37.160  19.642  0.00  0.00    +0.000 A 
BRANCH  36  37
ATOM     37  O   UNL     1      11.687  36.747  20.874  0.00  0.00    +0.000 OA
ATOM     38  C   UNL     1      10.844  35.864  21.562  0.00  0.00    +0.000 C 
ENDBRANCH  36  37
BRANCH  35  39
ATOM     39  O   UNL     1      11.161  39.333  20.578  0.00  0.00    +0.000 OA
BRANCH  39  40
ATOM     40  C   UNL     1      12.124  40.240  20.436  0.00  0.00    +0.000 C 
ATOM     41  C   UNL     1      13.234  41.286  20.290  0.00  0.00    +0.000 C 
BRANCH  41  42
ATOM     42  C   UNL     1      14.348  42.330  20.149  0.00  0.00    +0.000 C 
BRANCH  42  43
ATOM     43  N   UNL     1      15.406  43.321  20.013  0.00  0.00    +0.000 N 
ATOM     44  C   UNL     1      15.604  43.543  18.548  0.00  0.00    +0.000 C 
ATOM     45  C   UNL     1      15.253  44.802  17.691  0.00  0.00    +0.000 C 
ATOM     46  O   UNL     1      14.696  46.004  17.953  0.00  0.00    +0.000 OA
ATOM     47  C   UNL     1      14.512  45.804  19.273  0.00  0.00    +0.000 C 
ATOM     48  C   UNL     1      14.786  44.652  20.288  0.00  0.00    +0.000 C 
ENDBRANCH  42  43
ENDBRANCH  41  42
ENDBRANCH  39  40
ENDBRANCH  35  39
ENDBRANCH  26  27
ENDBRANCH   7  26
TORSDOF 11
ENDMDL
MODEL 3
REMARK VINA RESULT:      -7.7     11.906     14.557
REMARK  Name = Foretinib.pdbqt.pdb
REMARK  11 active torsions:
REMARK  status: ('A' for Active; 'I' for Inactive)
REMARK    1  A    between atoms: C_2  and  N_31
REMARK    2  A    between atoms: C_7  and  O_8
REMARK    3  A    between atoms: O_8  and  C_9
REMARK    4  A    between atoms: C_17  and  O_19
REMARK    5  A    between atoms: C_18  and  O_29
REMARK    6  A    between atoms: O_19  and  C_20
REMARK    7  A    between atoms: C_21  and  C_22
REMARK    8  A    between atoms: C_22  and  N_23
REMARK    9  A    between atoms: C_32  and  C_35
REMARK   10  A    between atoms: C_35  and  C_38
REMARK   11  A    between atoms: N_40  and  C_42
REMARK                            x       y       z     vdW  Elec       q    Type
REMARK                         _______ _______ _______ _____ _____    ______ ____
ROOT
ATOM      1  F   UNL     1      -3.065  43.561  15.914  0.00  0.00    +0.000 F 
ATOM      2  C   UNL     1      -6.028  41.698  14.959  0.00  0.00    +0.000 A 
ATOM      3  C   UNL     1      -5.200  42.618  15.602  0.00  0.00    +0.000 A 
ATOM      4  C   UNL     1      -5.494  40.857  13.980  0.00  0.00    +0.000 A 
ATOM      5  C   UNL     1      -3.853  42.694  15.262  0.00  0.00    +0.000 A 
ATOM      6  C   UNL     1      -4.145  40.933  13.641  0.00  0.00    +0.000 A 
ATOM      7  C   UNL     1      -3.327  41.871  14.266  0.00  0.00    +0.000 A 
ENDROOT
BRANCH   2   8
ATOM      8  N   UNL     1      -7.398  41.567  15.255  0.00  0.00    +0.000 N 
ATOM      9  C   UNL     1      -7.923  41.204  16.485  0.00  0.00    +0.000 C 
ATOM     10  O   UNL     1      -7.284  40.918  17.489  0.00  0.00    +0.000 OA
ATOM     11  H   UNL     1      -8.047  41.714  14.488  0.00  0.00    +0.000 HD
BRANCH   9  12
ATOM     12  C   UNL     1      -9.421  41.116  16.521  0.00  0.00    +0.000 C 
ATOM     13  C   UNL     1     -10.028  39.803  16.333  0.00  0.00    +0.000 C 
ATOM     14  C   UNL     1     -10.108  40.833  15.265  0.00  0.00    +0.000 C 
BRANCH  12  15
ATOM     15  C   UNL     1     -10.081  42.045  17.495  0.00  0.00    +0.000 C 
ATOM     16  O   UNL     1     -10.786  42.950  17.064  0.00  0.00    +0.000 OA
ATOM     17  N   UNL     1      -9.858  41.742  18.828  0.00  0.00    +0.000 N 
ATOM     18  H   UNL     1      -9.294  40.925  19.042  0.00  0.00    +0.000 HD
BRANCH  17  19
ATOM     19  C   UNL     1     -10.378  42.454  19.924  0.00  0.00    +0.000 A 
ATOM     20  C   UNL     1     -11.748  42.353  20.173  0.00  0.00    +0.000 A 
ATOM     21  C   UNL     1     -12.323  43.033  21.244  0.00  0.00    +0.000 A 
ATOM     22  C   UNL     1     -11.517  43.815  22.065  0.00  0.00    +0.000 A 
ATOM     23  F   UNL     1     -12.066  44.469  23.096  0.00  0.00    +0.000 F 
ATOM     24  C   UNL     1     -10.151  43.925  21.834  0.00  0.00    +0.000 A 
ATOM     25  C   UNL     1      -9.585  43.242  20.760  0.00  0.00    +0.000 A 
ENDBRANCH  17  19
ENDBRANCH  12  15
ENDBRANCH   9  12
ENDBRANCH   2   8
BRANCH   7  26
ATOM     26  O   UNL     1      -1.993  41.858  13.938  0.00  0.00    +0.000 OA
BRANCH  26  27
ATOM     27  C   UNL     1      -1.107  41.451  14.916  0.00  0.00    +0.000 A 
ATOM     28  C   UNL     1      -0.219  42.403  15.441  0.00  0.00    +0.000 A 
ATOM     29  C   UNL     1       0.641  41.996  16.476  0.00  0.00    +0.000 A 
ATOM     30  C   UNL     1      -0.161  43.722  14.965  0.00  0.00    +0.000 A 
ATOM     31  N   UNL     1       0.627  40.750  16.973  0.00  0.00    +0.000 NA
ATOM     32  C   UNL     1       1.526  42.931  16.992  0.00  0.00    +0.000 A 
ATOM     33  C   UNL     1      -0.253  39.866  16.450  0.00  0.00    +0.000 A 
ATOM     34  C   UNL     1      -1.141  40.162  15.437  0.00  0.00    +0.000 A 
ATOM     35  C   UNL     1       1.588  44.249  16.524  0.00  0.00    +0.000 A 
ATOM     36  C   UNL     1       0.734  44.652  15.496  0.00  0.00    +0.000 A 
BRANCH  36  37
ATOM     37  O   UNL     1       0.839  45.954  15.066  0.00  0.00    +0.000 OA
ATOM     38  C   UNL     1      -0.375  46.630  14.880  0.00  0.00    +0.000 C 
ENDBRANCH  36  37
BRANCH  35  39
ATOM     39  O   UNL     1       2.462  45.186  17.022  0.00  0.00    +0.000 OA
BRANCH  39  40
ATOM     40  C   UNL     1       2.448  45.322  18.346  0.00  0.00    +0.000 C 
ATOM     41  C   UNL     1       2.444  45.466  19.872  0.00  0.00    +0.000 C 
BRANCH  41  42
ATOM     42  C   UNL     1       2.447  45.609  21.397  0.00  0.00    +0.000 C 
BRANCH  42  43
ATOM     43  N   UNL     1       2.449  45.747  22.847  0.00  0.00    +0.000 N 
ATOM     44  C   UNL     1       2.252  44.377  23.410  0.00  0.00    +0.000 C 
ATOM     45  C   UNL     1       3.273  43.477  24.179  0.00  0.00    +0.000 C 
ATOM     46  O   UNL     1       4.564  43.613  24.556  0.00  0.00    +0.000 OA
ATOM     47  C   UNL     1       4.744  44.847  24.043  0.00  0.00    +0.000 C 
ATOM     48  C   UNL     1       3.877  45.883  23.265  0.00  0.00    +0.000 C 
ENDBRANCH  42  43
ENDBRANCH  41  42
ENDBRANCH  39  40
ENDBRANCH  35  39
ENDBRANCH  26  27
ENDBRANCH   7  26
TORSDOF 11
ENDMDL
MODEL 4
REMARK VINA RESULT:      -7.7     17.139     21.835
REMARK  Name = Foretinib.pdbqt.pdb
REMARK  11 active torsions:
REMARK  status: ('A' for Active; 'I' for Inactive)
REMARK    1  A    between atoms: C_2  and  N_31
REMARK    2  A    between atoms: C_7  and  O_8
REMARK    3  A    between atoms: O_8  and  C_9
REMARK    4  A    between atoms: C_17  and  O_19
REMARK    5  A    between atoms: C_18  and  O_29
REMARK    6  A    between atoms: O_19  and  C_20
REMARK    7  A    between atoms: C_21  and  C_22
REMARK    8  A    between atoms: C_22  and  N_23
REMARK    9  A    between atoms: C_32  and  C_35
REMARK   10  A    between atoms: C_35  and  C_38
REMARK   11  A    between atoms: N_40  and  C_42
REMARK                            x       y       z     vdW  Elec       q    Type
REMARK                         _______ _______ _______ _____ _____    ______ ____
ROOT
ATOM      1  F   UNL     1     -11.614  38.245   9.173  0.00  0.00    +0.000 F 
ATOM      2  C   UNL     1     -14.697  38.528   7.280  0.00  0.00    +0.000 A 
ATOM      3  C   UNL     1     -13.583  37.972   7.910  0.00  0.00    +0.000 A 
ATOM      4  C   UNL     1     -14.910  39.906   7.349  0.00  0.00    +0.000 A 
ATOM      5  C   UNL     1     -12.698  38.792   8.603  0.00  0.00    +0.000 A 
ATOM      6  C   UNL     1     -14.023  40.727   8.042  0.00  0.00    +0.000 A 
ATOM      7  C   UNL     1     -12.926  40.165   8.692  0.00  0.00    +0.000 A 
ENDROOT
BRANCH   2   8
ATOM      8  N   UNL     1     -15.630  37.758   6.562  0.00  0.00    +0.000 N 
ATOM      9  C   UNL     1     -16.799  37.224   7.079  0.00  0.00    +0.000 C 
ATOM     10  O   UNL     1     -17.187  37.316   8.236  0.00  0.00    +0.000 OA
ATOM     11  H   UNL     1     -15.400  37.547   5.595  0.00  0.00    +0.000 HD
BRANCH   9  12
ATOM     12  C   UNL     1     -17.604  36.421   6.099  0.00  0.00    +0.000 C 
ATOM     13  C   UNL     1     -17.901  37.028   4.806  0.00  0.00    +0.000 C 
ATOM     14  C   UNL     1     -18.968  36.862   5.827  0.00  0.00    +0.000 C 
BRANCH  12  15
ATOM     15  C   UNL     1     -17.327  34.948   6.118  0.00  0.00    +0.000 C 
ATOM     16  O   UNL     1     -17.844  34.261   6.991  0.00  0.00    +0.000 OA
ATOM     17  N   UNL     1     -16.529  34.493   5.082  0.00  0.00    +0.000 N 
ATOM     18  H   UNL     1     -16.214  35.169   4.393  0.00  0.00    +0.000 HD
BRANCH  17  19
ATOM     19  C   UNL     1     -16.141  33.157   4.876  0.00  0.00    +0.000 A 
ATOM     20  C   UNL     1     -16.911  32.384   4.003  0.00  0.00    +0.000 A 
ATOM     21  C   UNL     1     -16.578  31.054   3.758  0.00  0.00    +0.000 A 
ATOM     22  C   UNL     1     -15.470  30.503   4.391  0.00  0.00    +0.000 A 
ATOM     23  F   UNL     1     -15.146  29.224   4.155  0.00  0.00    +0.000 F 
ATOM     24  C   UNL     1     -14.691  31.257   5.260  0.00  0.00    +0.000 A 
ATOM     25  C   UNL     1     -15.031  32.585   5.501  0.00  0.00    +0.000 A 
ENDBRANCH  17  19
ENDBRANCH  12  15
ENDBRANCH   9  12
ENDBRANCH   2   8
BRANCH   7  26
ATOM     26  O   UNL     1     -12.051  41.028   9.305  0.00  0.00    +0.000 OA
BRANCH  26  27
ATOM     27  C   UNL     1     -12.017  41.018  10.685  0.00  0.00    +0.000 A 
ATOM     28  C   UNL     1     -10.803  40.701  11.314  0.00  0.00    +0.000 A 
ATOM     29  C   UNL     1     -10.761  40.748  12.719  0.00  0.00    +0.000 A 
ATOM     30  C   UNL     1      -9.654  40.338  10.595  0.00  0.00    +0.000 A 
ATOM     31  N   UNL     1     -11.827  41.093  13.458  0.00  0.00    +0.000 NA
ATOM     32  C   UNL     1      -9.566  40.428  13.346  0.00  0.00    +0.000 A 
ATOM     33  C   UNL     1     -12.974  41.404  12.814  0.00  0.00    +0.000 A 
ATOM     34  C   UNL     1     -13.122  41.393  11.442  0.00  0.00    +0.000 A 
ATOM     35  C   UNL     1      -8.415  40.068  12.634  0.00  0.00    +0.000 A 
ATOM     36  C   UNL     1      -8.458  40.020  11.240  0.00  0.00    +0.000 A 
BRANCH  36  37
ATOM     37  O   UNL     1      -7.304  39.653  10.588  0.00  0.00    +0.000 OA
ATOM     38  C   UNL     1      -6.565  40.702  10.025  0.00  0.00    +0.000 C 
ENDBRANCH  36  37
BRANCH  35  39
ATOM     39  O   UNL     1      -7.224  39.743  13.241  0.00  0.00    +0.000 OA
BRANCH  39  40
ATOM     40  C   UNL     1      -6.565  40.770  13.772  0.00  0.00    +0.000 C 
ATOM     41  C   UNL     1      -5.814  41.950  14.399  0.00  0.00    +0.000 C 
BRANCH  41  42
ATOM     42  C   UNL     1      -5.061  43.125  15.032  0.00  0.00    +0.000 C 
BRANCH  42  43
ATOM     43  N   UNL     1      -4.346  44.243  15.632  0.00  0.00    +0.000 N 
ATOM     44  C   UNL     1      -3.822  43.763  16.947  0.00  0.00    +0.000 C 
ATOM     45  C   UNL     1      -2.344  43.478  17.369  0.00  0.00    +0.000 C 
ATOM     46  O   UNL     1      -1.147  43.554  16.747  0.00  0.00    +0.000 OA
ATOM     47  C   UNL     1      -1.619  43.982  15.559  0.00  0.00    +0.000 C 
ATOM     48  C   UNL     1      -3.017  44.317  14.955  0.00  0.00    +0.000 C 
ENDBRANCH  42  43
ENDBRANCH  41  42
ENDBRANCH  39  40
ENDBRANCH  35  39
ENDBRANCH  26  27
ENDBRANCH   7  26
TORSDOF 11
ENDMDL
MODEL 5
REMARK VINA RESULT:      -7.5      6.631      9.695
REMARK  Name = Foretinib.pdbqt.pdb
REMARK  11 active torsions:
REMARK  status: ('A' for Active; 'I' for Inactive)
REMARK    1  A    between atoms: C_2  and  N_31
REMARK    2  A    between atoms: C_7  and  O_8
REMARK    3  A    between atoms: O_8  and  C_9
REMARK    4  A    between atoms: C_17  and  O_19
REMARK    5  A    between atoms: C_18  and  O_29
REMARK    6  A    between atoms: O_19  and  C_20
REMARK    7  A    between atoms: C_21  and  C_22
REMARK    8  A    between atoms: C_22  and  N_23
REMARK    9  A    between atoms: C_32  and  C_35
REMARK   10  A    between atoms: C_35  and  C_38
REMARK   11  A    between atoms: N_40  and  C_42
REMARK                            x       y       z     vdW  Elec       q    Type
REMARK                         _______ _______ _______ _____ _____    ______ ____
ROOT
ATOM      1  F   UNL     1      15.552  34.916  17.969  0.00  0.00    +0.000 F 
ATOM      2  C   UNL     1      12.423  36.485  17.014  0.00  0.00    +0.000 A 
ATOM      3  C   UNL     1      13.329  35.570  17.551  0.00  0.00    +0.000 A 
ATOM      4  C   UNL     1      12.899  37.647  16.402  0.00  0.00    +0.000 A 
ATOM      5  C   UNL     1      14.695  35.823  17.478  0.00  0.00    +0.000 A 
ATOM      6  C   UNL     1      14.268  37.899  16.329  0.00  0.00    +0.000 A 
ATOM      7  C   UNL     1      15.168  36.996  16.890  0.00  0.00    +0.000 A 
ENDROOT
BRANCH   2   8
ATOM      8  N   UNL     1      11.030  36.292  17.052  0.00  0.00    +0.000 N 
ATOM      9  C   UNL     1      10.302  35.516  16.164  0.00  0.00    +0.000 C 
ATOM     10  O   UNL     1      10.749  34.905  15.202  0.00  0.00    +0.000 OA
ATOM     11  H   UNL     1      10.518  36.798  17.769  0.00  0.00    +0.000 HD
BRANCH   9  12
ATOM     12  C   UNL     1       8.823  35.501  16.419  0.00  0.00    +0.000 C 
ATOM     13  C   UNL     1       7.997  36.453  15.684  0.00  0.00    +0.000 C 
ATOM     14  C   UNL     1       8.252  36.636  17.136  0.00  0.00    +0.000 C 
BRANCH  12  15
ATOM     15  C   UNL     1       8.244  34.141  16.670  0.00  0.00    +0.000 C 
ATOM     16  O   UNL     1       8.805  33.398  17.467  0.00  0.00    +0.000 OA
ATOM     17  N   UNL     1       7.066  33.877  15.991  0.00  0.00    +0.000 N 
ATOM     18  H   UNL     1       6.682  34.610  15.403  0.00  0.00    +0.000 HD
BRANCH  17  19
ATOM     19  C   UNL     1       6.328  32.682  16.072  0.00  0.00    +0.000 A 
ATOM     20  C   UNL     1       6.832  31.561  15.409  0.00  0.00    +0.000 A 
ATOM     21  C   UNL     1       6.147  30.349  15.451  0.00  0.00    +0.000 A 
ATOM     22  C   UNL     1       4.955  30.266  16.163  0.00  0.00    +0.000 A 
ATOM     23  F   UNL     1       4.295  29.102  16.207  0.00  0.00    +0.000 F 
ATOM     24  C   UNL     1       4.439  31.371  16.830  0.00  0.00    +0.000 A 
ATOM     25  C   UNL     1       5.130  32.579  16.782  0.00  0.00    +0.000 A 
ENDBRANCH  17  19
ENDBRANCH  12  15
ENDBRANCH   9  12
ENDBRANCH   2   8
BRANCH   7  26
ATOM     26  O   UNL     1      16.505  37.264  16.730  0.00  0.00    +0.000 OA
BRANCH  26  27
ATOM     27  C   UNL     1      16.975  37.388  15.437  0.00  0.00    +0.000 A 
ATOM     28  C   UNL     1      17.424  38.649  15.015  0.00  0.00    +0.000 A 
ATOM     29  C   UNL     1      17.953  38.755  13.717  0.00  0.00    +0.000 A 
ATOM     30  C   UNL     1      17.355  39.787  15.834  0.00  0.00    +0.000 A 
ATOM     31  N   UNL     1      18.049  37.701  12.892  0.00  0.00    +0.000 NA
ATOM     32  C   UNL     1      18.392  40.001  13.292  0.00  0.00    +0.000 A 
ATOM     33  C   UNL     1      17.617  36.501  13.341  0.00  0.00    +0.000 A 
ATOM     34  C   UNL     1      17.086  36.286  14.596  0.00  0.00    +0.000 A 
ATOM     35  C   UNL     1      18.327  41.139  14.105  0.00  0.00    +0.000 A 
ATOM     36  C   UNL     1      17.801  41.033  15.393  0.00  0.00    +0.000 A 
BRANCH  36  37
ATOM     37  O   UNL     1      17.752  42.181  16.149  0.00  0.00    +0.000 OA
ATOM     38  C   UNL     1      18.627  42.225  17.243  0.00  0.00    +0.000 C 
ENDBRANCH  36  37
BRANCH  35  39
ATOM     39  O   UNL     1      18.753  42.382  13.697  0.00  0.00    +0.000 OA
BRANCH  39  40
ATOM     40  C   UNL     1      18.117  42.875  12.638  0.00  0.00    +0.000 C 
ATOM     41  C   UNL     1      17.386  43.459  11.424  0.00  0.00    +0.000 C 
BRANCH  41  42
ATOM     42  C   UNL     1      16.660  44.048  10.209  0.00  0.00    +0.000 C 
BRANCH  42  43
ATOM     43  N   UNL     1      15.970  44.607   9.055  0.00  0.00    +0.000 N 
ATOM     44  C   UNL     1      15.157  43.501   8.463  0.00  0.00    +0.000 C 
ATOM     45  C   UNL     1      13.604  43.325   8.447  0.00  0.00    +0.000 C 
ATOM     46  O   UNL     1      12.562  44.041   8.924  0.00  0.00    +0.000 OA
ATOM     47  C   UNL     1      13.294  45.036   9.464  0.00  0.00    +0.000 C 
ATOM     48  C   UNL     1      14.809  45.385   9.583  0.00  0.00    +0.000 C 
ENDBRANCH  42  43
ENDBRANCH  41  42
ENDBRANCH  39  40
ENDBRANCH  35  39
ENDBRANCH  26  27
ENDBRANCH   7  26
TORSDOF 11
ENDMDL
MODEL 6
REMARK VINA RESULT:      -7.5     12.275     14.945
REMARK  Name = Foretinib.pdbqt.pdb
REMARK  11 active torsions:
REMARK  status: ('A' for Active; 'I' for Inactive)
REMARK    1  A    between atoms: C_2  and  N_31
REMARK    2  A    between atoms: C_7  and  O_8
REMARK    3  A    between atoms: O_8  and  C_9
REMARK    4  A    between atoms: C_17  and  O_19
REMARK    5  A    between atoms: C_18  and  O_29
REMARK    6  A    between atoms: O_19  and  C_20
REMARK    7  A    between atoms: C_21  and  C_22
REMARK    8  A    between atoms: C_22  and  N_23
REMARK    9  A    between atoms: C_32  and  C_35
REMARK   10  A    between atoms: C_35  and  C_38
REMARK   11  A    between atoms: N_40  and  C_42
REMARK                            x       y       z     vdW  Elec       q    Type
REMARK                         _______ _______ _______ _____ _____    ______ ____
ROOT
ATOM      1  F   UNL     1      -2.962  43.454  16.118  0.00  0.00    +0.000 F 
ATOM      2  C   UNL     1      -6.084  41.882  15.144  0.00  0.00    +0.000 A 
ATOM      3  C   UNL     1      -5.170  42.692  15.818  0.00  0.00    +0.000 A 
ATOM      4  C   UNL     1      -5.643  41.076  14.092  0.00  0.00    +0.000 A 
ATOM      5  C   UNL     1      -3.832  42.695  15.436  0.00  0.00    +0.000 A 
ATOM      6  C   UNL     1      -4.303  41.078  13.710  0.00  0.00    +0.000 A 
ATOM      7  C   UNL     1      -3.399  41.908  14.369  0.00  0.00    +0.000 A 
ENDROOT
BRANCH   2   8
ATOM      8  N   UNL     1      -7.450  41.830  15.478  0.00  0.00    +0.000 N 
ATOM      9  C   UNL     1      -7.966  41.360  16.674  0.00  0.00    +0.000 C 
ATOM     10  O   UNL     1      -7.324  40.897  17.608  0.00  0.00    +0.000 OA
ATOM     11  H   UNL     1      -8.107  42.126  14.762  0.00  0.00    +0.000 HD
BRANCH   9  12
ATOM     12  C   UNL     1      -9.464  41.393  16.762  0.00  0.00    +0.000 C 
ATOM     13  C   UNL     1     -10.092  42.641  17.184  0.00  0.00    +0.000 C 
ATOM     14  C   UNL     1     -10.059  41.465  18.092  0.00  0.00    +0.000 C 
BRANCH  12  15
ATOM     15  C   UNL     1     -10.172  40.589  15.712  0.00  0.00    +0.000 C 
ATOM     16  O   UNL     1      -9.583  39.649  15.191  0.00  0.00    +0.000 OA
ATOM     17  N   UNL     1     -11.479  40.974  15.469  0.00  0.00    +0.000 N 
ATOM     18  H   UNL     1     -11.859  41.740  16.018  0.00  0.00    +0.000 HD
BRANCH  17  19
ATOM     19  C   UNL     1     -12.350  40.369  14.545  0.00  0.00    +0.000 A 
ATOM     20  C   UNL     1     -13.222  39.387  15.021  0.00  0.00    +0.000 A 
ATOM     21  C   UNL     1     -14.108  38.751  14.155  0.00  0.00    +0.000 A 
ATOM     22  C   UNL     1     -14.117  39.105  12.810  0.00  0.00    +0.000 A 
ATOM     23  F   UNL     1     -14.970  38.497  11.975  0.00  0.00    +0.000 F 
ATOM     24  C   UNL     1     -13.258  40.082  12.319  0.00  0.00    +0.000 A 
ATOM     25  C   UNL     1     -12.375  40.712  13.192  0.00  0.00    +0.000 A 
ENDBRANCH  17  19
ENDBRANCH  12  15
ENDBRANCH   9  12
ENDBRANCH   2   8
BRANCH   7  26
ATOM     26  O   UNL     1      -2.081  41.821  13.994  0.00  0.00    +0.000 OA
BRANCH  26  27
ATOM     27  C   UNL     1      -1.205  41.247  14.895  0.00  0.00    +0.000 A 
ATOM     28  C   UNL     1      -0.222  42.065  15.475  0.00  0.00    +0.000 A 
ATOM     29  C   UNL     1       0.629  41.488  16.433  0.00  0.00    +0.000 A 
ATOM     30  C   UNL     1      -0.064  43.415  15.126  0.00  0.00    +0.000 A 
ATOM     31  N   UNL     1       0.521  40.204  16.808  0.00  0.00    +0.000 NA
ATOM     32  C   UNL     1       1.607  42.289  17.003  0.00  0.00    +0.000 A 
ATOM     33  C   UNL     1      -0.447  39.453  16.236  0.00  0.00    +0.000 A 
ATOM     34  C   UNL     1      -1.336  39.921  15.290  0.00  0.00    +0.000 A 
ATOM     35  C   UNL     1       1.769  43.638  16.662  0.00  0.00    +0.000 A 
ATOM     36  C   UNL     1       0.924  44.210  15.710  0.00  0.00    +0.000 A 
BRANCH  36  37
ATOM     37  O   UNL     1       1.128  45.535  15.404  0.00  0.00    +0.000 OA
ATOM     38  C   UNL     1      -0.018  46.260  15.053  0.00  0.00    +0.000 C 
ENDBRANCH  36  37
BRANCH  35  39
ATOM     39  O   UNL     1       2.736  44.444  17.214  0.00  0.00    +0.000 OA
BRANCH  39  40
ATOM     40  C   UNL     1       2.307  45.258  18.176  0.00  0.00    +0.000 C 
ATOM     41  C   UNL     1       1.811  46.208  19.272  0.00  0.00    +0.000 C 
BRANCH  41  42
ATOM     42  C   UNL     1       1.310  47.159  20.364  0.00  0.00    +0.000 C 
BRANCH  42  43
ATOM     43  N   UNL     1       0.833  48.065  21.400  0.00  0.00    +0.000 N 
ATOM     44  C   UNL     1       1.372  49.419  21.070  0.00  0.00    +0.000 C 
ATOM     45  C   UNL     1       0.603  50.685  20.569  0.00  0.00    +0.000 C 
ATOM     46  O   UNL     1      -0.688  50.960  20.282  0.00  0.00    +0.000 OA
ATOM     47  C   UNL     1      -1.174  49.737  20.574  0.00  0.00    +0.000 C 
ATOM     48  C   UNL     1      -0.590  48.381  21.075  0.00  0.00    +0.000 C 
ENDBRANCH  42  43
ENDBRANCH  41  42
ENDBRANCH  39  40
ENDBRANCH  35  39
ENDBRANCH  26  27
ENDBRANCH   7  26
TORSDOF 11
ENDMDL
MODEL 7
REMARK VINA RESULT:      -7.4     33.551     37.294
REMARK  Name = Foretinib.pdbqt.pdb
REMARK  11 active torsions:
REMARK  status: ('A' for Active; 'I' for Inactive)
REMARK    1  A    between atoms: C_2  and  N_31
REMARK    2  A    between atoms: C_7  and  O_8
REMARK    3  A    between atoms: O_8  and  C_9
REMARK    4  A    between atoms: C_17  and  O_19
REMARK    5  A    between atoms: C_18  and  O_29
REMARK    6  A    between atoms: O_19  and  C_20
REMARK    7  A    between atoms: C_21  and  C_22
REMARK    8  A    between atoms: C_22  and  N_23
REMARK    9  A    between atoms: C_32  and  C_35
REMARK   10  A    between atoms: C_35  and  C_38
REMARK   11  A    between atoms: N_40  and  C_42
REMARK                            x       y       z     vdW  Elec       q    Type
REMARK                         _______ _______ _______ _____ _____    ______ ____
ROOT
ATOM      1  F   UNL     1      10.927  53.627 -16.221  0.00  0.00    +0.000 F 
ATOM      2  C   UNL     1       9.725  53.621 -12.798  0.00  0.00    +0.000 A 
ATOM      3  C   UNL     1      10.276  54.064 -14.001  0.00  0.00    +0.000 A 
ATOM      4  C   UNL     1       9.273  52.304 -12.690  0.00  0.00    +0.000 A 
ATOM      5  C   UNL     1      10.365  53.194 -15.083  0.00  0.00    +0.000 A 
ATOM      6  C   UNL     1       9.364  51.433 -13.775  0.00  0.00    +0.000 A 
ATOM      7  C   UNL     1       9.889  51.887 -14.983  0.00  0.00    +0.000 A 
ENDROOT
BRANCH   2   8
ATOM      8  N   UNL     1       9.606  54.446 -11.664  0.00  0.00    +0.000 N 
ATOM      9  C   UNL     1       8.473  55.154 -11.301  0.00  0.00    +0.000 C 
ATOM     10  O   UNL     1       7.415  55.193 -11.917  0.00  0.00    +0.000 OA
ATOM     11  H   UNL     1      10.438  54.558 -11.091  0.00  0.00    +0.000 HD
BRANCH   9  12
ATOM     12  C   UNL     1       8.625  55.977 -10.055  0.00  0.00    +0.000 C 
ATOM     13  C   UNL     1       9.838  56.775  -9.912  0.00  0.00    +0.000 C 
ATOM     14  C   UNL     1       9.633  55.555  -9.089  0.00  0.00    +0.000 C 
BRANCH  12  15
ATOM     15  C   UNL     1       7.349  56.569  -9.534  0.00  0.00    +0.000 C 
ATOM     16  O   UNL     1       7.080  57.732  -9.814  0.00  0.00    +0.000 OA
ATOM     17  N   UNL     1       6.557  55.695  -8.810  0.00  0.00    +0.000 N 
ATOM     18  H   UNL     1       6.880  54.738  -8.703  0.00  0.00    +0.000 HD
BRANCH  17  19
ATOM     19  C   UNL     1       5.313  56.008  -8.233  0.00  0.00    +0.000 A 
ATOM     20  C   UNL     1       5.314  56.761  -7.056  0.00  0.00    +0.000 A 
ATOM     21  C   UNL     1       4.114  57.103  -6.437  0.00  0.00    +0.000 A 
ATOM     22  C   UNL     1       2.914  56.688  -7.003  0.00  0.00    +0.000 A 
ATOM     23  F   UNL     1       1.758  57.018  -6.410  0.00  0.00    +0.000 F 
ATOM     24  C   UNL     1       2.893  55.940  -8.174  0.00  0.00    +0.000 A 
ATOM     25  C   UNL     1       4.097  55.602  -8.787  0.00  0.00    +0.000 A 
ENDBRANCH  17  19
ENDBRANCH  12  15
ENDBRANCH   9  12
ENDBRANCH   2   8
BRANCH   7  26
ATOM     26  O   UNL     1      10.013  50.968 -15.996  0.00  0.00    +0.000 OA
BRANCH  26  27
ATOM     27  C   UNL     1       8.943  50.830 -16.858  0.00  0.00    +0.000 A 
ATOM     28  C   UNL     1       8.493  49.533 -17.150  0.00  0.00    +0.000 A 
ATOM     29  C   UNL     1       7.368  49.402 -17.982  0.00  0.00    +0.000 A 
ATOM     30  C   UNL     1       9.126  48.385 -16.650  0.00  0.00    +0.000 A 
ATOM     31  N   UNL     1       6.719  50.464 -18.485  0.00  0.00    +0.000 NA
ATOM     32  C   UNL     1       6.923  48.123 -18.281  0.00  0.00    +0.000 A 
ATOM     33  C   UNL     1       7.176  51.696 -18.169  0.00  0.00    +0.000 A 
ATOM     34  C   UNL     1       8.267  51.936 -17.359  0.00  0.00    +0.000 A 
ATOM     35  C   UNL     1       7.549  46.973 -17.783  0.00  0.00    +0.000 A 
ATOM     36  C   UNL     1       8.667  47.103 -16.958  0.00  0.00    +0.000 A 
BRANCH  36  37
ATOM     37  O   UNL     1       9.251  45.945 -16.502  0.00  0.00    +0.000 OA
ATOM     38  C   UNL     1      10.477  45.610 -17.092  0.00  0.00    +0.000 C 
ENDBRANCH  36  37
BRANCH  35  39
ATOM     39  O   UNL     1       7.124  45.697 -18.073  0.00  0.00    +0.000 OA
BRANCH  39  40
ATOM     40  C   UNL     1       5.813  45.502 -17.961  0.00  0.00    +0.000 C 
ATOM     41  C   UNL     1       4.303  45.284 -17.814  0.00  0.00    +0.000 C 
BRANCH  41  42
ATOM     42  C   UNL     1       2.792  45.071 -17.665  0.00  0.00    +0.000 C 
BRANCH  42  43
ATOM     43  N   UNL     1       1.357  44.870 -17.523  0.00  0.00    +0.000 N 
ATOM     44  C   UNL     1       1.169  43.505 -16.944  0.00  0.00    +0.000 C 
ATOM     45  C   UNL     1       0.675  43.104 -15.516  0.00  0.00    +0.000 C 
ATOM     46  O   UNL     1       0.293  43.789 -14.416  0.00  0.00    +0.000 OA
ATOM     47  C   UNL     1       0.468  45.022 -14.935  0.00  0.00    +0.000 C 
ATOM     48  C   UNL     1       0.938  45.615 -16.298  0.00  0.00    +0.000 C 
ENDBRANCH  42  43
ENDBRANCH  41  42
ENDBRANCH  39  40
ENDBRANCH  35  39
ENDBRANCH  26  27
ENDBRANCH   7  26
TORSDOF 11
ENDMDL
MODEL 8
REMARK VINA RESULT:      -7.1     33.837     36.314
REMARK  Name = Foretinib.pdbqt.pdb
REMARK  11 active torsions:
REMARK  status: ('A' for Active; 'I' for Inactive)
REMARK    1  A    between atoms: C_2  and  N_31
REMARK    2  A    between atoms: C_7  and  O_8
REMARK    3  A    between atoms: O_8  and  C_9
REMARK    4  A    between atoms: C_17  and  O_19
REMARK    5  A    between atoms: C_18  and  O_29
REMARK    6  A    between atoms: O_19  and  C_20
REMARK    7  A    between atoms: C_21  and  C_22
REMARK    8  A    between atoms: C_22  and  N_23
REMARK    9  A    between atoms: C_32  and  C_35
REMARK   10  A    between atoms: C_35  and  C_38
REMARK   11  A    between atoms: N_40  and  C_42
REMARK                            x       y       z     vdW  Elec       q    Type
REMARK                         _______ _______ _______ _____ _____    ______ ____
ROOT
ATOM      1  F   UNL     1       2.045  60.038  -8.972  0.00  0.00    +0.000 F 
ATOM      2  C   UNL     1       4.518  57.559  -8.019  0.00  0.00    +0.000 A 
ATOM      3  C   UNL     1       3.943  58.700  -8.580  0.00  0.00    +0.000 A 
ATOM      4  C   UNL     1       3.722  56.678  -7.283  0.00  0.00    +0.000 A 
ATOM      5  C   UNL     1       2.587  58.954  -8.398  0.00  0.00    +0.000 A 
ATOM      6  C   UNL     1       2.364  56.932  -7.103  0.00  0.00    +0.000 A 
ATOM      7  C   UNL     1       1.800  58.086  -7.641  0.00  0.00    +0.000 A 
ENDROOT
BRANCH   2   8
ATOM      8  N   UNL     1       5.881  57.241  -8.165  0.00  0.00    +0.000 N 
ATOM      9  C   UNL     1       6.398  56.304  -9.045  0.00  0.00    +0.000 C 
ATOM     10  O   UNL     1       5.754  55.594  -9.807  0.00  0.00    +0.000 OA
ATOM     11  H   UNL     1       6.529  57.713  -7.541  0.00  0.00    +0.000 HD
BRANCH   9  12
ATOM     12  C   UNL     1       7.888  56.144  -8.979  0.00  0.00    +0.000 C 
ATOM     13  C   UNL     1       8.472  55.735  -7.706  0.00  0.00    +0.000 C 
ATOM     14  C   UNL     1       8.636  57.126  -8.202  0.00  0.00    +0.000 C 
BRANCH  12  15
ATOM     15  C   UNL     1       8.517  55.602 -10.228  0.00  0.00    +0.000 C 
ATOM     16  O   UNL     1       8.961  56.390 -11.056  0.00  0.00    +0.000 OA
ATOM     17  N   UNL     1       8.578  54.221 -10.296  0.00  0.00    +0.000 N 
ATOM     18  H   UNL     1       8.219  53.690  -9.507  0.00  0.00    +0.000 HD
BRANCH  17  19
ATOM     19  C   UNL     1       9.131  53.479 -11.355  0.00  0.00    +0.000 A 
ATOM     20  C   UNL     1       8.287  52.613 -12.052  0.00  0.00    +0.000 A 
ATOM     21  C   UNL     1       8.775  51.850 -13.110  0.00  0.00    +0.000 A 
ATOM     22  C   UNL     1      10.114  51.963 -13.468  0.00  0.00    +0.000 A 
ATOM     23  F   UNL     1      10.586  51.233 -14.487  0.00  0.00    +0.000 F 
ATOM     24  C   UNL     1      10.969  52.822 -12.787  0.00  0.00    +0.000 A 
ATOM     25  C   UNL     1      10.473  53.579 -11.729  0.00  0.00    +0.000 A 
ENDBRANCH  17  19
ENDBRANCH  12  15
ENDBRANCH   9  12
ENDBRANCH   2   8
BRANCH   7  26
ATOM     26  O   UNL     1       0.445  58.252  -7.486  0.00  0.00    +0.000 OA
BRANCH  26  27
ATOM     27  C   UNL     1       0.025  59.276  -6.660  0.00  0.00    +0.000 A 
ATOM     28  C   UNL     1      -1.285  59.756  -6.816  0.00  0.00    +0.000 A 
ATOM     29  C   UNL     1      -1.725  60.759  -5.935  0.00  0.00    +0.000 A 
ATOM     30  C   UNL     1      -2.149  59.278  -7.814  0.00  0.00    +0.000 A 
ATOM     31  N   UNL     1      -0.944  61.250  -4.959  0.00  0.00    +0.000 NA
ATOM     32  C   UNL     1      -3.015  61.243  -6.089  0.00  0.00    +0.000 A 
ATOM     33  C   UNL     1       0.306  60.752  -4.834  0.00  0.00    +0.000 A 
ATOM     34  C   UNL     1       0.835  59.767  -5.642  0.00  0.00    +0.000 A 
ATOM     35  C   UNL     1      -3.883  60.768  -7.081  0.00  0.00    +0.000 A 
ATOM     36  C   UNL     1      -3.446  59.774  -7.957  0.00  0.00    +0.000 A 
BRANCH  36  37
ATOM     37  O   UNL     1      -4.332  59.348  -8.917  0.00  0.00    +0.000 OA
ATOM     38  C   UNL     1      -4.059  59.770 -10.225  0.00  0.00    +0.000 C 
ENDBRANCH  36  37
BRANCH  35  39
ATOM     39  O   UNL     1      -5.164  61.240  -7.250  0.00  0.00    +0.000 OA
BRANCH  39  40
ATOM     40  C   UNL     1      -6.011  60.932  -6.272  0.00  0.00    +0.000 C 
ATOM     41  C   UNL     1      -6.974  60.572  -5.135  0.00  0.00    +0.000 C 
BRANCH  41  42
ATOM     42  C   UNL     1      -7.932  60.214  -3.994  0.00  0.00    +0.000 C 
BRANCH  42  43
ATOM     43  N   UNL     1      -8.841  59.873  -2.909  0.00  0.00    +0.000 N 
ATOM     44  C   UNL     1     -10.205  60.315  -3.334  0.00  0.00    +0.000 C 
ATOM     45  C   UNL     1     -11.440  59.442  -3.729  0.00  0.00    +0.000 C 
ATOM     46  O   UNL     1     -11.675  58.115  -3.820  0.00  0.00    +0.000 OA
ATOM     47  C   UNL     1     -10.444  57.715  -3.441  0.00  0.00    +0.000 C 
ATOM     48  C   UNL     1      -9.113  58.408  -3.018  0.00  0.00    +0.000 C 
ENDBRANCH  42  43
ENDBRANCH  41  42
ENDBRANCH  39  40
ENDBRANCH  35  39
ENDBRANCH  26  27
ENDBRANCH   7  26
TORSDOF 11
ENDMDL
MODEL 9
REMARK VINA RESULT:      -7.0     19.247     23.751
REMARK  Name = Foretinib.pdbqt.pdb
REMARK  11 active torsions:
REMARK  status: ('A' for Active; 'I' for Inactive)
REMARK    1  A    between atoms: C_2  and  N_31
REMARK    2  A    between atoms: C_7  and  O_8
REMARK    3  A    between atoms: O_8  and  C_9
REMARK    4  A    between atoms: C_17  and  O_19
REMARK    5  A    between atoms: C_18  and  O_29
REMARK    6  A    between atoms: O_19  and  C_20
REMARK    7  A    between atoms: C_21  and  C_22
REMARK    8  A    between atoms: C_22  and  N_23
REMARK    9  A    between atoms: C_32  and  C_35
REMARK   10  A    between atoms: C_35  and  C_38
REMARK   11  A    between atoms: N_40  and  C_42
REMARK                            x       y       z     vdW  Elec       q    Type
REMARK                         _______ _______ _______ _____ _____    ______ ____
ROOT
ATOM      1  F   UNL     1     -11.610  41.615   8.899  0.00  0.00    +0.000 F 
ATOM      2  C   UNL     1     -14.364  40.393   6.877  0.00  0.00    +0.000 A 
ATOM      3  C   UNL     1     -13.440  41.261   7.461  0.00  0.00    +0.000 A 
ATOM      4  C   UNL     1     -14.305  39.028   7.168  0.00  0.00    +0.000 A 
ATOM      5  C   UNL     1     -12.468  40.762   8.321  0.00  0.00    +0.000 A 
ATOM      6  C   UNL     1     -13.332  38.529   8.031  0.00  0.00    +0.000 A 
ATOM      7  C   UNL     1     -12.395  39.395   8.590  0.00  0.00    +0.000 A 
ENDROOT
BRANCH   2   8
ATOM      8  N   UNL     1     -15.373  40.831   6.000  0.00  0.00    +0.000 N 
ATOM      9  C   UNL     1     -16.509  41.534   6.368  0.00  0.00    +0.000 C 
ATOM     10  O   UNL     1     -16.821  41.859   7.507  0.00  0.00    +0.000 OA
ATOM     11  H   UNL     1     -15.273  40.571   5.023  0.00  0.00    +0.000 HD
BRANCH   9  12
ATOM     12  C   UNL     1     -17.437  41.857   5.234  0.00  0.00    +0.000 C 
ATOM     13  C   UNL     1     -18.705  41.138   5.168  0.00  0.00    +0.000 C 
ATOM     14  C   UNL     1     -17.615  40.841   4.202  0.00  0.00    +0.000 C 
BRANCH  12  15
ATOM     15  C   UNL     1     -17.442  43.297   4.818  0.00  0.00    +0.000 C 
ATOM     16  O   UNL     1     -18.339  44.026   5.226  0.00  0.00    +0.000 OA
ATOM     17  N   UNL     1     -16.369  43.678   4.030  0.00  0.00    +0.000 N 
ATOM     18  H   UNL     1     -15.666  42.978   3.813  0.00  0.00    +0.000 HD
BRANCH  17  19
ATOM     19  C   UNL     1     -16.145  44.973   3.528  0.00  0.00    +0.000 A 
ATOM     20  C   UNL     1     -16.527  45.234   2.210  0.00  0.00    +0.000 A 
ATOM     21  C   UNL     1     -16.331  46.496   1.655  0.00  0.00    +0.000 A 
ATOM     22  C   UNL     1     -15.751  47.496   2.428  0.00  0.00    +0.000 A 
ATOM     23  F   UNL     1     -15.563  48.712   1.898  0.00  0.00    +0.000 F 
ATOM     24  C   UNL     1     -15.366  47.255   3.742  0.00  0.00    +0.000 A 
ATOM     25  C   UNL     1     -15.565  45.990   4.288  0.00  0.00    +0.000 A 
ENDBRANCH  17  19
ENDBRANCH  12  15
ENDBRANCH   9  12
ENDBRANCH   2   8
BRANCH   7  26
ATOM     26  O   UNL     1     -11.500  38.858   9.483  0.00  0.00    +0.000 OA
BRANCH  26  27
ATOM     27  C   UNL     1     -11.726  39.096  10.824  0.00  0.00    +0.000 A 
ATOM     28  C   UNL     1     -10.656  39.564  11.603  0.00  0.00    +0.000 A 
ATOM     29  C   UNL     1     -10.908  39.858  12.954  0.00  0.00    +0.000 A 
ATOM     30  C   UNL     1      -9.364  39.736  11.082  0.00  0.00    +0.000 A 
ATOM     31  N   UNL     1     -12.124  39.717  13.505  0.00  0.00    +0.000 NA
ATOM     32  C   UNL     1      -9.852  40.313  13.730  0.00  0.00    +0.000 A 
ATOM     33  C   UNL     1     -13.131  39.276  12.719  0.00  0.00    +0.000 A 
ATOM     34  C   UNL     1     -12.993  38.963  11.382  0.00  0.00    +0.000 A 
ATOM     35  C   UNL     1      -8.561  40.490  13.216  0.00  0.00    +0.000 A 
ATOM     36  C   UNL     1      -8.312  40.196  11.874  0.00  0.00    +0.000 A 
BRANCH  36  37
ATOM     37  O   UNL     1      -7.027  40.379  11.420  0.00  0.00    +0.000 OA
ATOM     38  C   UNL     1      -6.905  41.058  10.200  0.00  0.00    +0.000 C 
ENDBRANCH  36  37
BRANCH  35  39
ATOM     39  O   UNL     1      -7.503  40.936  13.972  0.00  0.00    +0.000 OA
BRANCH  39  40
ATOM     40  C   UNL     1      -7.838  41.510  15.125  0.00  0.00    +0.000 C 
ATOM     41  C   UNL     1      -8.233  42.183  16.444  0.00  0.00    +0.000 C 
BRANCH  41  42
ATOM     42  C   UNL     1      -8.633  42.857  17.761  0.00  0.00    +0.000 C 
BRANCH  42  43
ATOM     43  N   UNL     1      -9.012  43.498  19.012  0.00  0.00    +0.000 N 
ATOM     44  C   UNL     1     -10.203  44.352  18.715  0.00  0.00    +0.000 C 
ATOM     45  C   UNL     1     -11.688  44.153  19.160  0.00  0.00    +0.000 C 
ATOM     46  O   UNL     1     -12.345  43.225  19.891  0.00  0.00    +0.000 OA
ATOM     47  C   UNL     1     -11.273  42.450  20.154  0.00  0.00    +0.000 C 
ATOM     48  C   UNL     1      -9.751  42.476  19.813  0.00  0.00    +0.000 C 
ENDBRANCH  42  43
ENDBRANCH  41  42
ENDBRANCH  39  40
ENDBRANCH  35  39
ENDBRANCH  26  27
ENDBRANCH   7  26
TORSDOF 11
ENDMDL
