MODEL 1
REMARK VINA RESULT:      -5.1      0.000      0.000
REMARK  Name = 
REMARK  7 active torsions:
REMARK  status: ('A' for Active; 'I' for Inactive)
REMARK    1  A    between atoms: S_1  and  O_3
REMARK    2  A    between atoms: S_1  and  O_6
REMARK    3  A    between atoms: O_3  and  C_9
REMARK    4  A    between atoms: O_4  and  C_10
REMARK    5  A    between atoms: O_5  and  C_11
REMARK    6  A    between atoms: C_12  and  C_14
REMARK    7  A    between atoms: C_13  and  C_15
REMARK                            x       y       z     vdW  Elec       q    Type
REMARK                         _______ _______ _______ _____ _____    ______ ____
ROOT
ATOM      1  O   UNL     1      17.082  56.221   1.816  0.00  0.00    +0.000 OA
ATOM      2  C   UNL     1      14.989  55.030   1.357  0.00  0.00    +0.000 C 
ATOM      3  C   UNL     1      15.691  54.264   0.226  0.00  0.00    +0.000 C 
ATOM      4  C   UNL     1      16.874  55.067  -0.333  0.00  0.00    +0.000 C 
ATOM      5  C   UNL     1      16.032  55.447   2.410  0.00  0.00    +0.000 C 
ATOM      6  C   UNL     1      17.805  55.502   0.807  0.00  0.00    +0.000 C 
ATOM      7  C   UNL     1      15.416  56.296   3.517  0.00  0.00    +0.000 C 
ATOM      8  C   UNL     1      18.917  56.414   0.302  0.00  0.00    +0.000 C 
ENDROOT
BRANCH   3   9
ATOM      9  O   UNL     1      14.817  53.951  -0.869  0.00  0.00    +0.000 OA
ATOM     10  H   UNL     1      14.110  53.351  -0.553  0.00  0.00    +0.000 HD
ENDBRANCH   3   9
BRANCH   4  11
ATOM     11  O   UNL     1      17.571  54.255  -1.283  0.00  0.00    +0.000 OA
ATOM     12  H   UNL     1      16.994  53.475  -1.419  0.00  0.00    +0.000 HD
ENDBRANCH   4  11
BRANCH   2  13
ATOM     13  O   UNL     1      14.354  56.193   0.822  0.00  0.00    +0.000 OA
BRANCH  13  14
ATOM     14  S   UNL     1      12.740  56.304   0.912  0.00  0.00    +0.000 S 
ATOM     15  O   UNL     1      12.355  56.191   2.299  0.00  0.00    +0.000 OA
ATOM     16  O   UNL     1      12.298  57.392   0.067  0.00  0.00    +0.000 OA
BRANCH  14  17
ATOM     17  O   UNL     1      12.278  54.926   0.223  0.00  0.00    +0.000 OA
ATOM     18  H   UNL     1      11.708  54.459   0.870  0.00  0.00    +0.000 HD
ENDBRANCH  14  17
ENDBRANCH  13  14
ENDBRANCH   2  13
TORSDOF 5
ENDMDL
MODEL 2
REMARK VINA RESULT:      -5.0     25.480     27.089
REMARK  Name = 
REMARK  7 active torsions:
REMARK  status: ('A' for Active; 'I' for Inactive)
REMARK    1  A    between atoms: S_1  and  O_3
REMARK    2  A    between atoms: S_1  and  O_6
REMARK    3  A    between atoms: O_3  and  C_9
REMARK    4  A    between atoms: O_4  and  C_10
REMARK    5  A    between atoms: O_5  and  C_11
REMARK    6  A    between atoms: C_12  and  C_14
REMARK    7  A    between atoms: C_13  and  C_15
REMARK                            x       y       z     vdW  Elec       q    Type
REMARK                         _______ _______ _______ _____ _____    ______ ____
ROOT
ATOM      1  O   UNL     1      -2.563  39.547  17.016  0.00  0.00    +0.000 OA
ATOM      2  C   UNL     1      -1.708  41.638  16.064  0.00  0.00    +0.000 C 
ATOM      3  C   UNL     1      -1.559  40.941  14.705  0.00  0.00    +0.000 C 
ATOM      4  C   UNL     1      -1.376  39.427  14.878  0.00  0.00    +0.000 C 
ATOM      5  C   UNL     1      -2.825  40.948  16.868  0.00  0.00    +0.000 C 
ATOM      6  C   UNL     1      -2.494  38.855  15.761  0.00  0.00    +0.000 C 
ATOM      7  C   UNL     1      -2.963  41.532  18.270  0.00  0.00    +0.000 C 
ATOM      8  C   UNL     1      -2.268  37.378  16.063  0.00  0.00    +0.000 C 
ENDROOT
BRANCH   3   9
ATOM      9  O   UNL     1      -0.448  41.432  13.940  0.00  0.00    +0.000 OA
ATOM     10  H   UNL     1      -0.771  42.089  13.290  0.00  0.00    +0.000 HD
ENDBRANCH   3   9
BRANCH   4  11
ATOM     11  O   UNL     1      -1.380  38.813  13.585  0.00  0.00    +0.000 OA
ATOM     12  H   UNL     1      -1.058  39.509  12.976  0.00  0.00    +0.000 HD
ENDBRANCH   4  11
BRANCH   2  13
ATOM     13  O   UNL     1      -0.476  41.551  16.783  0.00  0.00    +0.000 OA
BRANCH  13  14
ATOM     14  S   UNL     1       0.418  42.892  16.953  0.00  0.00    +0.000 S 
ATOM     15  O   UNL     1       1.323  42.978  15.831  0.00  0.00    +0.000 OA
ATOM     16  O   UNL     1      -0.446  43.985  17.341  0.00  0.00    +0.000 OA
BRANCH  14  17
ATOM     17  O   UNL     1       1.337  42.515  18.218  0.00  0.00    +0.000 OA
ATOM     18  H   UNL     1       2.066  43.170  18.249  0.00  0.00    +0.000 HD
ENDBRANCH  14  17
ENDBRANCH  13  14
ENDBRANCH   2  13
TORSDOF 5
ENDMDL
MODEL 3
REMARK VINA RESULT:      -5.0     13.116     13.588
REMARK  Name = 
REMARK  7 active torsions:
REMARK  status: ('A' for Active; 'I' for Inactive)
REMARK    1  A    between atoms: S_1  and  O_3
REMARK    2  A    between atoms: S_1  and  O_6
REMARK    3  A    between atoms: O_3  and  C_9
REMARK    4  A    between atoms: O_4  and  C_10
REMARK    5  A    between atoms: O_5  and  C_11
REMARK    6  A    between atoms: C_12  and  C_14
REMARK    7  A    between atoms: C_13  and  C_15
REMARK                            x       y       z     vdW  Elec       q    Type
REMARK                         _______ _______ _______ _____ _____    ______ ____
ROOT
ATOM      1  O   UNL     1      17.836  45.837   9.628  0.00  0.00    +0.000 OA
ATOM      2  C   UNL     1      16.296  43.970   9.233  0.00  0.00    +0.000 C 
ATOM      3  C   UNL     1      16.878  43.809   7.822  0.00  0.00    +0.000 C 
ATOM      4  C   UNL     1      17.466  45.132   7.313  0.00  0.00    +0.000 C 
ATOM      5  C   UNL     1      17.364  44.590  10.154  0.00  0.00    +0.000 C 
ATOM      6  C   UNL     1      18.454  45.703   8.340  0.00  0.00    +0.000 C 
ATOM      7  C   UNL     1      16.822  44.866  11.552  0.00  0.00    +0.000 C 
ATOM      8  C   UNL     1      18.956  47.082   7.927  0.00  0.00    +0.000 C 
ENDROOT
BRANCH   3   9
ATOM      9  O   UNL     1      15.908  43.363   6.862  0.00  0.00    +0.000 OA
ATOM     10  H   UNL     1      16.338  42.745   6.235  0.00  0.00    +0.000 HD
ENDBRANCH   3   9
BRANCH   4  11
ATOM     11  O   UNL     1      18.113  44.894   6.058  0.00  0.00    +0.000 OA
ATOM     12  H   UNL     1      17.915  45.688   5.519  0.00  0.00    +0.000 HD
ENDBRANCH   4  11
BRANCH   2  13
ATOM     13  O   UNL     1      15.152  44.825   9.183  0.00  0.00    +0.000 OA
BRANCH  13  14
ATOM     14  S   UNL     1      13.694  44.186   9.489  0.00  0.00    +0.000 S 
ATOM     15  O   UNL     1      13.557  42.978   8.710  0.00  0.00    +0.000 OA
ATOM     16  O   UNL     1      13.456  44.223  10.916  0.00  0.00    +0.000 OA
BRANCH  14  17
ATOM     17  O   UNL     1      12.715  45.258   8.797  0.00  0.00    +0.000 OA
ATOM     18  H   UNL     1      12.125  45.603   9.500  0.00  0.00    +0.000 HD
ENDBRANCH  14  17
ENDBRANCH  13  14
ENDBRANCH   2  13
TORSDOF 5
ENDMDL
MODEL 4
REMARK VINA RESULT:      -4.9     12.619     13.688
REMARK  Name = 
REMARK  7 active torsions:
REMARK  status: ('A' for Active; 'I' for Inactive)
REMARK    1  A    between atoms: S_1  and  O_3
REMARK    2  A    between atoms: S_1  and  O_6
REMARK    3  A    between atoms: O_3  and  C_9
REMARK    4  A    between atoms: O_4  and  C_10
REMARK    5  A    between atoms: O_5  and  C_11
REMARK    6  A    between atoms: C_12  and  C_14
REMARK    7  A    between atoms: C_13  and  C_15
REMARK                            x       y       z     vdW  Elec       q    Type
REMARK                         _______ _______ _______ _____ _____    ______ ____
ROOT
ATOM      1  O   UNL     1      11.510  48.332  12.386  0.00  0.00    +0.000 OA
ATOM      2  C   UNL     1      10.727  50.584  12.960  0.00  0.00    +0.000 C 
ATOM      3  C   UNL     1       9.542  50.399  12.002  0.00  0.00    +0.000 C 
ATOM      4  C   UNL     1       9.877  49.387  10.897  0.00  0.00    +0.000 C 
ATOM      5  C   UNL     1      11.183  49.205  13.474  0.00  0.00    +0.000 C 
ATOM      6  C   UNL     1      10.398  48.082  11.515  0.00  0.00    +0.000 C 
ATOM      7  C   UNL     1      12.420  49.307  14.359  0.00  0.00    +0.000 C 
ATOM      8  C   UNL     1      10.865  47.104  10.443  0.00  0.00    +0.000 C 
ENDROOT
BRANCH   3   9
ATOM      9  O   UNL     1       9.137  51.621  11.368  0.00  0.00    +0.000 OA
ATOM     10  H   UNL     1       8.928  51.441  10.428  0.00  0.00    +0.000 HD
ENDBRANCH   3   9
BRANCH   4  11
ATOM     11  O   UNL     1       8.700  49.151  10.118  0.00  0.00    +0.000 OA
ATOM     12  H   UNL     1       8.890  48.331   9.618  0.00  0.00    +0.000 HD
ENDBRANCH   4  11
BRANCH   2  13
ATOM     13  O   UNL     1      11.805  51.218  12.269  0.00  0.00    +0.000 OA
BRANCH  13  14
ATOM     14  S   UNL     1      12.192  52.740  12.668  0.00  0.00    +0.000 S 
ATOM     15  O   UNL     1      11.118  53.606  12.240  0.00  0.00    +0.000 OA
ATOM     16  O   UNL     1      12.712  52.753  14.018  0.00  0.00    +0.000 OA
BRANCH  14  17
ATOM     17  O   UNL     1      13.413  53.042  11.666  0.00  0.00    +0.000 OA
ATOM     18  H   UNL     1      14.205  52.599  12.037  0.00  0.00    +0.000 HD
ENDBRANCH  14  17
ENDBRANCH  13  14
ENDBRANCH   2  13
TORSDOF 5
ENDMDL
MODEL 5
REMARK VINA RESULT:      -4.8     12.336     13.405
REMARK  Name = 
REMARK  7 active torsions:
REMARK  status: ('A' for Active; 'I' for Inactive)
REMARK    1  A    between atoms: S_1  and  O_3
REMARK    2  A    between atoms: S_1  and  O_6
REMARK    3  A    between atoms: O_3  and  C_9
REMARK    4  A    between atoms: O_4  and  C_10
REMARK    5  A    between atoms: O_5  and  C_11
REMARK    6  A    between atoms: C_12  and  C_14
REMARK    7  A    between atoms: C_13  and  C_15
REMARK                            x       y       z     vdW  Elec       q    Type
REMARK                         _______ _______ _______ _____ _____    ______ ____
ROOT
ATOM      1  O   UNL     1      12.317  45.497  10.894  0.00  0.00    +0.000 OA
ATOM      2  C   UNL     1      12.142  47.920  10.561  0.00  0.00    +0.000 C 
ATOM      3  C   UNL     1      13.207  47.830   9.459  0.00  0.00    +0.000 C 
ATOM      4  C   UNL     1      14.120  46.614   9.671  0.00  0.00    +0.000 C 
ATOM      5  C   UNL     1      11.401  46.574  10.661  0.00  0.00    +0.000 C 
ATOM      6  C   UNL     1      13.278  45.342   9.840  0.00  0.00    +0.000 C 
ATOM      7  C   UNL     1      10.391  46.562  11.803  0.00  0.00    +0.000 C 
ATOM      8  C   UNL     1      14.147  44.138  10.186  0.00  0.00    +0.000 C 
ENDROOT
BRANCH   3   9
ATOM      9  O   UNL     1      14.040  48.996   9.386  0.00  0.00    +0.000 OA
ATOM     10  H   UNL     1      14.502  49.114  10.241  0.00  0.00    +0.000 HD
ENDBRANCH   3   9
BRANCH   4  11
ATOM     11  O   UNL     1      15.001  46.500   8.549  0.00  0.00    +0.000 OA
ATOM     12  H   UNL     1      15.571  45.731   8.754  0.00  0.00    +0.000 HD
ENDBRANCH   4  11
BRANCH   2  13
ATOM     13  O   UNL     1      12.772  48.214  11.810  0.00  0.00    +0.000 OA
BRANCH  13  14
ATOM     14  S   UNL     1      12.529  49.672  12.475  0.00  0.00    +0.000 S 
ATOM     15  O   UNL     1      12.271  49.490  13.884  0.00  0.00    +0.000 OA
ATOM     16  O   UNL     1      13.535  50.586  11.979  0.00  0.00    +0.000 OA
BRANCH  14  17
ATOM     17  O   UNL     1      11.118  50.095  11.830  0.00  0.00    +0.000 OA
ATOM     18  H   UNL     1      11.051  49.644  10.963  0.00  0.00    +0.000 HD
ENDBRANCH  14  17
ENDBRANCH  13  14
ENDBRANCH   2  13
TORSDOF 5
ENDMDL
MODEL 6
REMARK VINA RESULT:      -4.6     12.281     13.586
REMARK  Name = 
REMARK  7 active torsions:
REMARK  status: ('A' for Active; 'I' for Inactive)
REMARK    1  A    between atoms: S_1  and  O_3
REMARK    2  A    between atoms: S_1  and  O_6
REMARK    3  A    between atoms: O_3  and  C_9
REMARK    4  A    between atoms: O_4  and  C_10
REMARK    5  A    between atoms: O_5  and  C_11
REMARK    6  A    between atoms: C_12  and  C_14
REMARK    7  A    between atoms: C_13  and  C_15
REMARK                            x       y       z     vdW  Elec       q    Type
REMARK                         _______ _______ _______ _____ _____    ______ ____
ROOT
ATOM      1  O   UNL     1      13.735  49.272  10.919  0.00  0.00    +0.000 OA
ATOM      2  C   UNL     1      12.213  49.443  12.834  0.00  0.00    +0.000 C 
ATOM      3  C   UNL     1      12.014  47.921  12.791  0.00  0.00    +0.000 C 
ATOM      4  C   UNL     1      12.263  47.371  11.380  0.00  0.00    +0.000 C 
ATOM      5  C   UNL     1      13.595  49.789  12.248  0.00  0.00    +0.000 C 
ATOM      6  C   UNL     1      13.628  47.842  10.861  0.00  0.00    +0.000 C 
ATOM      7  C   UNL     1      13.821  51.295  12.172  0.00  0.00    +0.000 C 
ATOM      8  C   UNL     1      13.850  47.424   9.412  0.00  0.00    +0.000 C 
ENDROOT
BRANCH   3   9
ATOM      9  O   UNL     1      10.697  47.516  13.193  0.00  0.00    +0.000 OA
ATOM     10  H   UNL     1      10.038  47.923  12.592  0.00  0.00    +0.000 HD
ENDBRANCH   3   9
BRANCH   4  11
ATOM     11  O   UNL     1      12.198  45.942  11.427  0.00  0.00    +0.000 OA
ATOM     12  H   UNL     1      11.397  45.710  10.913  0.00  0.00    +0.000 HD
ENDBRANCH   4  11
BRANCH   2  13
ATOM     13  O   UNL     1      11.192  50.080  12.063  0.00  0.00    +0.000 OA
BRANCH  13  14
ATOM     14  S   UNL     1      10.157  51.071  12.818  0.00  0.00    +0.000 S 
ATOM     15  O   UNL     1      10.619  52.428  12.643  0.00  0.00    +0.000 OA
ATOM     16  O   UNL     1       8.804  50.663  12.505  0.00  0.00    +0.000 OA
BRANCH  14  17
ATOM     17  O   UNL     1      10.433  50.718  14.363  0.00  0.00    +0.000 OA
ATOM     18  H   UNL     1      10.684  51.555  14.808  0.00  0.00    +0.000 HD
ENDBRANCH  14  17
ENDBRANCH  13  14
ENDBRANCH   2  13
TORSDOF 5
ENDMDL
MODEL 7
REMARK VINA RESULT:      -4.5     29.661     31.116
REMARK  Name = 
REMARK  7 active torsions:
REMARK  status: ('A' for Active; 'I' for Inactive)
REMARK    1  A    between atoms: S_1  and  O_3
REMARK    2  A    between atoms: S_1  and  O_6
REMARK    3  A    between atoms: O_3  and  C_9
REMARK    4  A    between atoms: O_4  and  C_10
REMARK    5  A    between atoms: O_5  and  C_11
REMARK    6  A    between atoms: C_12  and  C_14
REMARK    7  A    between atoms: C_13  and  C_15
REMARK                            x       y       z     vdW  Elec       q    Type
REMARK                         _______ _______ _______ _____ _____    ______ ____
ROOT
ATOM      1  O   UNL     1       5.510  30.112 -14.974  0.00  0.00    +0.000 OA
ATOM      2  C   UNL     1       3.716  31.615 -14.243  0.00  0.00    +0.000 C 
ATOM      3  C   UNL     1       4.399  31.738 -12.873  0.00  0.00    +0.000 C 
ATOM      4  C   UNL     1       5.256  30.500 -12.570  0.00  0.00    +0.000 C 
ATOM      5  C   UNL     1       4.779  31.298 -15.311  0.00  0.00    +0.000 C 
ATOM      6  C   UNL     1       6.220  30.227 -13.733  0.00  0.00    +0.000 C 
ATOM      7  C   UNL     1       4.156  31.069 -16.684  0.00  0.00    +0.000 C 
ATOM      8  C   UNL     1       6.992  28.929 -13.525  0.00  0.00    +0.000 C 
ENDROOT
BRANCH   3   9
ATOM      9  O   UNL     1       3.466  31.899 -11.793  0.00  0.00    +0.000 OA
ATOM     10  H   UNL     1       3.537  31.130 -11.191  0.00  0.00    +0.000 HD
ENDBRANCH   3   9
BRANCH   4  11
ATOM     11  O   UNL     1       5.972  30.725 -11.352  0.00  0.00    +0.000 OA
ATOM     12  H   UNL     1       6.150  29.830 -10.996  0.00  0.00    +0.000 HD
ENDBRANCH   4  11
BRANCH   2  13
ATOM     13  O   UNL     1       2.748  30.565 -14.202  0.00  0.00    +0.000 OA
BRANCH  13  14
ATOM     14  S   UNL     1       1.178  30.956 -14.280  0.00  0.00    +0.000 S 
ATOM     15  O   UNL     1       1.029  32.322 -13.836  0.00  0.00    +0.000 OA
ATOM     16  O   UNL     1       0.639  30.482 -15.536  0.00  0.00    +0.000 OA
BRANCH  14  17
ATOM     17  O   UNL     1       0.556  30.052 -13.104  0.00  0.00    +0.000 OA
ATOM     18  H   UNL     1      -0.264  29.647 -13.456  0.00  0.00    +0.000 HD
ENDBRANCH  14  17
ENDBRANCH  13  14
ENDBRANCH   2  13
TORSDOF 5
ENDMDL
MODEL 8
REMARK VINA RESULT:      -4.4      2.217      4.334
REMARK  Name = 
REMARK  7 active torsions:
REMARK  status: ('A' for Active; 'I' for Inactive)
REMARK    1  A    between atoms: S_1  and  O_3
REMARK    2  A    between atoms: S_1  and  O_6
REMARK    3  A    between atoms: O_3  and  C_9
REMARK    4  A    between atoms: O_4  and  C_10
REMARK    5  A    between atoms: O_5  and  C_11
REMARK    6  A    between atoms: C_12  and  C_14
REMARK    7  A    between atoms: C_13  and  C_15
REMARK                            x       y       z     vdW  Elec       q    Type
REMARK                         _______ _______ _______ _____ _____    ______ ____
ROOT
ATOM      1  O   UNL     1      16.773  56.986   3.320  0.00  0.00    +0.000 OA
ATOM      2  C   UNL     1      14.676  56.211   2.313  0.00  0.00    +0.000 C 
ATOM      3  C   UNL     1      13.939  56.565   3.613  0.00  0.00    +0.000 C 
ATOM      4  C   UNL     1      14.892  56.522   4.816  0.00  0.00    +0.000 C 
ATOM      5  C   UNL     1      15.920  57.109   2.175  0.00  0.00    +0.000 C 
ATOM      6  C   UNL     1      16.133  57.382   4.541  0.00  0.00    +0.000 C 
ATOM      7  C   UNL     1      16.752  56.746   0.950  0.00  0.00    +0.000 C 
ATOM      8  C   UNL     1      17.160  57.256   5.660  0.00  0.00    +0.000 C 
ENDROOT
BRANCH   3   9
ATOM      9  O   UNL     1      12.840  55.685   3.893  0.00  0.00    +0.000 OA
ATOM     10  H   UNL     1      13.143  54.975   4.496  0.00  0.00    +0.000 HD
ENDBRANCH   3   9
BRANCH   4  11
ATOM     11  O   UNL     1      14.191  56.989   5.973  0.00  0.00    +0.000 OA
ATOM     12  H   UNL     1      13.364  57.381   5.624  0.00  0.00    +0.000 HD
ENDBRANCH   4  11
BRANCH   2  13
ATOM     13  O   UNL     1      15.076  54.840   2.349  0.00  0.00    +0.000 OA
BRANCH  13  14
ATOM     14  S   UNL     1      14.285  53.778   1.414  0.00  0.00    +0.000 S 
ATOM     15  O   UNL     1      15.240  52.823   0.905  0.00  0.00    +0.000 OA
ATOM     16  O   UNL     1      13.067  53.379   2.087  0.00  0.00    +0.000 OA
BRANCH  14  17
ATOM     17  O   UNL     1      13.875  54.691   0.155  0.00  0.00    +0.000 OA
ATOM     18  H   UNL     1      13.685  55.588   0.500  0.00  0.00    +0.000 HD
ENDBRANCH  14  17
ENDBRANCH  13  14
ENDBRANCH   2  13
TORSDOF 5
ENDMDL
MODEL 9
REMARK VINA RESULT:      -4.4     27.163     28.484
REMARK  Name = 
REMARK  7 active torsions:
REMARK  status: ('A' for Active; 'I' for Inactive)
REMARK    1  A    between atoms: S_1  and  O_3
REMARK    2  A    between atoms: S_1  and  O_6
REMARK    3  A    between atoms: O_3  and  C_9
REMARK    4  A    between atoms: O_4  and  C_10
REMARK    5  A    between atoms: O_5  and  C_11
REMARK    6  A    between atoms: C_12  and  C_14
REMARK    7  A    between atoms: C_13  and  C_15
REMARK                            x       y       z     vdW  Elec       q    Type
REMARK                         _______ _______ _______ _____ _____    ______ ____
ROOT
ATOM      1  O   UNL     1      -8.500  42.195  12.048  0.00  0.00    +0.000 OA
ATOM      2  C   UNL     1      -6.051  42.301  11.967  0.00  0.00    +0.000 C 
ATOM      3  C   UNL     1      -6.080  41.584  10.610  0.00  0.00    +0.000 C 
ATOM      4  C   UNL     1      -7.345  40.726  10.466  0.00  0.00    +0.000 C 
ATOM      5  C   UNL     1      -7.371  43.071  12.162  0.00  0.00    +0.000 C 
ATOM      6  C   UNL     1      -8.594  41.568  10.761  0.00  0.00    +0.000 C 
ATOM      7  C   UNL     1      -7.449  43.731  13.534  0.00  0.00    +0.000 C 
ATOM      8  C   UNL     1      -9.857  40.715  10.757  0.00  0.00    +0.000 C 
ENDROOT
BRANCH   3   9
ATOM      9  O   UNL     1      -4.945  40.731  10.401  0.00  0.00    +0.000 OA
ATOM     10  H   UNL     1      -5.201  39.998   9.802  0.00  0.00    +0.000 HD
ENDBRANCH   3   9
BRANCH   4  11
ATOM     11  O   UNL     1      -7.388  40.192   9.139  0.00  0.00    +0.000 OA
ATOM     12  H   UNL     1      -7.220  39.234   9.248  0.00  0.00    +0.000 HD
ENDBRANCH   4  11
BRANCH   2  13
ATOM     13  O   UNL     1      -5.898  41.339  13.012  0.00  0.00    +0.000 OA
BRANCH  13  14
ATOM     14  S   UNL     1      -4.522  41.336  13.867  0.00  0.00    +0.000 S 
ATOM     15  O   UNL     1      -3.911  42.638  13.744  0.00  0.00    +0.000 OA
ATOM     16  O   UNL     1      -4.766  40.707  15.147  0.00  0.00    +0.000 OA
BRANCH  14  17
ATOM     17  O   UNL     1      -3.599  40.345  12.999  0.00  0.00    +0.000 OA
ATOM     18  H   UNL     1      -4.184  39.906  12.346  0.00  0.00    +0.000 HD
ENDBRANCH  14  17
ENDBRANCH  13  14
ENDBRANCH   2  13
TORSDOF 5
ENDMDL
