MODEL 1
REMARK VINA RESULT:      -6.8      0.000      0.000
REMARK  Name = Fulvestrant.pdbqt.pdb
REMARK  12 active torsions:
REMARK  status: ('A' for Active; 'I' for Inactive)
REMARK    1  A    between atoms: C_6  and  O_40
REMARK    2  A    between atoms: C_8  and  C_19
REMARK    3  A    between atoms: C_18  and  O_42
REMARK    4  A    between atoms: C_20  and  C_21
REMARK    5  A    between atoms: C_22  and  C_23
REMARK    6  A    between atoms: C_23  and  C_24
REMARK    7  A    between atoms: C_25  and  C_26
REMARK    8  A    between atoms: C_27  and  S_28
REMARK    9  A    between atoms: S_28  and  C_30
REMARK   10  A    between atoms: C_30  and  C_31
REMARK   11  A    between atoms: C_32  and  C_33
REMARK   12  A    between atoms: C_33  and  C_36
REMARK                            x       y       z     vdW  Elec       q    Type
REMARK                         _______ _______ _______ _____ _____    ______ ____
ROOT
ATOM      1  C   UNL     1      -1.554  17.982   5.095  0.00  0.00    +0.000 C 
ATOM      2  C   UNL     1      -1.805  16.976   3.870  0.00  0.00    +0.000 C 
ATOM      3  C   UNL     1      -2.107  19.374   5.154  0.00  0.00    +0.000 A 
ATOM      4  C   UNL     1      -3.283  19.811   4.256  0.00  0.00    +0.000 A 
ATOM      5  C   UNL     1      -2.991  17.475   3.183  0.00  0.00    +0.000 C 
ATOM      6  C   UNL     1      -2.030  15.621   4.579  0.00  0.00    +0.000 C 
ATOM      7  C   UNL     1      -1.522  17.183   6.283  0.00  0.00    +0.000 C 
ATOM      8  C   UNL     1      -1.567  20.396   6.089  0.00  0.00    +0.000 A 
ATOM      9  C   UNL     1      -3.680  18.800   3.349  0.00  0.00    +0.000 C 
ATOM     10  C   UNL     1      -1.835  15.740   5.981  0.00  0.00    +0.000 C 
ATOM     11  C   UNL     1      -0.527  16.931   2.994  0.00  0.00    +0.000 C 
ATOM     12  C   UNL     1      -3.896  21.168   4.305  0.00  0.00    +0.000 A 
ATOM     13  C   UNL     1      -2.288  21.610   5.990  0.00  0.00    +0.000 A 
ATOM     14  C   UNL     1      -3.369  22.110   5.221  0.00  0.00    +0.000 A 
ATOM     15  C   UNL     1      -4.960  21.549   3.490  0.00  0.00    +0.000 A 
ATOM     16  C   UNL     1      -3.876  23.395   5.332  0.00  0.00    +0.000 A 
ATOM     17  C   UNL     1      -5.481  22.840   3.592  0.00  0.00    +0.000 A 
ATOM     18  C   UNL     1      -4.938  23.746   4.505  0.00  0.00    +0.000 A 
ENDROOT
BRANCH   8  19
ATOM     19  C   UNL     1      -0.375  20.226   6.833  0.00  0.00    +0.000 C 
ATOM     20  C   UNL     1       0.923  20.030   7.623  0.00  0.00    +0.000 C 
BRANCH  20  21
ATOM     21  C   UNL     1       2.229  19.814   8.392  0.00  0.00    +0.000 C 
ATOM     22  C   UNL     1       3.521  19.606   9.189  0.00  0.00    +0.000 C 
BRANCH  22  23
ATOM     23  C   UNL     1       4.797  19.410  10.014  0.00  0.00    +0.000 C 
BRANCH  23  24
ATOM     24  C   UNL     1       6.053  19.214  10.869  0.00  0.00    +0.000 C 
ATOM     25  C   UNL     1       7.307  19.053  11.734  0.00  0.00    +0.000 C 
BRANCH  25  26
ATOM     26  C   UNL     1       8.559  18.926  12.607  0.00  0.00    +0.000 C 
ATOM     27  C   UNL     1       9.796  18.822  13.505  0.00  0.00    +0.000 C 
BRANCH  27  28
ATOM     28  S   UNL     1      11.204  18.727  14.557  0.00  0.00    +0.000 S 
ATOM     29  O   UNL     1      11.175  20.203  14.826  0.00  0.00    +0.000 OA
BRANCH  28  30
ATOM     30  C   UNL     1      10.248  18.383  15.995  0.00  0.00    +0.000 C 
BRANCH  30  31
ATOM     31  C   UNL     1       9.435  18.074  17.258  0.00  0.00    +0.000 C 
ATOM     32  C   UNL     1       8.607  17.762  18.509  0.00  0.00    +0.000 C 
BRANCH  32  33
ATOM     33  C   UNL     1       7.808  17.463  19.700  0.00  0.00    +0.000 C 
ATOM     34  F   UNL     1       8.258  18.251  20.717  0.00  0.00    +0.000 F 
ATOM     35  F   UNL     1       8.080  16.181  20.074  0.00  0.00    +0.000 F 
BRANCH  33  36
ATOM     36  C   UNL     1       6.304  17.658  19.485  0.00  0.00    +0.000 C 
ATOM     37  F   UNL     1       5.584  16.595  19.927  0.00  0.00    +0.000 F 
ATOM     38  F   UNL     1       5.991  17.830  18.177  0.00  0.00    +0.000 F 
ATOM     39  F   UNL     1       5.837  18.749  20.146  0.00  0.00    +0.000 F 
ENDBRANCH  33  36
ENDBRANCH  32  33
ENDBRANCH  30  31
ENDBRANCH  28  30
ENDBRANCH  27  28
ENDBRANCH  25  26
ENDBRANCH  23  24
ENDBRANCH  22  23
ENDBRANCH  20  21
ENDBRANCH   8  19
BRANCH   6  40
ATOM     40  O   UNL     1      -2.777  14.604   4.023  0.00  0.00    +0.000 OA
ATOM     41  H   UNL     1      -3.576  14.414   4.547  0.00  0.00    +0.000 HD
ENDBRANCH   6  40
BRANCH  18  42
ATOM     42  O   UNL     1      -5.480  24.998   4.567  0.00  0.00    +0.000 OA
ATOM     43  H   UNL     1      -5.846  25.219   3.692  0.00  0.00    +0.000 HD
ENDBRANCH  18  42
TORSDOF 12
ENDMDL
MODEL 2
REMARK VINA RESULT:      -6.8     20.047     24.236
REMARK  Name = Fulvestrant.pdbqt.pdb
REMARK  12 active torsions:
REMARK  status: ('A' for Active; 'I' for Inactive)
REMARK    1  A    between atoms: C_6  and  O_40
REMARK    2  A    between atoms: C_8  and  C_19
REMARK    3  A    between atoms: C_18  and  O_42
REMARK    4  A    between atoms: C_20  and  C_21
REMARK    5  A    between atoms: C_22  and  C_23
REMARK    6  A    between atoms: C_23  and  C_24
REMARK    7  A    between atoms: C_25  and  C_26
REMARK    8  A    between atoms: C_27  and  S_28
REMARK    9  A    between atoms: S_28  and  C_30
REMARK   10  A    between atoms: C_30  and  C_31
REMARK   11  A    between atoms: C_32  and  C_33
REMARK   12  A    between atoms: C_33  and  C_36
REMARK                            x       y       z     vdW  Elec       q    Type
REMARK                         _______ _______ _______ _____ _____    ______ ____
ROOT
ATOM      1  C   UNL     1     -14.170  40.960   8.236  0.00  0.00    +0.000 C 
ATOM      2  C   UNL     1     -15.088  39.715   7.813  0.00  0.00    +0.000 C 
ATOM      3  C   UNL     1     -14.104  42.245   7.468  0.00  0.00    +0.000 A 
ATOM      4  C   UNL     1     -15.201  42.632   6.454  0.00  0.00    +0.000 A 
ATOM      5  C   UNL     1     -16.117  40.261   6.935  0.00  0.00    +0.000 C 
ATOM      6  C   UNL     1     -15.638  39.216   9.168  0.00  0.00    +0.000 C 
ATOM      7  C   UNL     1     -14.155  40.991   9.669  0.00  0.00    +0.000 C 
ATOM      8  C   UNL     1     -12.994  43.217   7.653  0.00  0.00    +0.000 A 
ATOM      9  C   UNL     1     -16.172  41.617   6.288  0.00  0.00    +0.000 C 
ATOM     10  C   UNL     1     -15.069  39.943  10.248  0.00  0.00    +0.000 C 
ATOM     11  C   UNL     1     -14.191  38.636   7.154  0.00  0.00    +0.000 C 
ATOM     12  C   UNL     1     -15.204  43.915   5.695  0.00  0.00    +0.000 A 
ATOM     13  C   UNL     1     -13.186  44.369   6.853  0.00  0.00    +0.000 A 
ATOM     14  C   UNL     1     -14.143  44.825   5.911  0.00  0.00    +0.000 A 
ATOM     15  C   UNL     1     -16.203  44.254   4.785  0.00  0.00    +0.000 A 
ATOM     16  C   UNL     1     -14.064  46.039   5.247  0.00  0.00    +0.000 A 
ATOM     17  C   UNL     1     -16.138  45.474   4.109  0.00  0.00    +0.000 A 
ATOM     18  C   UNL     1     -15.076  46.349   4.344  0.00  0.00    +0.000 A 
ENDROOT
BRANCH   8  19
ATOM     19  C   UNL     1     -11.817  42.934   8.387  0.00  0.00    +0.000 C 
ATOM     20  C   UNL     1     -10.548  42.644   9.194  0.00  0.00    +0.000 C 
BRANCH  20  21
ATOM     21  C   UNL     1      -9.284  42.378  10.017  0.00  0.00    +0.000 C 
ATOM     22  C   UNL     1      -8.003  42.111  10.813  0.00  0.00    +0.000 C 
BRANCH  22  23
ATOM     23  C   UNL     1      -6.705  41.838  11.580  0.00  0.00    +0.000 C 
BRANCH  23  24
ATOM     24  C   UNL     1      -5.426  41.550  12.373  0.00  0.00    +0.000 C 
ATOM     25  C   UNL     1      -4.153  41.228  13.160  0.00  0.00    +0.000 C 
BRANCH  25  26
ATOM     26  C   UNL     1      -2.886  40.871  13.945  0.00  0.00    +0.000 C 
ATOM     27  C   UNL     1      -1.640  40.491  14.751  0.00  0.00    +0.000 C 
BRANCH  27  28
ATOM     28  S   UNL     1      -0.228  40.036  15.699  0.00  0.00    +0.000 S 
ATOM     29  O   UNL     1      -0.992  40.128  16.987  0.00  0.00    +0.000 OA
BRANCH  28  30
ATOM     30  C   UNL     1      -0.549  38.310  15.559  0.00  0.00    +0.000 C 
BRANCH  30  31
ATOM     31  C   UNL     1      -0.823  36.809  15.413  0.00  0.00    +0.000 C 
ATOM     32  C   UNL     1      -1.105  35.308  15.285  0.00  0.00    +0.000 C 
BRANCH  32  33
ATOM     33  C   UNL     1      -1.377  33.872  15.172  0.00  0.00    +0.000 C 
ATOM     34  F   UNL     1      -2.031  33.661  13.995  0.00  0.00    +0.000 F 
ATOM     35  F   UNL     1      -2.260  33.537  16.155  0.00  0.00    +0.000 F 
BRANCH  33  36
ATOM     36  C   UNL     1      -0.115  33.008  15.257  0.00  0.00    +0.000 C 
ATOM     37  F   UNL     1      -0.215  32.055  16.220  0.00  0.00    +0.000 F 
ATOM     38  F   UNL     1       0.990  33.741  15.541  0.00  0.00    +0.000 F 
ATOM     39  F   UNL     1       0.132  32.360  14.090  0.00  0.00    +0.000 F 
ENDBRANCH  33  36
ENDBRANCH  32  33
ENDBRANCH  30  31
ENDBRANCH  28  30
ENDBRANCH  27  28
ENDBRANCH  25  26
ENDBRANCH  23  24
ENDBRANCH  22  23
ENDBRANCH  20  21
ENDBRANCH   8  19
BRANCH   6  40
ATOM     40  O   UNL     1     -16.835  38.540   9.285  0.00  0.00    +0.000 OA
ATOM     41  H   UNL     1     -16.703  37.620   9.575  0.00  0.00    +0.000 HD
ENDBRANCH   6  40
BRANCH  18  42
ATOM     42  O   UNL     1     -15.055  47.531   3.658  0.00  0.00    +0.000 OA
ATOM     43  H   UNL     1     -14.613  48.199   4.211  0.00  0.00    +0.000 HD
ENDBRANCH  18  42
TORSDOF 12
ENDMDL
MODEL 3
REMARK VINA RESULT:      -6.4     17.220     20.838
REMARK  Name = Fulvestrant.pdbqt.pdb
REMARK  12 active torsions:
REMARK  status: ('A' for Active; 'I' for Inactive)
REMARK    1  A    between atoms: C_6  and  O_40
REMARK    2  A    between atoms: C_8  and  C_19
REMARK    3  A    between atoms: C_18  and  O_42
REMARK    4  A    between atoms: C_20  and  C_21
REMARK    5  A    between atoms: C_22  and  C_23
REMARK    6  A    between atoms: C_23  and  C_24
REMARK    7  A    between atoms: C_25  and  C_26
REMARK    8  A    between atoms: C_27  and  S_28
REMARK    9  A    between atoms: S_28  and  C_30
REMARK   10  A    between atoms: C_30  and  C_31
REMARK   11  A    between atoms: C_32  and  C_33
REMARK   12  A    between atoms: C_33  and  C_36
REMARK                            x       y       z     vdW  Elec       q    Type
REMARK                         _______ _______ _______ _____ _____    ______ ____
ROOT
ATOM      1  C   UNL     1      -3.184  22.497  -4.641  0.00  0.00    +0.000 C 
ATOM      2  C   UNL     1      -2.430  21.100  -4.409  0.00  0.00    +0.000 C 
ATOM      3  C   UNL     1      -2.478  23.813  -4.766  0.00  0.00    +0.000 A 
ATOM      4  C   UNL     1      -0.971  23.889  -5.090  0.00  0.00    +0.000 A 
ATOM      5  C   UNL     1      -1.054  21.314  -4.843  0.00  0.00    +0.000 C 
ATOM      6  C   UNL     1      -3.217  20.129  -5.318  0.00  0.00    +0.000 C 
ATOM      7  C   UNL     1      -4.315  22.220  -5.474  0.00  0.00    +0.000 C 
ATOM      8  C   UNL     1      -3.190  25.107  -4.602  0.00  0.00    +0.000 A 
ATOM      9  C   UNL     1      -0.362  22.613  -5.152  0.00  0.00    +0.000 C 
ATOM     10  C   UNL     1      -4.331  20.779  -5.914  0.00  0.00    +0.000 C 
ATOM     11  C   UNL     1      -2.577  20.696  -2.920  0.00  0.00    +0.000 C 
ATOM     12  C   UNL     1      -0.230  25.170  -5.266  0.00  0.00    +0.000 A 
ATOM     13  C   UNL     1      -2.317  26.201  -4.817  0.00  0.00    +0.000 A 
ATOM     14  C   UNL     1      -0.944  26.383  -5.122  0.00  0.00    +0.000 A 
ATOM     15  C   UNL     1       1.130  25.224  -5.561  0.00  0.00    +0.000 A 
ATOM     16  C   UNL     1      -0.336  27.620  -5.266  0.00  0.00    +0.000 A 
ATOM     17  C   UNL     1       1.757  26.463  -5.710  0.00  0.00    +0.000 A 
ATOM     18  C   UNL     1       1.024  27.641  -5.561  0.00  0.00    +0.000 A 
ENDROOT
BRANCH   8  19
ATOM     19  C   UNL     1      -4.514  25.218  -4.113  0.00  0.00    +0.000 C 
ATOM     20  C   UNL     1      -5.945  25.318  -3.575  0.00  0.00    +0.000 C 
BRANCH  20  21
ATOM     21  C   UNL     1      -7.373  25.390  -3.029  0.00  0.00    +0.000 C 
ATOM     22  C   UNL     1      -8.793  25.481  -2.459  0.00  0.00    +0.000 C 
BRANCH  22  23
ATOM     23  C   UNL     1     -10.199  25.590  -1.863  0.00  0.00    +0.000 C 
BRANCH  23  24
ATOM     24  C   UNL     1     -11.592  25.708  -1.235  0.00  0.00    +0.000 C 
ATOM     25  C   UNL     1     -12.969  25.819  -0.575  0.00  0.00    +0.000 C 
BRANCH  25  26
ATOM     26  C   UNL     1     -14.334  25.918   0.116  0.00  0.00    +0.000 C 
ATOM     27  C   UNL     1     -15.694  25.981   0.817  0.00  0.00    +0.000 C 
BRANCH  27  28
ATOM     28  S   UNL     1     -17.255  26.020   1.629  0.00  0.00    +0.000 S 
ATOM     29  O   UNL     1     -16.753  25.169   2.758  0.00  0.00    +0.000 OA
BRANCH  28  30
ATOM     30  C   UNL     1     -16.891  27.505   2.504  0.00  0.00    +0.000 C 
BRANCH  30  31
ATOM     31  C   UNL     1     -16.592  28.791   3.281  0.00  0.00    +0.000 C 
ATOM     32  C   UNL     1     -16.307  30.086   4.050  0.00  0.00    +0.000 C 
BRANCH  32  33
ATOM     33  C   UNL     1     -16.042  31.329   4.780  0.00  0.00    +0.000 C 
ATOM     34  F   UNL     1     -17.143  31.619   5.529  0.00  0.00    +0.000 F 
ATOM     35  F   UNL     1     -15.937  32.334   3.867  0.00  0.00    +0.000 F 
BRANCH  33  36
ATOM     36  C   UNL     1     -14.789  31.259   5.659  0.00  0.00    +0.000 C 
ATOM     37  F   UNL     1     -14.049  32.395   5.581  0.00  0.00    +0.000 F 
ATOM     38  F   UNL     1     -13.974  30.233   5.309  0.00  0.00    +0.000 F 
ATOM     39  F   UNL     1     -15.101  31.084   6.969  0.00  0.00    +0.000 F 
ENDBRANCH  33  36
ENDBRANCH  32  33
ENDBRANCH  30  31
ENDBRANCH  28  30
ENDBRANCH  27  28
ENDBRANCH  25  26
ENDBRANCH  23  24
ENDBRANCH  22  23
ENDBRANCH  20  21
ENDBRANCH   8  19
BRANCH   6  40
ATOM     40  O   UNL     1      -2.656  18.990  -5.855  0.00  0.00    +0.000 OA
ATOM     41  H   UNL     1      -2.378  19.124  -6.779  0.00  0.00    +0.000 HD
ENDBRANCH   6  40
BRANCH  18  42
ATOM     42  O   UNL     1       1.681  28.829  -5.714  0.00  0.00    +0.000 OA
ATOM     43  H   UNL     1       1.031  29.509  -5.967  0.00  0.00    +0.000 HD
ENDBRANCH  18  42
TORSDOF 12
ENDMDL
MODEL 4
REMARK VINA RESULT:      -6.4     26.620     29.558
REMARK  Name = Fulvestrant.pdbqt.pdb
REMARK  12 active torsions:
REMARK  status: ('A' for Active; 'I' for Inactive)
REMARK    1  A    between atoms: C_6  and  O_40
REMARK    2  A    between atoms: C_8  and  C_19
REMARK    3  A    between atoms: C_18  and  O_42
REMARK    4  A    between atoms: C_20  and  C_21
REMARK    5  A    between atoms: C_22  and  C_23
REMARK    6  A    between atoms: C_23  and  C_24
REMARK    7  A    between atoms: C_25  and  C_26
REMARK    8  A    between atoms: C_27  and  S_28
REMARK    9  A    between atoms: S_28  and  C_30
REMARK   10  A    between atoms: C_30  and  C_31
REMARK   11  A    between atoms: C_32  and  C_33
REMARK   12  A    between atoms: C_33  and  C_36
REMARK                            x       y       z     vdW  Elec       q    Type
REMARK                         _______ _______ _______ _____ _____    ______ ____
ROOT
ATOM      1  C   UNL     1      20.251  41.545  -3.733  0.00  0.00    +0.000 C 
ATOM      2  C   UNL     1      20.234  42.156  -5.217  0.00  0.00    +0.000 C 
ATOM      3  C   UNL     1      21.190  41.999  -2.657  0.00  0.00    +0.000 A 
ATOM      4  C   UNL     1      21.929  43.350  -2.752  0.00  0.00    +0.000 A 
ATOM      5  C   UNL     1      20.884  43.458  -5.117  0.00  0.00    +0.000 C 
ATOM      6  C   UNL     1      18.725  42.245  -5.535  0.00  0.00    +0.000 C 
ATOM      7  C   UNL     1      18.893  41.234  -3.402  0.00  0.00    +0.000 C 
ATOM      8  C   UNL     1      21.444  41.185  -1.439  0.00  0.00    +0.000 A 
ATOM      9  C   UNL     1      21.686  44.019  -3.976  0.00  0.00    +0.000 C 
ATOM     10  C   UNL     1      17.949  41.681  -4.488  0.00  0.00    +0.000 C 
ATOM     11  C   UNL     1      20.938  41.160  -6.173  0.00  0.00    +0.000 C 
ATOM     12  C   UNL     1      22.840  43.867  -1.692  0.00  0.00    +0.000 A 
ATOM     13  C   UNL     1      22.326  41.851  -0.555  0.00  0.00    +0.000 A 
ATOM     14  C   UNL     1      23.044  43.074  -0.538  0.00  0.00    +0.000 A 
ATOM     15  C   UNL     1      23.499  45.090  -1.790  0.00  0.00    +0.000 A 
ATOM     16  C   UNL     1      23.875  43.475   0.496  0.00  0.00    +0.000 A 
ATOM     17  C   UNL     1      24.340  45.508  -0.756  0.00  0.00    +0.000 A 
ATOM     18  C   UNL     1      24.520  44.702   0.369  0.00  0.00    +0.000 A 
ENDROOT
BRANCH   8  19
ATOM     19  C   UNL     1      21.008  39.847  -1.285  0.00  0.00    +0.000 C 
ATOM     20  C   UNL     1      20.545  38.394  -1.137  0.00  0.00    +0.000 C 
BRANCH  20  21
ATOM     21  C   UNL     1      20.093  36.936  -1.016  0.00  0.00    +0.000 C 
ATOM     22  C   UNL     1      19.611  35.487  -0.902  0.00  0.00    +0.000 C 
BRANCH  22  23
ATOM     23  C   UNL     1      19.096  34.048  -0.794  0.00  0.00    +0.000 C 
BRANCH  23  24
ATOM     24  C   UNL     1      18.551  32.621  -0.672  0.00  0.00    +0.000 C 
ATOM     25  C   UNL     1      18.018  31.188  -0.583  0.00  0.00    +0.000 C 
BRANCH  25  26
ATOM     26  C   UNL     1      17.494  29.749  -0.528  0.00  0.00    +0.000 C 
ATOM     27  C   UNL     1      16.935  28.324  -0.467  0.00  0.00    +0.000 C 
BRANCH  27  28
ATOM     28  S   UNL     1      16.262  26.700  -0.390  0.00  0.00    +0.000 S 
ATOM     29  O   UNL     1      16.031  26.804   1.088  0.00  0.00    +0.000 OA
BRANCH  28  30
ATOM     30  C   UNL     1      14.624  27.238  -0.748  0.00  0.00    +0.000 C 
BRANCH  30  31
ATOM     31  C   UNL     1      13.190  27.688  -1.047  0.00  0.00    +0.000 C 
ATOM     32  C   UNL     1      11.753  28.123  -1.357  0.00  0.00    +0.000 C 
BRANCH  32  33
ATOM     33  C   UNL     1      10.379  28.532  -1.659  0.00  0.00    +0.000 C 
ATOM     34  F   UNL     1       9.535  27.674  -1.018  0.00  0.00    +0.000 F 
ATOM     35  F   UNL     1      10.170  28.335  -2.991  0.00  0.00    +0.000 F 
BRANCH  33  36
ATOM     36  C   UNL     1      10.079  29.983  -1.271  0.00  0.00    +0.000 C 
ATOM     37  F   UNL     1      10.706  30.342  -0.122  0.00  0.00    +0.000 F 
ATOM     38  F   UNL     1       8.754  30.199  -1.081  0.00  0.00    +0.000 F 
ATOM     39  F   UNL     1      10.485  30.855  -2.229  0.00  0.00    +0.000 F 
ENDBRANCH  33  36
ENDBRANCH  32  33
ENDBRANCH  30  31
ENDBRANCH  28  30
ENDBRANCH  27  28
ENDBRANCH  25  26
ENDBRANCH  23  24
ENDBRANCH  22  23
ENDBRANCH  20  21
ENDBRANCH   8  19
BRANCH   6  40
ATOM     40  O   UNL     1      18.203  43.158  -6.428  0.00  0.00    +0.000 OA
ATOM     41  H   UNL     1      18.898  43.716  -6.821  0.00  0.00    +0.000 HD
ENDBRANCH   6  40
BRANCH  18  42
ATOM     42  O   UNL     1      25.353  45.151   1.354  0.00  0.00    +0.000 OA
ATOM     43  H   UNL     1      25.074  46.050   1.606  0.00  0.00    +0.000 HD
ENDBRANCH  18  42
TORSDOF 12
ENDMDL
MODEL 5
REMARK VINA RESULT:      -6.3     12.614     15.169
REMARK  Name = Fulvestrant.pdbqt.pdb
REMARK  12 active torsions:
REMARK  status: ('A' for Active; 'I' for Inactive)
REMARK    1  A    between atoms: C_6  and  O_40
REMARK    2  A    between atoms: C_8  and  C_19
REMARK    3  A    between atoms: C_18  and  O_42
REMARK    4  A    between atoms: C_20  and  C_21
REMARK    5  A    between atoms: C_22  and  C_23
REMARK    6  A    between atoms: C_23  and  C_24
REMARK    7  A    between atoms: C_25  and  C_26
REMARK    8  A    between atoms: C_27  and  S_28
REMARK    9  A    between atoms: S_28  and  C_30
REMARK   10  A    between atoms: C_30  and  C_31
REMARK   11  A    between atoms: C_32  and  C_33
REMARK   12  A    between atoms: C_33  and  C_36
REMARK                            x       y       z     vdW  Elec       q    Type
REMARK                         _______ _______ _______ _____ _____    ______ ____
ROOT
ATOM      1  C   UNL     1       8.335  31.838  15.915  0.00  0.00    +0.000 C 
ATOM      2  C   UNL     1       8.571  33.229  16.680  0.00  0.00    +0.000 C 
ATOM      3  C   UNL     1       7.005  31.153  15.826  0.00  0.00    +0.000 A 
ATOM      4  C   UNL     1       5.690  31.911  16.102  0.00  0.00    +0.000 A 
ATOM      5  C   UNL     1       7.257  33.854  16.780  0.00  0.00    +0.000 C 
ATOM      6  C   UNL     1       9.539  33.979  15.739  0.00  0.00    +0.000 C 
ATOM      7  C   UNL     1       9.205  31.843  14.777  0.00  0.00    +0.000 C 
ATOM      8  C   UNL     1       6.882  29.719  15.452  0.00  0.00    +0.000 A 
ATOM      9  C   UNL     1       5.907  33.244  16.523  0.00  0.00    +0.000 C 
ATOM     10  C   UNL     1       9.929  33.158  14.648  0.00  0.00    +0.000 C 
ATOM     11  C   UNL     1       9.247  32.937  18.044  0.00  0.00    +0.000 C 
ATOM     12  C   UNL     1       4.341  31.288  15.987  0.00  0.00    +0.000 A 
ATOM     13  C   UNL     1       5.524  29.323  15.389  0.00  0.00    +0.000 A 
ATOM     14  C   UNL     1       4.260  29.926  15.610  0.00  0.00    +0.000 A 
ATOM     15  C   UNL     1       3.161  31.985  16.236  0.00  0.00    +0.000 A 
ATOM     16  C   UNL     1       3.049  29.266  15.481  0.00  0.00    +0.000 A 
ATOM     17  C   UNL     1       1.932  31.333  16.110  0.00  0.00    +0.000 A 
ATOM     18  C   UNL     1       1.888  29.989  15.737  0.00  0.00    +0.000 A 
ENDROOT
BRANCH   8  19
ATOM     19  C   UNL     1       7.984  28.835  15.360  0.00  0.00    +0.000 C 
ATOM     20  C   UNL     1       9.163  27.862  15.269  0.00  0.00    +0.000 C 
BRANCH  20  21
ATOM     21  C   UNL     1      10.326  26.869  15.192  0.00  0.00    +0.000 C 
ATOM     22  C   UNL     1      11.469  25.852  15.109  0.00  0.00    +0.000 C 
BRANCH  22  23
ATOM     23  C   UNL     1      12.589  24.810  15.023  0.00  0.00    +0.000 C 
BRANCH  23  24
ATOM     24  C   UNL     1      13.688  23.749  14.915  0.00  0.00    +0.000 C 
ATOM     25  C   UNL     1      14.772  22.669  14.833  0.00  0.00    +0.000 C 
BRANCH  25  26
ATOM     26  C   UNL     1      15.842  21.574  14.779  0.00  0.00    +0.000 C 
ATOM     27  C   UNL     1      16.886  20.454  14.737  0.00  0.00    +0.000 C 
BRANCH  27  28
ATOM     28  S   UNL     1      18.063  19.145  14.702  0.00  0.00    +0.000 S 
ATOM     29  O   UNL     1      18.531  19.452  16.094  0.00  0.00    +0.000 OA
BRANCH  28  30
ATOM     30  C   UNL     1      16.914  17.944  15.286  0.00  0.00    +0.000 C 
BRANCH  30  31
ATOM     31  C   UNL     1      15.902  16.902  15.773  0.00  0.00    +0.000 C 
ATOM     32  C   UNL     1      14.898  15.860  16.278  0.00  0.00    +0.000 C 
BRANCH  32  33
ATOM     33  C   UNL     1      13.943  14.862  16.769  0.00  0.00    +0.000 C 
ATOM     34  F   UNL     1      14.061  14.800  18.125  0.00  0.00    +0.000 F 
ATOM     35  F   UNL     1      14.338  13.644  16.303  0.00  0.00    +0.000 F 
BRANCH  33  36
ATOM     36  C   UNL     1      12.496  15.156  16.361  0.00  0.00    +0.000 C 
ATOM     37  F   UNL     1      12.368  16.380  15.785  0.00  0.00    +0.000 F 
ATOM     38  F   UNL     1      11.650  15.129  17.421  0.00  0.00    +0.000 F 
ATOM     39  F   UNL     1      12.031  14.250  15.464  0.00  0.00    +0.000 F 
ENDBRANCH  33  36
ENDBRANCH  32  33
ENDBRANCH  30  31
ENDBRANCH  28  30
ENDBRANCH  27  28
ENDBRANCH  25  26
ENDBRANCH  23  24
ENDBRANCH  22  23
ENDBRANCH  20  21
ENDBRANCH   8  19
BRANCH   6  40
ATOM     40  O   UNL     1       9.613  35.356  15.688  0.00  0.00    +0.000 OA
ATOM     41  H   UNL     1       9.261  35.705  14.850  0.00  0.00    +0.000 HD
ENDBRANCH   6  40
BRANCH  18  42
ATOM     42  O   UNL     1       0.663  29.393  15.628  0.00  0.00    +0.000 OA
ATOM     43  H   UNL     1       0.087  29.743  16.330  0.00  0.00    +0.000 HD
ENDBRANCH  18  42
TORSDOF 12
ENDMDL
MODEL 6
REMARK VINA RESULT:      -6.3     13.703     16.418
REMARK  Name = Fulvestrant.pdbqt.pdb
REMARK  12 active torsions:
REMARK  status: ('A' for Active; 'I' for Inactive)
REMARK    1  A    between atoms: C_6  and  O_40
REMARK    2  A    between atoms: C_8  and  C_19
REMARK    3  A    between atoms: C_18  and  O_42
REMARK    4  A    between atoms: C_20  and  C_21
REMARK    5  A    between atoms: C_22  and  C_23
REMARK    6  A    between atoms: C_23  and  C_24
REMARK    7  A    between atoms: C_25  and  C_26
REMARK    8  A    between atoms: C_27  and  S_28
REMARK    9  A    between atoms: S_28  and  C_30
REMARK   10  A    between atoms: C_30  and  C_31
REMARK   11  A    between atoms: C_32  and  C_33
REMARK   12  A    between atoms: C_33  and  C_36
REMARK                            x       y       z     vdW  Elec       q    Type
REMARK                         _______ _______ _______ _____ _____    ______ ____
ROOT
ATOM      1  C   UNL     1       8.428  31.846  15.892  0.00  0.00    +0.000 C 
ATOM      2  C   UNL     1       8.674  33.264  16.602  0.00  0.00    +0.000 C 
ATOM      3  C   UNL     1       7.094  31.165  15.833  0.00  0.00    +0.000 A 
ATOM      4  C   UNL     1       5.784  31.941  16.082  0.00  0.00    +0.000 A 
ATOM      5  C   UNL     1       7.364  33.901  16.680  0.00  0.00    +0.000 C 
ATOM      6  C   UNL     1       9.644  33.972  15.630  0.00  0.00    +0.000 C 
ATOM      7  C   UNL     1       9.296  31.801  14.753  0.00  0.00    +0.000 C 
ATOM      8  C   UNL     1       6.963  29.718  15.516  0.00  0.00    +0.000 A 
ATOM      9  C   UNL     1       6.010  33.289  16.450  0.00  0.00    +0.000 C 
ATOM     10  C   UNL     1      10.027  33.106  14.571  0.00  0.00    +0.000 C 
ATOM     11  C   UNL     1       9.352  33.022  17.975  0.00  0.00    +0.000 C 
ATOM     12  C   UNL     1       4.432  31.322  15.995  0.00  0.00    +0.000 A 
ATOM     13  C   UNL     1       5.602  29.328  15.472  0.00  0.00    +0.000 A 
ATOM     14  C   UNL     1       4.342  29.947  15.672  0.00  0.00    +0.000 A 
ATOM     15  C   UNL     1       3.256  32.034  16.219  0.00  0.00    +0.000 A 
ATOM     16  C   UNL     1       3.127  29.289  15.572  0.00  0.00    +0.000 A 
ATOM     17  C   UNL     1       2.024  31.385  16.121  0.00  0.00    +0.000 A 
ATOM     18  C   UNL     1       1.970  30.028  15.801  0.00  0.00    +0.000 A 
ENDROOT
BRANCH   8  19
ATOM     19  C   UNL     1       8.059  28.825  15.457  0.00  0.00    +0.000 C 
ATOM     20  C   UNL     1       9.236  27.848  15.377  0.00  0.00    +0.000 C 
BRANCH  20  21
ATOM     21  C   UNL     1      10.398  26.856  15.276  0.00  0.00    +0.000 C 
ATOM     22  C   UNL     1      11.571  25.879  15.150  0.00  0.00    +0.000 C 
BRANCH  22  23
ATOM     23  C   UNL     1      12.753  24.918  14.994  0.00  0.00    +0.000 C 
BRANCH  23  24
ATOM     24  C   UNL     1      13.914  23.929  14.846  0.00  0.00    +0.000 C 
ATOM     25  C   UNL     1      15.051  22.914  14.692  0.00  0.00    +0.000 C 
BRANCH  25  26
ATOM     26  C   UNL     1      16.165  21.874  14.534  0.00  0.00    +0.000 C 
ATOM     27  C   UNL     1      17.288  20.850  14.344  0.00  0.00    +0.000 C 
BRANCH  27  28
ATOM     28  S   UNL     1      18.586  19.687  14.094  0.00  0.00    +0.000 S 
ATOM     29  O   UNL     1      17.704  18.535  14.476  0.00  0.00    +0.000 OA
BRANCH  28  30
ATOM     30  C   UNL     1      18.225  19.479  12.383  0.00  0.00    +0.000 C 
BRANCH  30  31
ATOM     31  C   UNL     1      17.919  19.320  10.890  0.00  0.00    +0.000 C 
ATOM     32  C   UNL     1      17.601  19.147   9.401  0.00  0.00    +0.000 C 
BRANCH  32  33
ATOM     33  C   UNL     1      17.292  18.974   7.979  0.00  0.00    +0.000 C 
ATOM     34  F   UNL     1      17.270  17.637   7.714  0.00  0.00    +0.000 F 
ATOM     35  F   UNL     1      18.334  19.479   7.262  0.00  0.00    +0.000 F 
BRANCH  33  36
ATOM     36  C   UNL     1      15.974  19.633   7.560  0.00  0.00    +0.000 C 
ATOM     37  F   UNL     1      15.275  18.865   6.685  0.00  0.00    +0.000 F 
ATOM     38  F   UNL     1      16.170  20.834   6.961  0.00  0.00    +0.000 F 
ATOM     39  F   UNL     1      15.160  19.854   8.625  0.00  0.00    +0.000 F 
ENDBRANCH  33  36
ENDBRANCH  32  33
ENDBRANCH  30  31
ENDBRANCH  28  30
ENDBRANCH  27  28
ENDBRANCH  25  26
ENDBRANCH  23  24
ENDBRANCH  22  23
ENDBRANCH  20  21
ENDBRANCH   8  19
BRANCH   6  40
ATOM     40  O   UNL     1       9.725  35.344  15.525  0.00  0.00    +0.000 OA
ATOM     41  H   UNL     1      10.042  35.752  16.350  0.00  0.00    +0.000 HD
ENDBRANCH   6  40
BRANCH  18  42
ATOM     42  O   UNL     1       0.742  29.435  15.718  0.00  0.00    +0.000 OA
ATOM     43  H   UNL     1       0.712  28.904  14.903  0.00  0.00    +0.000 HD
ENDBRANCH  18  42
TORSDOF 12
ENDMDL
MODEL 7
REMARK VINA RESULT:      -6.3     21.013     26.308
REMARK  Name = Fulvestrant.pdbqt.pdb
REMARK  12 active torsions:
REMARK  status: ('A' for Active; 'I' for Inactive)
REMARK    1  A    between atoms: C_6  and  O_40
REMARK    2  A    between atoms: C_8  and  C_19
REMARK    3  A    between atoms: C_18  and  O_42
REMARK    4  A    between atoms: C_20  and  C_21
REMARK    5  A    between atoms: C_22  and  C_23
REMARK    6  A    between atoms: C_23  and  C_24
REMARK    7  A    between atoms: C_25  and  C_26
REMARK    8  A    between atoms: C_27  and  S_28
REMARK    9  A    between atoms: S_28  and  C_30
REMARK   10  A    between atoms: C_30  and  C_31
REMARK   11  A    between atoms: C_32  and  C_33
REMARK   12  A    between atoms: C_33  and  C_36
REMARK                            x       y       z     vdW  Elec       q    Type
REMARK                         _______ _______ _______ _____ _____    ______ ____
ROOT
ATOM      1  C   UNL     1       7.856  38.754  25.837  0.00  0.00    +0.000 C 
ATOM      2  C   UNL     1       9.434  39.037  25.892  0.00  0.00    +0.000 C 
ATOM      3  C   UNL     1       6.830  39.809  25.549  0.00  0.00    +0.000 A 
ATOM      4  C   UNL     1       7.218  41.147  24.886  0.00  0.00    +0.000 A 
ATOM      5  C   UNL     1       9.641  40.278  25.152  0.00  0.00    +0.000 C 
ATOM      6  C   UNL     1      10.031  37.797  25.192  0.00  0.00    +0.000 C 
ATOM      7  C   UNL     1       7.693  37.441  25.287  0.00  0.00    +0.000 C 
ATOM      8  C   UNL     1       5.391  39.615  25.869  0.00  0.00    +0.000 A 
ATOM      9  C   UNL     1       8.614  41.273  24.689  0.00  0.00    +0.000 C 
ATOM     10  C   UNL     1       9.017  36.856  24.867  0.00  0.00    +0.000 C 
ATOM     11  C   UNL     1       9.877  39.096  27.376  0.00  0.00    +0.000 C 
ATOM     12  C   UNL     1       6.233  42.210  24.541  0.00  0.00    +0.000 A 
ATOM     13  C   UNL     1       4.623  40.730  25.456  0.00  0.00    +0.000 A 
ATOM     14  C   UNL     1       4.869  41.984  24.842  0.00  0.00    +0.000 A 
ATOM     15  C   UNL     1       6.596  43.413  23.940  0.00  0.00    +0.000 A 
ATOM     16  C   UNL     1       3.885  42.919  24.559  0.00  0.00    +0.000 A 
ATOM     17  C   UNL     1       5.616  44.364  23.648  0.00  0.00    +0.000 A 
ATOM     18  C   UNL     1       4.279  44.111  23.958  0.00  0.00    +0.000 A 
ENDROOT
BRANCH   8  19
ATOM     19  C   UNL     1       4.898  38.542  26.650  0.00  0.00    +0.000 C 
ATOM     20  C   UNL     1       4.348  37.394  27.501  0.00  0.00    +0.000 C 
BRANCH  20  21
ATOM     21  C   UNL     1       3.777  36.264  28.362  0.00  0.00    +0.000 C 
ATOM     22  C   UNL     1       3.214  35.112  29.200  0.00  0.00    +0.000 C 
BRANCH  22  23
ATOM     23  C   UNL     1       2.659  33.938  30.013  0.00  0.00    +0.000 C 
BRANCH  23  24
ATOM     24  C   UNL     1       2.082  32.756  30.799  0.00  0.00    +0.000 C 
ATOM     25  C   UNL     1       1.505  31.556  31.555  0.00  0.00    +0.000 C 
BRANCH  25  26
ATOM     26  C   UNL     1       0.924  30.337  32.280  0.00  0.00    +0.000 C 
ATOM     27  C   UNL     1       0.345  29.099  32.973  0.00  0.00    +0.000 C 
BRANCH  27  28
ATOM     28  S   UNL     1      -0.321  27.661  33.738  0.00  0.00    +0.000 S 
ATOM     29  O   UNL     1      -1.719  28.023  33.332  0.00  0.00    +0.000 OA
BRANCH  28  30
ATOM     30  C   UNL     1      -0.098  26.658  32.309  0.00  0.00    +0.000 C 
BRANCH  30  31
ATOM     31  C   UNL     1       0.083  25.767  31.075  0.00  0.00    +0.000 C 
ATOM     32  C   UNL     1       0.281  24.869  29.848  0.00  0.00    +0.000 C 
BRANCH  32  33
ATOM     33  C   UNL     1       0.480  24.010  28.678  0.00  0.00    +0.000 C 
ATOM     34  F   UNL     1       0.471  22.715  29.103  0.00  0.00    +0.000 F 
ATOM     35  F   UNL     1       1.736  24.238  28.202  0.00  0.00    +0.000 F 
BRANCH  33  36
ATOM     36  C   UNL     1      -0.566  24.230  27.580  0.00  0.00    +0.000 C 
ATOM     37  F   UNL     1      -1.636  23.407  27.724  0.00  0.00    +0.000 F 
ATOM     38  F   UNL     1      -0.061  24.007  26.341  0.00  0.00    +0.000 F 
ATOM     39  F   UNL     1      -1.044  25.500  27.587  0.00  0.00    +0.000 F 
ENDBRANCH  33  36
ENDBRANCH  32  33
ENDBRANCH  30  31
ENDBRANCH  28  30
ENDBRANCH  27  28
ENDBRANCH  25  26
ENDBRANCH  23  24
ENDBRANCH  22  23
ENDBRANCH  20  21
ENDBRANCH   8  19
BRANCH   6  40
ATOM     40  O   UNL     1      11.248  37.820  24.543  0.00  0.00    +0.000 OA
ATOM     41  H   UNL     1      11.635  38.713  24.531  0.00  0.00    +0.000 HD
ENDBRANCH   6  40
BRANCH  18  42
ATOM     42  O   UNL     1       3.357  45.072  23.654  0.00  0.00    +0.000 OA
ATOM     43  H   UNL     1       3.821  45.828  23.255  0.00  0.00    +0.000 HD
ENDBRANCH  18  42
TORSDOF 12
ENDMDL
MODEL 8
REMARK VINA RESULT:      -6.2     13.291     15.698
REMARK  Name = Fulvestrant.pdbqt.pdb
REMARK  12 active torsions:
REMARK  status: ('A' for Active; 'I' for Inactive)
REMARK    1  A    between atoms: C_6  and  O_40
REMARK    2  A    between atoms: C_8  and  C_19
REMARK    3  A    between atoms: C_18  and  O_42
REMARK    4  A    between atoms: C_20  and  C_21
REMARK    5  A    between atoms: C_22  and  C_23
REMARK    6  A    between atoms: C_23  and  C_24
REMARK    7  A    between atoms: C_25  and  C_26
REMARK    8  A    between atoms: C_27  and  S_28
REMARK    9  A    between atoms: S_28  and  C_30
REMARK   10  A    between atoms: C_30  and  C_31
REMARK   11  A    between atoms: C_32  and  C_33
REMARK   12  A    between atoms: C_33  and  C_36
REMARK                            x       y       z     vdW  Elec       q    Type
REMARK                         _______ _______ _______ _____ _____    ______ ____
ROOT
ATOM      1  C   UNL     1       8.425  31.820  15.890  0.00  0.00    +0.000 C 
ATOM      2  C   UNL     1       8.717  33.226  16.606  0.00  0.00    +0.000 C 
ATOM      3  C   UNL     1       7.074  31.172  15.850  0.00  0.00    +0.000 A 
ATOM      4  C   UNL     1       5.787  31.978  16.127  0.00  0.00    +0.000 A 
ATOM      5  C   UNL     1       7.425  33.894  16.712  0.00  0.00    +0.000 C 
ATOM      6  C   UNL     1       9.687  33.918  15.622  0.00  0.00    +0.000 C 
ATOM      7  C   UNL     1       9.271  31.763  14.736  0.00  0.00    +0.000 C 
ATOM      8  C   UNL     1       6.901  29.732  15.525  0.00  0.00    +0.000 A 
ATOM      9  C   UNL     1       6.053  33.317  16.501  0.00  0.00    +0.000 C 
ATOM     10  C   UNL     1      10.030  33.051  14.550  0.00  0.00    +0.000 C 
ATOM     11  C   UNL     1       9.413  32.958  17.964  0.00  0.00    +0.000 C 
ATOM     12  C   UNL     1       4.419  31.392  16.060  0.00  0.00    +0.000 A 
ATOM     13  C   UNL     1       5.532  29.374  15.502  0.00  0.00    +0.000 A 
ATOM     14  C   UNL     1       4.291  30.022  15.728  0.00  0.00    +0.000 A 
ATOM     15  C   UNL     1       3.265  32.131  16.310  0.00  0.00    +0.000 A 
ATOM     16  C   UNL     1       3.058  29.395  15.645  0.00  0.00    +0.000 A 
ATOM     17  C   UNL     1       2.016  31.513  16.229  0.00  0.00    +0.000 A 
ATOM     18  C   UNL     1       1.924  30.159  15.901  0.00  0.00    +0.000 A 
ENDROOT
BRANCH   8  19
ATOM     19  C   UNL     1       7.975  28.813  15.440  0.00  0.00    +0.000 C 
ATOM     20  C   UNL     1       9.148  27.833  15.338  0.00  0.00    +0.000 C 
BRANCH  20  21
ATOM     21  C   UNL     1      10.336  26.875  15.222  0.00  0.00    +0.000 C 
ATOM     22  C   UNL     1      11.505  25.893  15.095  0.00  0.00    +0.000 C 
BRANCH  22  23
ATOM     23  C   UNL     1      12.652  24.887  14.958  0.00  0.00    +0.000 C 
BRANCH  23  24
ATOM     24  C   UNL     1      13.796  23.872  14.857  0.00  0.00    +0.000 C 
ATOM     25  C   UNL     1      14.934  22.850  14.789  0.00  0.00    +0.000 C 
BRANCH  25  26
ATOM     26  C   UNL     1      16.070  21.822  14.757  0.00  0.00    +0.000 C 
ATOM     27  C   UNL     1      17.197  20.787  14.689  0.00  0.00    +0.000 C 
BRANCH  27  28
ATOM     28  S   UNL     1      18.483  19.589  14.578  0.00  0.00    +0.000 S 
ATOM     29  O   UNL     1      19.515  20.570  15.050  0.00  0.00    +0.000 OA
BRANCH  28  30
ATOM     30  C   UNL     1      18.218  18.987  16.211  0.00  0.00    +0.000 C 
BRANCH  30  31
ATOM     31  C   UNL     1      17.996  18.440  17.626  0.00  0.00    +0.000 C 
ATOM     32  C   UNL     1      17.762  17.909  19.045  0.00  0.00    +0.000 C 
BRANCH  32  33
ATOM     33  C   UNL     1      17.535  17.410  20.404  0.00  0.00    +0.000 C 
ATOM     34  F   UNL     1      18.162  16.205  20.518  0.00  0.00    +0.000 F 
ATOM     35  F   UNL     1      16.204  17.152  20.535  0.00  0.00    +0.000 F 
BRANCH  33  36
ATOM     36  C   UNL     1      18.011  18.377  21.492  0.00  0.00    +0.000 C 
ATOM     37  F   UNL     1      17.206  19.465  21.594  0.00  0.00    +0.000 F 
ATOM     38  F   UNL     1      19.266  18.835  21.258  0.00  0.00    +0.000 F 
ATOM     39  F   UNL     1      18.031  17.788  22.716  0.00  0.00    +0.000 F 
ENDBRANCH  33  36
ENDBRANCH  32  33
ENDBRANCH  30  31
ENDBRANCH  28  30
ENDBRANCH  27  28
ENDBRANCH  25  26
ENDBRANCH  23  24
ENDBRANCH  22  23
ENDBRANCH  20  21
ENDBRANCH   8  19
BRANCH   6  40
ATOM     40  O   UNL     1       9.800  35.289  15.525  0.00  0.00    +0.000 OA
ATOM     41  H   UNL     1      10.469  35.551  14.867  0.00  0.00    +0.000 HD
ENDBRANCH   6  40
BRANCH  18  42
ATOM     42  O   UNL     1       0.680  29.598  15.835  0.00  0.00    +0.000 OA
ATOM     43  H   UNL     1       0.624  28.895  16.506  0.00  0.00    +0.000 HD
ENDBRANCH  18  42
TORSDOF 12
ENDMDL
MODEL 9
REMARK VINA RESULT:      -6.2     13.776     16.464
REMARK  Name = Fulvestrant.pdbqt.pdb
REMARK  12 active torsions:
REMARK  status: ('A' for Active; 'I' for Inactive)
REMARK    1  A    between atoms: C_6  and  O_40
REMARK    2  A    between atoms: C_8  and  C_19
REMARK    3  A    between atoms: C_18  and  O_42
REMARK    4  A    between atoms: C_20  and  C_21
REMARK    5  A    between atoms: C_22  and  C_23
REMARK    6  A    between atoms: C_23  and  C_24
REMARK    7  A    between atoms: C_25  and  C_26
REMARK    8  A    between atoms: C_27  and  S_28
REMARK    9  A    between atoms: S_28  and  C_30
REMARK   10  A    between atoms: C_30  and  C_31
REMARK   11  A    between atoms: C_32  and  C_33
REMARK   12  A    between atoms: C_33  and  C_36
REMARK                            x       y       z     vdW  Elec       q    Type
REMARK                         _______ _______ _______ _____ _____    ______ ____
ROOT
ATOM      1  C   UNL     1       8.452  31.830  15.884  0.00  0.00    +0.000 C 
ATOM      2  C   UNL     1       8.698  33.239  16.611  0.00  0.00    +0.000 C 
ATOM      3  C   UNL     1       7.120  31.147  15.824  0.00  0.00    +0.000 A 
ATOM      4  C   UNL     1       5.809  31.916  16.090  0.00  0.00    +0.000 A 
ATOM      5  C   UNL     1       7.387  33.871  16.706  0.00  0.00    +0.000 C 
ATOM      6  C   UNL     1       9.661  33.962  15.643  0.00  0.00    +0.000 C 
ATOM      7  C   UNL     1       9.313  31.803  14.739  0.00  0.00    +0.000 C 
ATOM      8  C   UNL     1       6.990  29.704  15.488  0.00  0.00    +0.000 A 
ATOM      9  C   UNL     1       6.034  33.259  16.475  0.00  0.00    +0.000 C 
ATOM     10  C   UNL     1      10.040  33.112  14.570  0.00  0.00    +0.000 C 
ATOM     11  C   UNL     1       9.385  32.980  17.976  0.00  0.00    +0.000 C 
ATOM     12  C   UNL     1       4.457  31.294  16.003  0.00  0.00    +0.000 A 
ATOM     13  C   UNL     1       5.630  29.310  15.447  0.00  0.00    +0.000 A 
ATOM     14  C   UNL     1       4.370  29.923  15.662  0.00  0.00    +0.000 A 
ATOM     15  C   UNL     1       3.281  32.000  16.244  0.00  0.00    +0.000 A 
ATOM     16  C   UNL     1       3.156  29.264  15.561  0.00  0.00    +0.000 A 
ATOM     17  C   UNL     1       2.050  31.350  16.145  0.00  0.00    +0.000 A 
ATOM     18  C   UNL     1       1.999  29.996  15.807  0.00  0.00    +0.000 A 
ENDROOT
BRANCH   8  19
ATOM     19  C   UNL     1       8.088  28.814  15.410  0.00  0.00    +0.000 C 
ATOM     20  C   UNL     1       9.264  27.837  15.317  0.00  0.00    +0.000 C 
BRANCH  20  21
ATOM     21  C   UNL     1      10.421  26.839  15.213  0.00  0.00    +0.000 C 
ATOM     22  C   UNL     1      11.593  25.856  15.134  0.00  0.00    +0.000 C 
BRANCH  22  23
ATOM     23  C   UNL     1      12.781  24.891  15.079  0.00  0.00    +0.000 C 
BRANCH  23  24
ATOM     24  C   UNL     1      13.982  23.943  14.997  0.00  0.00    +0.000 C 
ATOM     25  C   UNL     1      15.161  22.970  14.904  0.00  0.00    +0.000 C 
BRANCH  25  26
ATOM     26  C   UNL     1      16.318  21.970  14.805  0.00  0.00    +0.000 C 
ATOM     27  C   UNL     1      17.497  20.998  14.694  0.00  0.00    +0.000 C 
BRANCH  27  28
ATOM     28  S   UNL     1      18.870  19.907  14.553  0.00  0.00    +0.000 S 
ATOM     29  O   UNL     1      19.631  20.881  13.703  0.00  0.00    +0.000 OA
BRANCH  28  30
ATOM     30  C   UNL     1      19.636  20.497  16.025  0.00  0.00    +0.000 C 
BRANCH  30  31
ATOM     31  C   UNL     1      20.313  20.988  17.309  0.00  0.00    +0.000 C 
ATOM     32  C   UNL     1      20.979  21.496  18.593  0.00  0.00    +0.000 C 
BRANCH  32  33
ATOM     33  C   UNL     1      21.611  21.989  19.819  0.00  0.00    +0.000 C 
ATOM     34  F   UNL     1      22.962  21.917  19.654  0.00  0.00    +0.000 F 
ATOM     35  F   UNL     1      21.311  21.117  20.822  0.00  0.00    +0.000 F 
BRANCH  33  36
ATOM     36  C   UNL     1      21.184  23.413  20.191  0.00  0.00    +0.000 C 
ATOM     37  F   UNL     1      21.878  23.891  21.256  0.00  0.00    +0.000 F 
ATOM     38  F   UNL     1      19.869  23.485  20.513  0.00  0.00    +0.000 F 
ATOM     39  F   UNL     1      21.386  24.283  19.168  0.00  0.00    +0.000 F 
ENDBRANCH  33  36
ENDBRANCH  32  33
ENDBRANCH  30  31
ENDBRANCH  28  30
ENDBRANCH  27  28
ENDBRANCH  25  26
ENDBRANCH  23  24
ENDBRANCH  22  23
ENDBRANCH  20  21
ENDBRANCH   8  19
BRANCH   6  40
ATOM     40  O   UNL     1       9.738  35.337  15.555  0.00  0.00    +0.000 OA
ATOM     41  H   UNL     1       9.662  35.645  14.635  0.00  0.00    +0.000 HD
ENDBRANCH   6  40
BRANCH  18  42
ATOM     42  O   UNL     1       0.771  29.402  15.723  0.00  0.00    +0.000 OA
ATOM     43  H   UNL     1       0.901  28.447  15.584  0.00  0.00    +0.000 HD
ENDBRANCH  18  42
TORSDOF 12
ENDMDL
