REMARK  Name = Gefitinib.pdbqt.pdb
REMARK  6 active torsions:
REMARK  status: ('A' for Active; 'I' for Inactive)
REMARK    1  A    between atoms: C_3  and  O_11
REMARK    2  A    between atoms: C_6  and  O_21
REMARK    3  A    between atoms: O_11  and  C_12
REMARK    4  A    between atoms: C_13  and  C_14
REMARK    5  A    between atoms: C_14  and  N_15
REMARK    6  A    between atoms: N_23  and  C_25
REMARK                            x       y       z     vdW  Elec       q    Type
REMARK                         _______ _______ _______ _____ _____    ______ ____
ROOT
ATOM      1  N   UNL     1       1.750  -4.399   0.648  0.00  0.00    +0.000 NA
ATOM      2  N   UNL     1      -0.449  -3.482   0.623  0.00  0.00    +0.000 NA
ATOM      3  C   UNL     1       3.415  -0.646  -0.021  0.00  0.00    +0.000 A 
ATOM      4  C   UNL     1       1.443  -2.050   0.320  0.00  0.00    +0.000 A 
ATOM      5  C   UNL     1       2.032  -0.795   0.088  0.00  0.00    +0.000 A 
ATOM      6  C   UNL     1       4.227  -1.773   0.109  0.00  0.00    +0.000 A 
ATOM      7  C   UNL     1       2.253  -3.182   0.440  0.00  0.00    +0.000 A 
ATOM      8  C   UNL     1       3.628  -3.018   0.335  0.00  0.00    +0.000 A 
ATOM      9  C   UNL     1       0.061  -2.255   0.431  0.00  0.00    +0.000 A 
ATOM     10  C   UNL     1       0.417  -4.497   0.725  0.00  0.00    +0.000 A 
ATOM     11  N   UNL     1      -0.812  -1.145   0.295  0.00  0.00    +0.000 N 
ATOM     12  H   UNL     1      -0.487  -0.355   0.844  0.00  0.00    +0.000 HD
ENDROOT
BRANCH  11  13
ATOM     13  C   UNL     1      -2.219  -1.158   0.172  0.00  0.00    +0.000 A 
ATOM     14  C   UNL     1      -2.925   0.038   0.348  0.00  0.00    +0.000 A 
ATOM     15  C   UNL     1      -4.300   0.096   0.134  0.00  0.00    +0.000 A 
ATOM     16 CL   UNL     1      -5.117   1.584   0.398  0.00  0.00    +0.000 Cl
ATOM     17  C   UNL     1      -4.983  -1.039  -0.288  0.00  0.00    +0.000 A 
ATOM     18  F   UNL     1      -6.307  -1.003  -0.499  0.00  0.00    +0.000 F 
ATOM     19  C   UNL     1      -4.300  -2.228  -0.507  0.00  0.00    +0.000 A 
ATOM     20  C   UNL     1      -2.924  -2.274  -0.293  0.00  0.00    +0.000 A 
ENDBRANCH  11  13
BRANCH   6  21
ATOM     21  O   UNL     1       5.584  -1.582  -0.006  0.00  0.00    +0.000 OA
ATOM     22  C   UNL     1       6.376  -2.719   0.195  0.00  0.00    +0.000 C 
ENDBRANCH   6  21
BRANCH   3  23
ATOM     23  O   UNL     1       4.028   0.563  -0.247  0.00  0.00    +0.000 OA
BRANCH  23  24
ATOM     24  C   UNL     1       3.194   1.588  -0.407  0.00  0.00    +0.000 C 
ATOM     25  C   UNL     1       2.220   2.757  -0.590  0.00  0.00    +0.000 C 
BRANCH  25  26
ATOM     26  C   UNL     1       1.219   3.904  -0.766  0.00  0.00    +0.000 C 
BRANCH  26  27
ATOM     27  N   UNL     1       0.257   4.985  -0.929  0.00  0.00    +0.000 N 
ATOM     28  C   UNL     1      -1.007   4.361  -1.426  0.00  0.00    +0.000 C 
ATOM     29  C   UNL     1      -2.367   4.172  -0.678  0.00  0.00    +0.000 C 
ATOM     30  O   UNL     1      -2.820   4.473   0.559  0.00  0.00    +0.000 OA
ATOM     31  C   UNL     1      -1.680   5.035   1.008  0.00  0.00    +0.000 C 
ATOM     32  C   UNL     1      -0.257   5.311   0.435  0.00  0.00    +0.000 C 
ENDBRANCH  26  27
ENDBRANCH  25  26
ENDBRANCH  23  24
ENDBRANCH   3  23
TORSDOF 6
