MODEL 1
REMARK VINA RESULT:      -6.4      0.000      0.000
REMARK  Name = Gefitinib.pdbqt.pdb
REMARK  6 active torsions:
REMARK  status: ('A' for Active; 'I' for Inactive)
REMARK    1  A    between atoms: C_3  and  O_11
REMARK    2  A    between atoms: C_6  and  O_21
REMARK    3  A    between atoms: O_11  and  C_12
REMARK    4  A    between atoms: C_13  and  C_14
REMARK    5  A    between atoms: C_14  and  N_15
REMARK    6  A    between atoms: N_23  and  C_25
REMARK                            x       y       z     vdW  Elec       q    Type
REMARK                         _______ _______ _______ _____ _____    ______ ____
ROOT
ATOM      1  N   UNL     1      11.636  27.322  18.841  0.00  0.00    +0.000 NA
ATOM      2  N   UNL     1      11.367  28.941  20.569  0.00  0.00    +0.000 NA
ATOM      3  C   UNL     1       9.549  29.717  16.155  0.00  0.00    +0.000 A 
ATOM      4  C   UNL     1      10.472  29.362  18.391  0.00  0.00    +0.000 A 
ATOM      5  C   UNL     1       9.765  30.148  17.464  0.00  0.00    +0.000 A 
ATOM      6  C   UNL     1      10.053  28.477  15.762  0.00  0.00    +0.000 A 
ATOM      7  C   UNL     1      10.969  28.116  18.003  0.00  0.00    +0.000 A 
ATOM      8  C   UNL     1      10.751  27.702  16.695  0.00  0.00    +0.000 A 
ATOM      9  C   UNL     1      10.711  29.745  19.718  0.00  0.00    +0.000 A 
ATOM     10  C   UNL     1      11.801  27.768  20.093  0.00  0.00    +0.000 A 
ATOM     11  N   UNL     1      10.210  30.992  20.174  0.00  0.00    +0.000 N 
ATOM     12  H   UNL     1      10.412  31.732  19.510  0.00  0.00    +0.000 HD
ENDROOT
BRANCH  11  13
ATOM     13  C   UNL     1      10.162  31.473  21.501  0.00  0.00    +0.000 A 
ATOM     14  C   UNL     1      10.937  32.587  21.846  0.00  0.00    +0.000 A 
ATOM     15  C   UNL     1      10.843  33.160  23.112  0.00  0.00    +0.000 A 
ATOM     16 CL   UNL     1      11.844  34.505  23.488  0.00  0.00    +0.000 Cl
ATOM     17  C   UNL     1       9.948  32.643  24.041  0.00  0.00    +0.000 A 
ATOM     18  F   UNL     1       9.843  33.182  25.265  0.00  0.00    +0.000 F 
ATOM     19  C   UNL     1       9.140  31.564  23.711  0.00  0.00    +0.000 A 
ATOM     20  C   UNL     1       9.239  30.999  22.441  0.00  0.00    +0.000 A 
ENDBRANCH  11  13
BRANCH   6  21
ATOM     21  O   UNL     1       9.817  28.090  14.463  0.00  0.00    +0.000 OA
ATOM     22  C   UNL     1       8.953  27.000  14.303  0.00  0.00    +0.000 C 
ENDBRANCH   6  21
BRANCH   3  23
ATOM     23  O   UNL     1       8.864  30.456  15.221  0.00  0.00    +0.000 OA
BRANCH  23  24
ATOM     24  C   UNL     1       7.631  30.805  15.583  0.00  0.00    +0.000 C 
ATOM     25  C   UNL     1       6.214  31.198  16.015  0.00  0.00    +0.000 C 
BRANCH  25  26
ATOM     26  C   UNL     1       4.804  31.578  16.480  0.00  0.00    +0.000 C 
BRANCH  26  27
ATOM     27  N   UNL     1       3.465  31.951  16.913  0.00  0.00    +0.000 N 
ATOM     28  C   UNL     1       3.061  33.128  16.085  0.00  0.00    +0.000 C 
ATOM     29  C   UNL     1       1.984  33.208  14.954  0.00  0.00    +0.000 C 
ATOM     30  O   UNL     1       1.136  32.323  14.386  0.00  0.00    +0.000 OA
ATOM     31  C   UNL     1       1.501  31.260  15.132  0.00  0.00    +0.000 C 
ATOM     32  C   UNL     1       2.523  30.983  16.275  0.00  0.00    +0.000 C 
ENDBRANCH  26  27
ENDBRANCH  25  26
ENDBRANCH  23  24
ENDBRANCH   3  23
TORSDOF 6
ENDMDL
MODEL 2
REMARK VINA RESULT:      -6.2      3.079      4.005
REMARK  Name = Gefitinib.pdbqt.pdb
REMARK  6 active torsions:
REMARK  status: ('A' for Active; 'I' for Inactive)
REMARK    1  A    between atoms: C_3  and  O_11
REMARK    2  A    between atoms: C_6  and  O_21
REMARK    3  A    between atoms: O_11  and  C_12
REMARK    4  A    between atoms: C_13  and  C_14
REMARK    5  A    between atoms: C_14  and  N_15
REMARK    6  A    between atoms: N_23  and  C_25
REMARK                            x       y       z     vdW  Elec       q    Type
REMARK                         _______ _______ _______ _____ _____    ______ ____
ROOT
ATOM      1  N   UNL     1      11.886  27.382  18.885  0.00  0.00    +0.000 NA
ATOM      2  N   UNL     1      11.552  28.917  20.676  0.00  0.00    +0.000 NA
ATOM      3  C   UNL     1       9.420  29.621  16.393  0.00  0.00    +0.000 A 
ATOM      4  C   UNL     1      10.498  29.303  18.564  0.00  0.00    +0.000 A 
ATOM      5  C   UNL     1       9.664  30.037  17.702  0.00  0.00    +0.000 A 
ATOM      6  C   UNL     1      10.024  28.451  15.933  0.00  0.00    +0.000 A 
ATOM      7  C   UNL     1      11.096  28.125  18.109  0.00  0.00    +0.000 A 
ATOM      8  C   UNL     1      10.848  27.727  16.802  0.00  0.00    +0.000 A 
ATOM      9  C   UNL     1      10.771  29.673  19.888  0.00  0.00    +0.000 A 
ATOM     10  C   UNL     1      12.075  27.809  20.139  0.00  0.00    +0.000 A 
ATOM     11  N   UNL     1      10.173  30.848  20.411  0.00  0.00    +0.000 N 
ATOM     12  H   UNL     1      10.261  31.624  19.761  0.00  0.00    +0.000 HD
ENDROOT
BRANCH  11  13
ATOM     13  C   UNL     1      10.151  31.287  21.753  0.00  0.00    +0.000 A 
ATOM     14  C   UNL     1      10.947  32.377  22.123  0.00  0.00    +0.000 A 
ATOM     15  C   UNL     1      10.880  32.910  23.408  0.00  0.00    +0.000 A 
ATOM     16 CL   UNL     1      11.906  34.227  23.813  0.00  0.00    +0.000 Cl
ATOM     17  C   UNL     1       9.991  32.375  24.333  0.00  0.00    +0.000 A 
ATOM     18  F   UNL     1       9.912  32.874  25.575  0.00  0.00    +0.000 F 
ATOM     19  C   UNL     1       9.162  31.318  23.980  0.00  0.00    +0.000 A 
ATOM     20  C   UNL     1       9.235  30.795  22.691  0.00  0.00    +0.000 A 
ENDBRANCH  11  13
BRANCH   6  21
ATOM     21  O   UNL     1       9.756  28.077  14.637  0.00  0.00    +0.000 OA
ATOM     22  C   UNL     1       8.865  27.007  14.486  0.00  0.00    +0.000 C 
ENDBRANCH   6  21
BRANCH   3  23
ATOM     23  O   UNL     1       8.612  30.311  15.521  0.00  0.00    +0.000 OA
BRANCH  23  24
ATOM     24  C   UNL     1       8.456  31.601  15.809  0.00  0.00    +0.000 C 
ATOM     25  C   UNL     1       8.291  33.086  16.151  0.00  0.00    +0.000 C 
BRANCH  25  26
ATOM     26  C   UNL     1       8.156  34.569  16.513  0.00  0.00    +0.000 C 
BRANCH  26  27
ATOM     27  N   UNL     1       8.030  35.982  16.842  0.00  0.00    +0.000 N 
ATOM     28  C   UNL     1       9.370  36.428  17.332  0.00  0.00    +0.000 C 
ATOM     29  C   UNL     1      10.401  37.377  16.638  0.00  0.00    +0.000 C 
ATOM     30  O   UNL     1      10.435  38.049  15.466  0.00  0.00    +0.000 OA
ATOM     31  C   UNL     1       9.227  37.646  15.024  0.00  0.00    +0.000 C 
ATOM     32  C   UNL     1       8.081  36.730  15.550  0.00  0.00    +0.000 C 
ENDBRANCH  26  27
ENDBRANCH  25  26
ENDBRANCH  23  24
ENDBRANCH   3  23
TORSDOF 6
ENDMDL
MODEL 3
REMARK VINA RESULT:      -5.8     15.942     19.497
REMARK  Name = Gefitinib.pdbqt.pdb
REMARK  6 active torsions:
REMARK  status: ('A' for Active; 'I' for Inactive)
REMARK    1  A    between atoms: C_3  and  O_11
REMARK    2  A    between atoms: C_6  and  O_21
REMARK    3  A    between atoms: O_11  and  C_12
REMARK    4  A    between atoms: C_13  and  C_14
REMARK    5  A    between atoms: C_14  and  N_15
REMARK    6  A    between atoms: N_23  and  C_25
REMARK                            x       y       z     vdW  Elec       q    Type
REMARK                         _______ _______ _______ _____ _____    ______ ____
ROOT
ATOM      1  N   UNL     1      -2.578  18.491   6.158  0.00  0.00    +0.000 NA
ATOM      2  N   UNL     1      -0.656  18.635   7.559  0.00  0.00    +0.000 NA
ATOM      3  C   UNL     1      -1.396  21.874   4.044  0.00  0.00    +0.000 A 
ATOM      4  C   UNL     1      -0.984  20.242   5.817  0.00  0.00    +0.000 A 
ATOM      5  C   UNL     1      -0.612  21.386   5.090  0.00  0.00    +0.000 A 
ATOM      6  C   UNL     1      -2.574  21.202   3.714  0.00  0.00    +0.000 A 
ATOM      7  C   UNL     1      -2.168  19.573   5.496  0.00  0.00    +0.000 A 
ATOM      8  C   UNL     1      -2.936  20.067   4.449  0.00  0.00    +0.000 A 
ATOM      9  C   UNL     1      -0.237  19.715   6.879  0.00  0.00    +0.000 A 
ATOM     10  C   UNL     1      -1.804  18.071   7.167  0.00  0.00    +0.000 A 
ATOM     11  N   UNL     1       0.964  20.365   7.265  0.00  0.00    +0.000 N 
ATOM     12  H   UNL     1       1.535  20.588   6.455  0.00  0.00    +0.000 HD
ENDROOT
BRANCH  11  13
ATOM     13  C   UNL     1       1.749  20.127   8.414  0.00  0.00    +0.000 A 
ATOM     14  C   UNL     1       3.089  19.757   8.254  0.00  0.00    +0.000 A 
ATOM     15  C   UNL     1       3.929  19.613   9.355  0.00  0.00    +0.000 A 
ATOM     16 CL   UNL     1       5.556  19.125   9.098  0.00  0.00    +0.000 Cl
ATOM     17  C   UNL     1       3.444  19.867  10.633  0.00  0.00    +0.000 A 
ATOM     18  F   UNL     1       4.238  19.733  11.706  0.00  0.00    +0.000 F 
ATOM     19  C   UNL     1       2.129  20.272  10.817  0.00  0.00    +0.000 A 
ATOM     20  C   UNL     1       1.298  20.416   9.708  0.00  0.00    +0.000 A 
ENDBRANCH  11  13
BRANCH   6  21
ATOM     21  O   UNL     1      -3.317  21.717   2.678  0.00  0.00    +0.000 OA
ATOM     22  C   UNL     1      -4.705  21.585   2.803  0.00  0.00    +0.000 C 
ENDBRANCH   6  21
BRANCH   3  23
ATOM     23  O   UNL     1      -1.067  22.988   3.311  0.00  0.00    +0.000 OA
BRANCH  23  24
ATOM     24  C   UNL     1      -0.306  22.747   2.245  0.00  0.00    +0.000 C 
ATOM     25  C   UNL     1       0.570  22.487   1.015  0.00  0.00    +0.000 C 
BRANCH  25  26
ATOM     26  C   UNL     1       1.453  22.262  -0.218  0.00  0.00    +0.000 C 
BRANCH  26  27
ATOM     27  N   UNL     1       2.291  22.034  -1.386  0.00  0.00    +0.000 N 
ATOM     28  C   UNL     1       1.747  22.899  -2.478  0.00  0.00    +0.000 C 
ATOM     29  C   UNL     1       2.375  24.180  -3.118  0.00  0.00    +0.000 C 
ATOM     30  O   UNL     1       3.513  24.881  -2.917  0.00  0.00    +0.000 OA
ATOM     31  C   UNL     1       4.003  24.102  -1.933  0.00  0.00    +0.000 C 
ATOM     32  C   UNL     1       3.544  22.819  -1.176  0.00  0.00    +0.000 C 
ENDBRANCH  26  27
ENDBRANCH  25  26
ENDBRANCH  23  24
ENDBRANCH   3  23
TORSDOF 6
ENDMDL
MODEL 4
REMARK VINA RESULT:      -5.8     33.373     35.776
REMARK  Name = Gefitinib.pdbqt.pdb
REMARK  6 active torsions:
REMARK  status: ('A' for Active; 'I' for Inactive)
REMARK    1  A    between atoms: C_3  and  O_11
REMARK    2  A    between atoms: C_6  and  O_21
REMARK    3  A    between atoms: O_11  and  C_12
REMARK    4  A    between atoms: C_13  and  C_14
REMARK    5  A    between atoms: C_14  and  N_15
REMARK    6  A    between atoms: N_23  and  C_25
REMARK                            x       y       z     vdW  Elec       q    Type
REMARK                         _______ _______ _______ _____ _____    ______ ____
ROOT
ATOM      1  N   UNL     1     -16.782  46.720  -0.352  0.00  0.00    +0.000 NA
ATOM      2  N   UNL     1     -15.927  47.658  -2.369  0.00  0.00    +0.000 NA
ATOM      3  C   UNL     1     -14.816  43.129  -1.089  0.00  0.00    +0.000 A 
ATOM      4  C   UNL     1     -15.344  45.421  -1.754  0.00  0.00    +0.000 A 
ATOM      5  C   UNL     1     -14.696  44.195  -1.981  0.00  0.00    +0.000 A 
ATOM      6  C   UNL     1     -15.595  43.292   0.056  0.00  0.00    +0.000 A 
ATOM      7  C   UNL     1     -16.134  45.584  -0.614  0.00  0.00    +0.000 A 
ATOM      8  C   UNL     1     -16.240  44.517   0.268  0.00  0.00    +0.000 A 
ATOM      9  C   UNL     1     -15.261  46.520  -2.621  0.00  0.00    +0.000 A 
ATOM     10  C   UNL     1     -16.654  47.708  -1.246  0.00  0.00    +0.000 A 
ATOM     11  N   UNL     1     -14.491  46.404  -3.807  0.00  0.00    +0.000 N 
ATOM     12  H   UNL     1     -13.586  45.986  -3.615  0.00  0.00    +0.000 HD
ENDROOT
BRANCH  11  13
ATOM     13  C   UNL     1     -14.438  47.300  -4.897  0.00  0.00    +0.000 A 
ATOM     14  C   UNL     1     -13.275  48.052  -5.100  0.00  0.00    +0.000 A 
ATOM     15  C   UNL     1     -13.136  48.869  -6.219  0.00  0.00    +0.000 A 
ATOM     16 CL   UNL     1     -11.699  49.793  -6.397  0.00  0.00    +0.000 Cl
ATOM     17  C   UNL     1     -14.152  48.922  -7.167  0.00  0.00    +0.000 A 
ATOM     18  F   UNL     1     -14.037  49.703  -8.251  0.00  0.00    +0.000 F 
ATOM     19  C   UNL     1     -15.300  48.156  -7.009  0.00  0.00    +0.000 A 
ATOM     20  C   UNL     1     -15.426  47.340  -5.888  0.00  0.00    +0.000 A 
ENDBRANCH  11  13
BRANCH   6  21
ATOM     21  O   UNL     1     -15.688  42.217   0.908  0.00  0.00    +0.000 OA
ATOM     22  C   UNL     1     -16.566  42.371   1.988  0.00  0.00    +0.000 C 
ENDBRANCH   6  21
BRANCH   3  23
ATOM     23  O   UNL     1     -14.198  41.915  -1.276  0.00  0.00    +0.000 OA
BRANCH  23  24
ATOM     24  C   UNL     1     -14.403  41.365  -2.471  0.00  0.00    +0.000 C 
ATOM     25  C   UNL     1     -14.654  40.742  -3.848  0.00  0.00    +0.000 C 
BRANCH  25  26
ATOM     26  C   UNL     1     -14.930  40.142  -5.231  0.00  0.00    +0.000 C 
BRANCH  26  27
ATOM     27  N   UNL     1     -15.205  39.564  -6.539  0.00  0.00    +0.000 N 
ATOM     28  C   UNL     1     -14.370  40.319  -7.523  0.00  0.00    +0.000 C 
ATOM     29  C   UNL     1     -13.117  39.833  -8.322  0.00  0.00    +0.000 C 
ATOM     30  O   UNL     1     -12.421  38.676  -8.385  0.00  0.00    +0.000 OA
ATOM     31  C   UNL     1     -13.172  37.996  -7.497  0.00  0.00    +0.000 C 
ATOM     32  C   UNL     1     -14.425  38.292  -6.618  0.00  0.00    +0.000 C 
ENDBRANCH  26  27
ENDBRANCH  25  26
ENDBRANCH  23  24
ENDBRANCH   3  23
TORSDOF 6
ENDMDL
MODEL 5
REMARK VINA RESULT:      -5.7     16.182     17.883
REMARK  Name = Gefitinib.pdbqt.pdb
REMARK  6 active torsions:
REMARK  status: ('A' for Active; 'I' for Inactive)
REMARK    1  A    between atoms: C_3  and  O_11
REMARK    2  A    between atoms: C_6  and  O_21
REMARK    3  A    between atoms: O_11  and  C_12
REMARK    4  A    between atoms: C_13  and  C_14
REMARK    5  A    between atoms: C_14  and  N_15
REMARK    6  A    between atoms: N_23  and  C_25
REMARK                            x       y       z     vdW  Elec       q    Type
REMARK                         _______ _______ _______ _____ _____    ______ ____
ROOT
ATOM      1  N   UNL     1       7.108  17.059   9.541  0.00  0.00    +0.000 NA
ATOM      2  N   UNL     1       6.186  15.223  10.748  0.00  0.00    +0.000 NA
ATOM      3  C   UNL     1       3.632  19.277  10.093  0.00  0.00    +0.000 A 
ATOM      4  C   UNL     1       4.904  17.222  10.457  0.00  0.00    +0.000 A 
ATOM      5  C   UNL     1       3.739  17.991  10.623  0.00  0.00    +0.000 A 
ATOM      6  C   UNL     1       4.711  19.808   9.387  0.00  0.00    +0.000 A 
ATOM      7  C   UNL     1       5.983  17.747   9.741  0.00  0.00    +0.000 A 
ATOM      8  C   UNL     1       5.864  19.030   9.224  0.00  0.00    +0.000 A 
ATOM      9  C   UNL     1       5.061  15.924  10.963  0.00  0.00    +0.000 A 
ATOM     10  C   UNL     1       7.158  15.822  10.050  0.00  0.00    +0.000 A 
ATOM     11  N   UNL     1       3.990  15.331  11.679  0.00  0.00    +0.000 N 
ATOM     12  H   UNL     1       3.607  15.975  12.364  0.00  0.00    +0.000 HD
ENDROOT
BRANCH  11  13
ATOM     13  C   UNL     1       3.862  13.986  12.092  0.00  0.00    +0.000 A 
ATOM     14  C   UNL     1       2.772  13.238  11.632  0.00  0.00    +0.000 A 
ATOM     15  C   UNL     1       2.659  11.881  11.926  0.00  0.00    +0.000 A 
ATOM     16 CL   UNL     1       1.282  11.023  11.362  0.00  0.00    +0.000 Cl
ATOM     17  C   UNL     1       3.654  11.248  12.663  0.00  0.00    +0.000 A 
ATOM     18  F   UNL     1       3.563   9.943  12.956  0.00  0.00    +0.000 F 
ATOM     19  C   UNL     1       4.765  11.959  13.098  0.00  0.00    +0.000 A 
ATOM     20  C   UNL     1       4.869  13.315  12.795  0.00  0.00    +0.000 A 
ENDBRANCH  11  13
BRANCH   6  21
ATOM     21  O   UNL     1       4.563  21.078   8.880  0.00  0.00    +0.000 OA
ATOM     22  C   UNL     1       4.747  21.206   7.498  0.00  0.00    +0.000 C 
ENDBRANCH   6  21
BRANCH   3  23
ATOM     23  O   UNL     1       2.511  20.059  10.234  0.00  0.00    +0.000 OA
BRANCH  23  24
ATOM     24  C   UNL     1       1.706  20.074   9.174  0.00  0.00    +0.000 C 
ATOM     25  C   UNL     1       0.777  20.108   7.955  0.00  0.00    +0.000 C 
BRANCH  25  26
ATOM     26  C   UNL     1      -0.151  20.178   6.738  0.00  0.00    +0.000 C 
BRANCH  26  27
ATOM     27  N   UNL     1      -1.022  20.249   5.573  0.00  0.00    +0.000 N 
ATOM     28  C   UNL     1      -2.175  19.338   5.845  0.00  0.00    +0.000 C 
ATOM     29  C   UNL     1      -3.666  19.705   6.139  0.00  0.00    +0.000 C 
ATOM     30  O   UNL     1      -4.356  20.862   6.245  0.00  0.00    +0.000 OA
ATOM     31  C   UNL     1      -3.316  21.684   6.001  0.00  0.00    +0.000 C 
ATOM     32  C   UNL     1      -1.797  21.520   5.694  0.00  0.00    +0.000 C 
ENDBRANCH  26  27
ENDBRANCH  25  26
ENDBRANCH  23  24
ENDBRANCH   3  23
TORSDOF 6
ENDMDL
MODEL 6
REMARK VINA RESULT:      -5.7     22.622     24.235
REMARK  Name = Gefitinib.pdbqt.pdb
REMARK  6 active torsions:
REMARK  status: ('A' for Active; 'I' for Inactive)
REMARK    1  A    between atoms: C_3  and  O_11
REMARK    2  A    between atoms: C_6  and  O_21
REMARK    3  A    between atoms: O_11  and  C_12
REMARK    4  A    between atoms: C_13  and  C_14
REMARK    5  A    between atoms: C_14  and  N_15
REMARK    6  A    between atoms: N_23  and  C_25
REMARK                            x       y       z     vdW  Elec       q    Type
REMARK                         _______ _______ _______ _____ _____    ______ ____
ROOT
ATOM      1  N   UNL     1      11.821  50.150  14.264  0.00  0.00    +0.000 NA
ATOM      2  N   UNL     1      11.836  48.578  12.474  0.00  0.00    +0.000 NA
ATOM      3  C   UNL     1      14.869  52.344  12.475  0.00  0.00    +0.000 A 
ATOM      4  C   UNL     1      13.336  50.441  12.436  0.00  0.00    +0.000 A 
ATOM      5  C   UNL     1      14.369  51.198  11.857  0.00  0.00    +0.000 A 
ATOM      6  C   UNL     1      14.323  52.746  13.695  0.00  0.00    +0.000 A 
ATOM      7  C   UNL     1      12.794  50.835  13.662  0.00  0.00    +0.000 A 
ATOM      8  C   UNL     1      13.297  51.981  14.263  0.00  0.00    +0.000 A 
ATOM      9  C   UNL     1      12.803  49.279  11.861  0.00  0.00    +0.000 A 
ATOM     10  C   UNL     1      11.387  49.045  13.645  0.00  0.00    +0.000 A 
ATOM     11  N   UNL     1      13.330  48.819  10.627  0.00  0.00    +0.000 N 
ATOM     12  H   UNL     1      13.421  49.580   9.961  0.00  0.00    +0.000 HD
ENDROOT
BRANCH  11  13
ATOM     13  C   UNL     1      13.084  47.585   9.985  0.00  0.00    +0.000 A 
ATOM     14  C   UNL     1      14.017  46.550  10.128  0.00  0.00    +0.000 A 
ATOM     15  C   UNL     1      13.768  45.285   9.602  0.00  0.00    +0.000 A 
ATOM     16 CL   UNL     1      14.965  44.065   9.780  0.00  0.00    +0.000 Cl
ATOM     17  C   UNL     1      12.567  45.030   8.950  0.00  0.00    +0.000 A 
ATOM     18  F   UNL     1      12.310  43.818   8.436  0.00  0.00    +0.000 F 
ATOM     19  C   UNL     1      11.610  46.028   8.828  0.00  0.00    +0.000 A 
ATOM     20  C   UNL     1      11.867  47.290   9.361  0.00  0.00    +0.000 A 
ENDBRANCH  11  13
BRANCH   6  21
ATOM     21  O   UNL     1      14.845  53.881  14.270  0.00  0.00    +0.000 OA
ATOM     22  C   UNL     1      14.753  53.952  15.665  0.00  0.00    +0.000 C 
ENDBRANCH   6  21
BRANCH   3  23
ATOM     23  O   UNL     1      15.878  53.110  11.942  0.00  0.00    +0.000 OA
BRANCH  23  24
ATOM     24  C   UNL     1      15.505  53.898  10.935  0.00  0.00    +0.000 C 
ATOM     25  C   UNL     1      15.081  54.818   9.786  0.00  0.00    +0.000 C 
BRANCH  25  26
ATOM     26  C   UNL     1      14.673  55.766   8.653  0.00  0.00    +0.000 C 
BRANCH  26  27
ATOM     27  N   UNL     1      14.298  56.666   7.571  0.00  0.00    +0.000 N 
ATOM     28  C   UNL     1      14.715  58.038   7.994  0.00  0.00    +0.000 C 
ATOM     29  C   UNL     1      15.869  58.930   7.428  0.00  0.00    +0.000 C 
ATOM     30  O   UNL     1      16.800  58.777   6.461  0.00  0.00    +0.000 OA
ATOM     31  C   UNL     1      16.425  57.539   6.081  0.00  0.00    +0.000 C 
ATOM     32  C   UNL     1      15.333  56.511   6.506  0.00  0.00    +0.000 C 
ENDBRANCH  26  27
ENDBRANCH  25  26
ENDBRANCH  23  24
ENDBRANCH   3  23
TORSDOF 6
ENDMDL
MODEL 7
REMARK VINA RESULT:      -5.6     16.129     19.659
REMARK  Name = Gefitinib.pdbqt.pdb
REMARK  6 active torsions:
REMARK  status: ('A' for Active; 'I' for Inactive)
REMARK    1  A    between atoms: C_3  and  O_11
REMARK    2  A    between atoms: C_6  and  O_21
REMARK    3  A    between atoms: O_11  and  C_12
REMARK    4  A    between atoms: C_13  and  C_14
REMARK    5  A    between atoms: C_14  and  N_15
REMARK    6  A    between atoms: N_23  and  C_25
REMARK                            x       y       z     vdW  Elec       q    Type
REMARK                         _______ _______ _______ _____ _____    ______ ____
ROOT
ATOM      1  N   UNL     1      -2.946  18.690   5.907  0.00  0.00    +0.000 NA
ATOM      2  N   UNL     1      -1.059  18.631   7.361  0.00  0.00    +0.000 NA
ATOM      3  C   UNL     1      -1.276  21.815   3.727  0.00  0.00    +0.000 A 
ATOM      4  C   UNL     1      -1.128  20.205   5.561  0.00  0.00    +0.000 A 
ATOM      5  C   UNL     1      -0.591  21.266   4.811  0.00  0.00    +0.000 A 
ATOM      6  C   UNL     1      -2.523  21.292   3.382  0.00  0.00    +0.000 A 
ATOM      7  C   UNL     1      -2.381  19.687   5.224  0.00  0.00    +0.000 A 
ATOM      8  C   UNL     1      -3.050  20.239   4.140  0.00  0.00    +0.000 A 
ATOM      9  C   UNL     1      -0.485  19.623   6.661  0.00  0.00    +0.000 A 
ATOM     10  C   UNL     1      -2.261  18.209   6.951  0.00  0.00    +0.000 A 
ATOM     11  N   UNL     1       0.780  20.124   7.063  0.00  0.00    +0.000 N 
ATOM     12  H   UNL     1       1.397  20.242   6.264  0.00  0.00    +0.000 HD
ENDROOT
BRANCH  11  13
ATOM     13  C   UNL     1       1.497  19.825   8.242  0.00  0.00    +0.000 A 
ATOM     14  C   UNL     1       2.561  18.918   8.176  0.00  0.00    +0.000 A 
ATOM     15  C   UNL     1       3.362  18.671   9.289  0.00  0.00    +0.000 A 
ATOM     16 CL   UNL     1       4.632  17.522   9.156  0.00  0.00    +0.000 Cl
ATOM     17  C   UNL     1       3.125  19.353  10.477  0.00  0.00    +0.000 A 
ATOM     18  F   UNL     1       3.885  19.129  11.559  0.00  0.00    +0.000 F 
ATOM     19  C   UNL     1       2.100  20.286  10.558  0.00  0.00    +0.000 A 
ATOM     20  C   UNL     1       1.307  20.528   9.438  0.00  0.00    +0.000 A 
ENDBRANCH  11  13
BRANCH   6  21
ATOM     21  O   UNL     1      -3.165  21.863   2.308  0.00  0.00    +0.000 OA
ATOM     22  C   UNL     1      -4.563  21.888   2.380  0.00  0.00    +0.000 C 
ENDBRANCH   6  21
BRANCH   3  23
ATOM     23  O   UNL     1      -0.784  22.851   2.970  0.00  0.00    +0.000 OA
BRANCH  23  24
ATOM     24  C   UNL     1       0.350  22.580   2.327  0.00  0.00    +0.000 C 
ATOM     25  C   UNL     1       1.655  22.252   1.595  0.00  0.00    +0.000 C 
BRANCH  25  26
ATOM     26  C   UNL     1       2.959  21.891   0.875  0.00  0.00    +0.000 C 
BRANCH  26  27
ATOM     27  N   UNL     1       4.196  21.559   0.181  0.00  0.00    +0.000 N 
ATOM     28  C   UNL     1       5.188  21.183   1.234  0.00  0.00    +0.000 C 
ATOM     29  C   UNL     1       5.787  19.776   1.559  0.00  0.00    +0.000 C 
ATOM     30  O   UNL     1       5.622  18.534   1.052  0.00  0.00    +0.000 OA
ATOM     31  C   UNL     1       4.727  18.872   0.103  0.00  0.00    +0.000 C 
ATOM     32  C   UNL     1       4.024  20.181  -0.368  0.00  0.00    +0.000 C 
ENDBRANCH  26  27
ENDBRANCH  25  26
ENDBRANCH  23  24
ENDBRANCH   3  23
TORSDOF 6
ENDMDL
MODEL 8
REMARK VINA RESULT:      -5.6     36.051     39.200
REMARK  Name = Gefitinib.pdbqt.pdb
REMARK  6 active torsions:
REMARK  status: ('A' for Active; 'I' for Inactive)
REMARK    1  A    between atoms: C_3  and  O_11
REMARK    2  A    between atoms: C_6  and  O_21
REMARK    3  A    between atoms: O_11  and  C_12
REMARK    4  A    between atoms: C_13  and  C_14
REMARK    5  A    between atoms: C_14  and  N_15
REMARK    6  A    between atoms: N_23  and  C_25
REMARK                            x       y       z     vdW  Elec       q    Type
REMARK                         _______ _______ _______ _____ _____    ______ ____
ROOT
ATOM      1  N   UNL     1       3.969  46.900 -19.823  0.00  0.00    +0.000 NA
ATOM      2  N   UNL     1       2.248  45.547 -18.881  0.00  0.00    +0.000 NA
ATOM      3  C   UNL     1       6.628  45.743 -16.840  0.00  0.00    +0.000 A 
ATOM      4  C   UNL     1       4.410  45.608 -17.858  0.00  0.00    +0.000 A 
ATOM      5  C   UNL     1       5.327  45.240 -16.859  0.00  0.00    +0.000 A 
ATOM      6  C   UNL     1       7.023  46.630 -17.842  0.00  0.00    +0.000 A 
ATOM      7  C   UNL     1       4.799  46.505 -18.857  0.00  0.00    +0.000 A 
ATOM      8  C   UNL     1       6.099  46.993 -18.829  0.00  0.00    +0.000 A 
ATOM      9  C   UNL     1       3.091  45.137 -17.920  0.00  0.00    +0.000 A 
ATOM     10  C   UNL     1       2.725  46.407 -19.789  0.00  0.00    +0.000 A 
ATOM     11  N   UNL     1       2.633  44.242 -16.919  0.00  0.00    +0.000 N 
ATOM     12  H   UNL     1       3.308  43.501 -16.755  0.00  0.00    +0.000 HD
ENDROOT
BRANCH  11  13
ATOM     13  C   UNL     1       1.310  43.812 -16.679  0.00  0.00    +0.000 A 
ATOM     14  C   UNL     1       0.849  42.653 -17.315  0.00  0.00    +0.000 A 
ATOM     15  C   UNL     1      -0.411  42.133 -17.030  0.00  0.00    +0.000 A 
ATOM     16 CL   UNL     1      -0.935  40.727 -17.867  0.00  0.00    +0.000 Cl
ATOM     17  C   UNL     1      -1.217  42.752 -16.081  0.00  0.00    +0.000 A 
ATOM     18  F   UNL     1      -2.433  42.266 -15.793  0.00  0.00    +0.000 F 
ATOM     19  C   UNL     1      -0.768  43.881 -15.408  0.00  0.00    +0.000 A 
ATOM     20  C   UNL     1       0.496  44.391 -15.699  0.00  0.00    +0.000 A 
ENDBRANCH  11  13
BRANCH   6  21
ATOM     21  O   UNL     1       8.313  47.103 -17.785  0.00  0.00    +0.000 OA
ATOM     22  C   UNL     1       9.152  46.706 -18.834  0.00  0.00    +0.000 C 
ENDBRANCH   6  21
BRANCH   3  23
ATOM     23  O   UNL     1       7.553  45.407 -15.881  0.00  0.00    +0.000 OA
BRANCH  23  24
ATOM     24  C   UNL     1       8.186  44.256 -16.098  0.00  0.00    +0.000 C 
ATOM     25  C   UNL     1       8.919  42.930 -16.331  0.00  0.00    +0.000 C 
BRANCH  25  26
ATOM     26  C   UNL     1       9.657  41.602 -16.529  0.00  0.00    +0.000 C 
BRANCH  26  27
ATOM     27  N   UNL     1      10.371  40.347 -16.719  0.00  0.00    +0.000 N 
ATOM     28  C   UNL     1      11.617  40.674 -17.477  0.00  0.00    +0.000 C 
ATOM     29  C   UNL     1      13.099  40.661 -16.981  0.00  0.00    +0.000 C 
ATOM     30  O   UNL     1      13.704  40.382 -15.805  0.00  0.00    +0.000 OA
ATOM     31  C   UNL     1      12.581  40.088 -15.120  0.00  0.00    +0.000 C 
ATOM     32  C   UNL     1      11.054  40.043 -15.425  0.00  0.00    +0.000 C 
ENDBRANCH  26  27
ENDBRANCH  25  26
ENDBRANCH  23  24
ENDBRANCH   3  23
TORSDOF 6
ENDMDL
MODEL 9
REMARK VINA RESULT:      -5.5     20.760     22.702
REMARK  Name = Gefitinib.pdbqt.pdb
REMARK  6 active torsions:
REMARK  status: ('A' for Active; 'I' for Inactive)
REMARK    1  A    between atoms: C_3  and  O_11
REMARK    2  A    between atoms: C_6  and  O_21
REMARK    3  A    between atoms: O_11  and  C_12
REMARK    4  A    between atoms: C_13  and  C_14
REMARK    5  A    between atoms: C_14  and  N_15
REMARK    6  A    between atoms: N_23  and  C_25
REMARK                            x       y       z     vdW  Elec       q    Type
REMARK                         _______ _______ _______ _____ _____    ______ ____
ROOT
ATOM      1  N   UNL     1      -0.122  19.231   0.347  0.00  0.00    +0.000 NA
ATOM      2  N   UNL     1      -1.738  20.335   1.705  0.00  0.00    +0.000 NA
ATOM      3  C   UNL     1       2.088  22.736  -0.022  0.00  0.00    +0.000 A 
ATOM      4  C   UNL     1       0.153  21.546   0.882  0.00  0.00    +0.000 A 
ATOM      5  C   UNL     1       0.916  22.717   0.735  0.00  0.00    +0.000 A 
ATOM      6  C   UNL     1       2.510  21.559  -0.641  0.00  0.00    +0.000 A 
ATOM      7  C   UNL     1       0.567  20.369   0.253  0.00  0.00    +0.000 A 
ATOM      8  C   UNL     1       1.739  20.401  -0.492  0.00  0.00    +0.000 A 
ATOM      9  C   UNL     1      -1.033  21.475   1.624  0.00  0.00    +0.000 A 
ATOM     10  C   UNL     1      -1.251  19.265   1.066  0.00  0.00    +0.000 A 
ATOM     11  N   UNL     1      -1.514  22.645   2.265  0.00  0.00    +0.000 N 
ATOM     12  H   UNL     1      -0.768  23.123   2.762  0.00  0.00    +0.000 HD
ENDROOT
BRANCH  11  13
ATOM     13  C   UNL     1      -2.769  22.842   2.883  0.00  0.00    +0.000 A 
ATOM     14  C   UNL     1      -3.932  22.689   2.118  0.00  0.00    +0.000 A 
ATOM     15  C   UNL     1      -5.192  22.770   2.707  0.00  0.00    +0.000 A 
ATOM     16 CL   UNL     1      -6.582  22.606   1.711  0.00  0.00    +0.000 Cl
ATOM     17  C   UNL     1      -5.303  22.978   4.077  0.00  0.00    +0.000 A 
ATOM     18  F   UNL     1      -6.508  23.060   4.661  0.00  0.00    +0.000 F 
ATOM     19  C   UNL     1      -4.165  23.096   4.864  0.00  0.00    +0.000 A 
ATOM     20  C   UNL     1      -2.910  23.009   4.266  0.00  0.00    +0.000 A 
ENDBRANCH  11  13
BRANCH   6  21
ATOM     21  O   UNL     1       3.669  21.622  -1.378  0.00  0.00    +0.000 OA
ATOM     22  C   UNL     1       4.756  20.906  -0.861  0.00  0.00    +0.000 C 
ENDBRANCH   6  21
BRANCH   3  23
ATOM     23  O   UNL     1       2.860  23.860  -0.188  0.00  0.00    +0.000 OA
BRANCH  23  24
ATOM     24  C   UNL     1       2.440  24.688  -1.142  0.00  0.00    +0.000 C 
ATOM     25  C   UNL     1       1.941  25.645  -2.230  0.00  0.00    +0.000 C 
BRANCH  25  26
ATOM     26  C   UNL     1       1.416  26.613  -3.297  0.00  0.00    +0.000 C 
BRANCH  26  27
ATOM     27  N   UNL     1       0.917  27.543  -4.300  0.00  0.00    +0.000 N 
ATOM     28  C   UNL     1       0.866  26.792  -5.591  0.00  0.00    +0.000 C 
ATOM     29  C   UNL     1      -0.385  26.309  -6.395  0.00  0.00    +0.000 C 
ATOM     30  O   UNL     1      -1.722  26.391  -6.212  0.00  0.00    +0.000 OA
ATOM     31  C   UNL     1      -1.676  27.067  -5.047  0.00  0.00    +0.000 C 
ATOM     32  C   UNL     1      -0.562  27.625  -4.109  0.00  0.00    +0.000 C 
ENDBRANCH  26  27
ENDBRANCH  25  26
ENDBRANCH  23  24
ENDBRANCH   3  23
TORSDOF 6
ENDMDL
