MODEL 1
REMARK VINA RESULT:      -8.4      0.000      0.000
REMARK  Name = Genistein.pdbqt.pdb
REMARK  4 active torsions:
REMARK  status: ('A' for Active; 'I' for Inactive)
REMARK    1  A    between atoms: C_4  and  C_12
REMARK    2  A    between atoms: C_7  and  O_20
REMARK    3  A    between atoms: C_11  and  O_22
REMARK    4  A    between atoms: C_17  and  O_18
REMARK                            x       y       z     vdW  Elec       q    Type
REMARK                         _______ _______ _______ _____ _____    ______ ____
ROOT
ATOM      1  O   UNL     1       5.374  31.476  16.403  0.00  0.00    +0.000 OA
ATOM      2  O   UNL     1       2.846  28.737  14.501  0.00  0.00    +0.000 OA
ATOM      3  C   UNL     1       5.040  29.331  15.198  0.00  0.00    +0.000 A 
ATOM      4  C   UNL     1       3.053  30.844  15.665  0.00  0.00    +0.000 A 
ATOM      5  C   UNL     1       5.864  30.292  15.854  0.00  0.00    +0.000 A 
ATOM      6  C   UNL     1       3.553  29.563  15.065  0.00  0.00    +0.000 A 
ATOM      7  C   UNL     1       5.623  28.172  14.678  0.00  0.00    +0.000 A 
ATOM      8  C   UNL     1       4.073  31.463  16.171  0.00  0.00    +0.000 A 
ATOM      9  C   UNL     1       7.235  30.078  15.975  0.00  0.00    +0.000 A 
ATOM     10  C   UNL     1       6.996  27.965  14.803  0.00  0.00    +0.000 A 
ATOM     11  C   UNL     1       7.786  28.915  15.448  0.00  0.00    +0.000 A 
ENDROOT
BRANCH   4  12
ATOM     12  C   UNL     1       1.673  31.323  15.682  0.00  0.00    +0.000 A 
ATOM     13  C   UNL     1       0.760  30.862  16.634  0.00  0.00    +0.000 A 
ATOM     14  C   UNL     1       1.233  32.261  14.740  0.00  0.00    +0.000 A 
ATOM     15  C   UNL     1      -0.556  31.318  16.651  0.00  0.00    +0.000 A 
ATOM     16  C   UNL     1      -0.081  32.726  14.745  0.00  0.00    +0.000 A 
ATOM     17  C   UNL     1      -0.966  32.249  15.704  0.00  0.00    +0.000 A 
BRANCH  17  18
ATOM     18  O   UNL     1      -2.248  32.717  15.693  0.00  0.00    +0.000 OA
ATOM     19  H   UNL     1      -2.451  33.067  16.579  0.00  0.00    +0.000 HD
ENDBRANCH  17  18
ENDBRANCH   4  12
BRANCH   7  20
ATOM     20  O   UNL     1       4.913  27.196  14.034  0.00  0.00    +0.000 OA
ATOM     21  H   UNL     1       4.247  26.826  14.658  0.00  0.00    +0.000 HD
ENDBRANCH   7  20
BRANCH  11  22
ATOM     22  O   UNL     1       9.131  28.722  15.577  0.00  0.00    +0.000 OA
ATOM     23  H   UNL     1       9.550  29.590  15.714  0.00  0.00    +0.000 HD
ENDBRANCH  11  22
TORSDOF 4
ENDMDL
MODEL 2
REMARK VINA RESULT:      -8.4      1.635      7.164
REMARK  Name = Genistein.pdbqt.pdb
REMARK  4 active torsions:
REMARK  status: ('A' for Active; 'I' for Inactive)
REMARK    1  A    between atoms: C_4  and  C_12
REMARK    2  A    between atoms: C_7  and  O_20
REMARK    3  A    between atoms: C_11  and  O_22
REMARK    4  A    between atoms: C_17  and  O_18
REMARK                            x       y       z     vdW  Elec       q    Type
REMARK                         _______ _______ _______ _____ _____    ______ ____
ROOT
ATOM      1  O   UNL     1       0.578  30.016  15.849  0.00  0.00    +0.000 OA
ATOM      2  O   UNL     1       3.548  32.720  14.678  0.00  0.00    +0.000 OA
ATOM      3  C   UNL     1       1.253  32.295  15.134  0.00  0.00    +0.000 A 
ATOM      4  C   UNL     1       3.005  30.469  15.367  0.00  0.00    +0.000 A 
ATOM      5  C   UNL     1       0.274  31.339  15.537  0.00  0.00    +0.000 A 
ATOM      6  C   UNL     1       2.707  31.899  15.025  0.00  0.00    +0.000 A 
ATOM      7  C   UNL     1       0.853  33.602  14.840  0.00  0.00    +0.000 A 
ATOM      8  C   UNL     1       1.885  29.902  15.686  0.00  0.00    +0.000 A 
ATOM      9  C   UNL     1      -1.066  31.705  15.637  0.00  0.00    +0.000 A 
ATOM     10  C   UNL     1      -0.490  33.959  14.942  0.00  0.00    +0.000 A 
ATOM     11  C   UNL     1      -1.433  33.013  15.339  0.00  0.00    +0.000 A 
ENDROOT
BRANCH   4  12
ATOM     12  C   UNL     1       4.313  29.818  15.348  0.00  0.00    +0.000 A 
ATOM     13  C   UNL     1       5.416  30.393  15.985  0.00  0.00    +0.000 A 
ATOM     14  C   UNL     1       4.490  28.596  14.688  0.00  0.00    +0.000 A 
ATOM     15  C   UNL     1       6.663  29.772  15.968  0.00  0.00    +0.000 A 
ATOM     16  C   UNL     1       5.733  27.965  14.662  0.00  0.00    +0.000 A 
ATOM     17  C   UNL     1       6.810  28.560  15.304  0.00  0.00    +0.000 A 
BRANCH  17  18
ATOM     18  O   UNL     1       8.018  27.926  15.269  0.00  0.00    +0.000 OA
ATOM     19  H   UNL     1       8.026  27.247  15.966  0.00  0.00    +0.000 HD
ENDBRANCH  17  18
ENDBRANCH   4  12
BRANCH   7  20
ATOM     20  O   UNL     1       1.720  34.584  14.446  0.00  0.00    +0.000 OA
ATOM     21  H   UNL     1       2.587  34.436  14.889  0.00  0.00    +0.000 HD
ENDBRANCH   7  20
BRANCH  11  22
ATOM     22  O   UNL     1      -2.751  33.352  15.443  0.00  0.00    +0.000 OA
ATOM     23  H   UNL     1      -3.076  33.583  14.554  0.00  0.00    +0.000 HD
ENDBRANCH  11  22
TORSDOF 4
ENDMDL
MODEL 3
REMARK VINA RESULT:      -8.3      0.879      2.261
REMARK  Name = Genistein.pdbqt.pdb
REMARK  4 active torsions:
REMARK  status: ('A' for Active; 'I' for Inactive)
REMARK    1  A    between atoms: C_4  and  C_12
REMARK    2  A    between atoms: C_7  and  O_20
REMARK    3  A    between atoms: C_11  and  O_22
REMARK    4  A    between atoms: C_17  and  O_18
REMARK                            x       y       z     vdW  Elec       q    Type
REMARK                         _______ _______ _______ _____ _____    ______ ____
ROOT
ATOM      1  O   UNL     1       3.466  28.371  14.579  0.00  0.00    +0.000 OA
ATOM      2  O   UNL     1       4.186  32.156  16.209  0.00  0.00    +0.000 OA
ATOM      3  C   UNL     1       5.043  30.059  15.487  0.00  0.00    +0.000 A 
ATOM      4  C   UNL     1       2.563  30.591  15.343  0.00  0.00    +0.000 A 
ATOM      5  C   UNL     1       4.751  28.779  14.929  0.00  0.00    +0.000 A 
ATOM      6  C   UNL     1       3.935  31.057  15.729  0.00  0.00    +0.000 A 
ATOM      7  C   UNL     1       6.365  30.380  15.806  0.00  0.00    +0.000 A 
ATOM      8  C   UNL     1       2.676  29.388  14.876  0.00  0.00    +0.000 A 
ATOM      9  C   UNL     1       5.773  27.860  14.706  0.00  0.00    +0.000 A 
ATOM     10  C   UNL     1       7.382  29.454  15.580  0.00  0.00    +0.000 A 
ATOM     11  C   UNL     1       7.079  28.209  15.034  0.00  0.00    +0.000 A 
ENDROOT
BRANCH   4  12
ATOM     12  C   UNL     1       1.315  31.342  15.467  0.00  0.00    +0.000 A 
ATOM     13  C   UNL     1       0.342  30.977  16.401  0.00  0.00    +0.000 A 
ATOM     14  C   UNL     1       1.068  32.450  14.649  0.00  0.00    +0.000 A 
ATOM     15  C   UNL     1      -0.847  31.693  16.521  0.00  0.00    +0.000 A 
ATOM     16  C   UNL     1      -0.118  33.175  14.757  0.00  0.00    +0.000 A 
ATOM     17  C   UNL     1      -1.067  32.789  15.695  0.00  0.00    +0.000 A 
BRANCH  17  18
ATOM     18  O   UNL     1      -2.221  33.511  15.786  0.00  0.00    +0.000 OA
ATOM     19  H   UNL     1      -2.554  33.667  14.885  0.00  0.00    +0.000 HD
ENDBRANCH  17  18
ENDBRANCH   4  12
BRANCH   7  20
ATOM     20  O   UNL     1       6.739  31.582  16.344  0.00  0.00    +0.000 OA
ATOM     21  H   UNL     1       7.014  32.183  15.614  0.00  0.00    +0.000 HD
ENDBRANCH   7  20
BRANCH  11  22
ATOM     22  O   UNL     1       8.066  27.294  14.808  0.00  0.00    +0.000 OA
ATOM     23  H   UNL     1       8.904  27.775  14.687  0.00  0.00    +0.000 HD
ENDBRANCH  11  22
TORSDOF 4
ENDMDL
MODEL 4
REMARK VINA RESULT:      -7.1      1.544      2.012
REMARK  Name = Genistein.pdbqt.pdb
REMARK  4 active torsions:
REMARK  status: ('A' for Active; 'I' for Inactive)
REMARK    1  A    between atoms: C_4  and  C_12
REMARK    2  A    between atoms: C_7  and  O_20
REMARK    3  A    between atoms: C_11  and  O_22
REMARK    4  A    between atoms: C_17  and  O_18
REMARK                            x       y       z     vdW  Elec       q    Type
REMARK                         _______ _______ _______ _____ _____    ______ ____
ROOT
ATOM      1  O   UNL     1       6.964  31.987  16.033  0.00  0.00    +0.000 OA
ATOM      2  O   UNL     1       3.799  29.543  14.802  0.00  0.00    +0.000 OA
ATOM      3  C   UNL     1       6.119  29.783  15.265  0.00  0.00    +0.000 A 
ATOM      4  C   UNL     1       4.510  31.729  15.543  0.00  0.00    +0.000 A 
ATOM      5  C   UNL     1       7.167  30.652  15.689  0.00  0.00    +0.000 A 
ATOM      6  C   UNL     1       4.699  30.290  15.167  0.00  0.00    +0.000 A 
ATOM      7  C   UNL     1       6.420  28.457  14.940  0.00  0.00    +0.000 A 
ATOM      8  C   UNL     1       5.670  32.203  15.873  0.00  0.00    +0.000 A 
ATOM      9  C   UNL     1       8.476  30.185  15.778  0.00  0.00    +0.000 A 
ATOM     10  C   UNL     1       7.732  27.997  15.032  0.00  0.00    +0.000 A 
ATOM     11  C   UNL     1       8.743  28.860  15.449  0.00  0.00    +0.000 A 
ENDROOT
BRANCH   4  12
ATOM     12  C   UNL     1       3.255  32.478  15.541  0.00  0.00    +0.000 A 
ATOM     13  C   UNL     1       2.948  33.371  14.511  0.00  0.00    +0.000 A 
ATOM     14  C   UNL     1       2.327  32.314  16.577  0.00  0.00    +0.000 A 
ATOM     15  C   UNL     1       1.751  34.084  14.508  0.00  0.00    +0.000 A 
ATOM     16  C   UNL     1       1.126  33.022  16.586  0.00  0.00    +0.000 A 
ATOM     17  C   UNL     1       0.848  33.902  15.549  0.00  0.00    +0.000 A 
BRANCH  17  18
ATOM     18  O   UNL     1      -0.333  34.585  15.576  0.00  0.00    +0.000 OA
ATOM     19  H   UNL     1      -0.217  35.371  16.139  0.00  0.00    +0.000 HD
ENDBRANCH  17  18
ENDBRANCH   4  12
BRANCH   7  20
ATOM     20  O   UNL     1       5.481  27.552  14.525  0.00  0.00    +0.000 OA
ATOM     21  H   UNL     1       5.197  27.789  13.612  0.00  0.00    +0.000 HD
ENDBRANCH   7  20
BRANCH  11  22
ATOM     22  O   UNL     1      10.032  28.420  15.543  0.00  0.00    +0.000 OA
ATOM     23  H   UNL     1      10.133  27.955  16.392  0.00  0.00    +0.000 HD
ENDBRANCH  11  22
TORSDOF 4
ENDMDL
MODEL 5
REMARK VINA RESULT:      -7.1      2.195      3.570
REMARK  Name = Genistein.pdbqt.pdb
REMARK  4 active torsions:
REMARK  status: ('A' for Active; 'I' for Inactive)
REMARK    1  A    between atoms: C_4  and  C_12
REMARK    2  A    between atoms: C_7  and  O_20
REMARK    3  A    between atoms: C_11  and  O_22
REMARK    4  A    between atoms: C_17  and  O_18
REMARK                            x       y       z     vdW  Elec       q    Type
REMARK                         _______ _______ _______ _____ _____    ______ ____
ROOT
ATOM      1  O   UNL     1       8.046  31.128  15.899  0.00  0.00    +0.000 OA
ATOM      2  O   UNL     1       6.496  27.457  14.624  0.00  0.00    +0.000 OA
ATOM      3  C   UNL     1       8.395  28.828  15.036  0.00  0.00    +0.000 A 
ATOM      4  C   UNL     1       6.039  29.675  15.463  0.00  0.00    +0.000 A 
ATOM      5  C   UNL     1       8.879  30.094  15.478  0.00  0.00    +0.000 A 
ATOM      6  C   UNL     1       6.912  28.546  15.004  0.00  0.00    +0.000 A 
ATOM      7  C   UNL     1       9.309  27.850  14.632  0.00  0.00    +0.000 A 
ATOM      8  C   UNL     1       6.814  30.661  15.787  0.00  0.00    +0.000 A 
ATOM      9  C   UNL     1      10.247  30.354  15.506  0.00  0.00    +0.000 A 
ATOM     10  C   UNL     1      10.677  28.118  14.662  0.00  0.00    +0.000 A 
ATOM     11  C   UNL     1      11.131  29.361  15.098  0.00  0.00    +0.000 A 
ENDROOT
BRANCH   4  12
ATOM     12  C   UNL     1       4.579  29.681  15.536  0.00  0.00    +0.000 A 
ATOM     13  C   UNL     1       3.896  30.662  16.261  0.00  0.00    +0.000 A 
ATOM     14  C   UNL     1       3.830  28.701  14.875  0.00  0.00    +0.000 A 
ATOM     15  C   UNL     1       2.505  30.668  16.330  0.00  0.00    +0.000 A 
ATOM     16  C   UNL     1       2.437  28.695  14.937  0.00  0.00    +0.000 A 
ATOM     17  C   UNL     1       1.786  29.682  15.665  0.00  0.00    +0.000 A 
BRANCH  17  18
ATOM     18  O   UNL     1       0.422  29.660  15.713  0.00  0.00    +0.000 OA
ATOM     19  H   UNL     1       0.152  29.041  16.414  0.00  0.00    +0.000 HD
ENDBRANCH  17  18
ENDBRANCH   4  12
BRANCH   7  20
ATOM     20  O   UNL     1       8.938  26.608  14.193  0.00  0.00    +0.000 OA
ATOM     21  H   UNL     1       9.563  25.943  14.562  0.00  0.00    +0.000 HD
ENDBRANCH   7  20
BRANCH  11  22
ATOM     22  O   UNL     1      12.468  29.635  15.133  0.00  0.00    +0.000 OA
ATOM     23  H   UNL     1      12.940  28.816  15.370  0.00  0.00    +0.000 HD
ENDBRANCH  11  22
TORSDOF 4
ENDMDL
MODEL 6
REMARK VINA RESULT:      -7.0      3.027      6.309
REMARK  Name = Genistein.pdbqt.pdb
REMARK  4 active torsions:
REMARK  status: ('A' for Active; 'I' for Inactive)
REMARK    1  A    between atoms: C_4  and  C_12
REMARK    2  A    between atoms: C_7  and  O_20
REMARK    3  A    between atoms: C_11  and  O_22
REMARK    4  A    between atoms: C_17  and  O_18
REMARK                            x       y       z     vdW  Elec       q    Type
REMARK                         _______ _______ _______ _____ _____    ______ ____
ROOT
ATOM      1  O   UNL     1       6.787  29.579  14.458  0.00  0.00    +0.000 OA
ATOM      2  O   UNL     1       4.584  32.198  16.865  0.00  0.00    +0.000 OA
ATOM      3  C   UNL     1       4.653  30.213  15.556  0.00  0.00    +0.000 A 
ATOM      4  C   UNL     1       6.710  31.677  15.844  0.00  0.00    +0.000 A 
ATOM      5  C   UNL     1       5.442  29.349  14.741  0.00  0.00    +0.000 A 
ATOM      6  C   UNL     1       5.262  31.455  16.165  0.00  0.00    +0.000 A 
ATOM      7  C   UNL     1       3.310  29.900  15.785  0.00  0.00    +0.000 A 
ATOM      8  C   UNL     1       7.096  30.700  15.085  0.00  0.00    +0.000 A 
ATOM      9  C   UNL     1       4.880  28.205  14.180  0.00  0.00    +0.000 A 
ATOM     10  C   UNL     1       2.755  28.754  15.219  0.00  0.00    +0.000 A 
ATOM     11  C   UNL     1       3.541  27.920  14.426  0.00  0.00    +0.000 A 
ENDROOT
BRANCH   4  12
ATOM     12  C   UNL     1       7.547  32.787  16.293  0.00  0.00    +0.000 A 
ATOM     13  C   UNL     1       8.870  32.578  16.694  0.00  0.00    +0.000 A 
ATOM     14  C   UNL     1       7.040  34.091  16.330  0.00  0.00    +0.000 A 
ATOM     15  C   UNL     1       9.669  33.636  17.123  0.00  0.00    +0.000 A 
ATOM     16  C   UNL     1       7.828  35.159  16.757  0.00  0.00    +0.000 A 
ATOM     17  C   UNL     1       9.139  34.921  17.150  0.00  0.00    +0.000 A 
BRANCH  17  18
ATOM     18  O   UNL     1       9.895  35.979  17.564  0.00  0.00    +0.000 OA
ATOM     19  H   UNL     1      10.006  35.914  18.529  0.00  0.00    +0.000 HD
ENDBRANCH  17  18
ENDBRANCH   4  12
BRANCH   7  20
ATOM     20  O   UNL     1       2.478  30.669  16.552  0.00  0.00    +0.000 OA
ATOM     21  H   UNL     1       1.748  31.006  15.985  0.00  0.00    +0.000 HD
ENDBRANCH   7  20
BRANCH  11  22
ATOM     22  O   UNL     1       3.008  26.795  13.867  0.00  0.00    +0.000 OA
ATOM     23  H   UNL     1       2.255  26.511  14.415  0.00  0.00    +0.000 HD
ENDBRANCH  11  22
TORSDOF 4
ENDMDL
MODEL 7
REMARK VINA RESULT:      -6.8     20.148     21.000
REMARK  Name = Genistein.pdbqt.pdb
REMARK  4 active torsions:
REMARK  status: ('A' for Active; 'I' for Inactive)
REMARK    1  A    between atoms: C_4  and  C_12
REMARK    2  A    between atoms: C_7  and  O_20
REMARK    3  A    between atoms: C_11  and  O_22
REMARK    4  A    between atoms: C_17  and  O_18
REMARK                            x       y       z     vdW  Elec       q    Type
REMARK                         _______ _______ _______ _____ _____    ______ ____
ROOT
ATOM      1  O   UNL     1     -14.295  31.147  25.167  0.00  0.00    +0.000 OA
ATOM      2  O   UNL     1     -15.761  33.246  21.857  0.00  0.00    +0.000 OA
ATOM      3  C   UNL     1     -14.685  33.291  23.977  0.00  0.00    +0.000 A 
ATOM      4  C   UNL     1     -15.433  31.103  22.924  0.00  0.00    +0.000 A 
ATOM      5  C   UNL     1     -14.200  32.535  25.085  0.00  0.00    +0.000 A 
ATOM      6  C   UNL     1     -15.344  32.596  22.809  0.00  0.00    +0.000 A 
ATOM      7  C   UNL     1     -14.544  34.681  23.984  0.00  0.00    +0.000 A 
ATOM      8  C   UNL     1     -14.896  30.765  24.053  0.00  0.00    +0.000 A 
ATOM      9  C   UNL     1     -13.593  33.176  26.162  0.00  0.00    +0.000 A 
ATOM     10  C   UNL     1     -13.935  35.316  25.066  0.00  0.00    +0.000 A 
ATOM     11  C   UNL     1     -13.466  34.561  26.139  0.00  0.00    +0.000 A 
ENDROOT
BRANCH   4  12
ATOM     12  C   UNL     1     -16.017  30.183  21.950  0.00  0.00    +0.000 A 
ATOM     13  C   UNL     1     -15.369  29.900  20.745  0.00  0.00    +0.000 A 
ATOM     14  C   UNL     1     -17.244  29.560  22.207  0.00  0.00    +0.000 A 
ATOM     15  C   UNL     1     -15.925  29.022  19.817  0.00  0.00    +0.000 A 
ATOM     16  C   UNL     1     -17.812  28.680  21.287  0.00  0.00    +0.000 A 
ATOM     17  C   UNL     1     -17.145  28.418  20.097  0.00  0.00    +0.000 A 
BRANCH  17  18
ATOM     18  O   UNL     1     -17.716  27.554  19.209  0.00  0.00    +0.000 OA
ATOM     19  H   UNL     1     -17.032  27.271  18.577  0.00  0.00    +0.000 HD
ENDBRANCH  17  18
ENDBRANCH   4  12
BRANCH   7  20
ATOM     20  O   UNL     1     -14.978  35.487  22.967  0.00  0.00    +0.000 OA
ATOM     21  H   UNL     1     -15.878  35.818  23.189  0.00  0.00    +0.000 HD
ENDBRANCH   7  20
BRANCH  11  22
ATOM     22  O   UNL     1     -12.868  35.171  27.204  0.00  0.00    +0.000 OA
ATOM     23  H   UNL     1     -12.087  34.647  27.455  0.00  0.00    +0.000 HD
ENDBRANCH  11  22
TORSDOF 4
ENDMDL
MODEL 8
REMARK VINA RESULT:      -6.4      3.035      5.096
REMARK  Name = Genistein.pdbqt.pdb
REMARK  4 active torsions:
REMARK  status: ('A' for Active; 'I' for Inactive)
REMARK    1  A    between atoms: C_4  and  C_12
REMARK    2  A    between atoms: C_7  and  O_20
REMARK    3  A    between atoms: C_11  and  O_22
REMARK    4  A    between atoms: C_17  and  O_18
REMARK                            x       y       z     vdW  Elec       q    Type
REMARK                         _______ _______ _______ _____ _____    ______ ____
ROOT
ATOM      1  O   UNL     1       7.339  32.752  16.074  0.00  0.00    +0.000 OA
ATOM      2  O   UNL     1       8.335  28.693  15.868  0.00  0.00    +0.000 OA
ATOM      3  C   UNL     1       9.013  30.933  16.293  0.00  0.00    +0.000 A 
ATOM      4  C   UNL     1       6.625  30.381  15.626  0.00  0.00    +0.000 A 
ATOM      5  C   UNL     1       8.629  32.305  16.351  0.00  0.00    +0.000 A 
ATOM      6  C   UNL     1       8.005  29.872  15.918  0.00  0.00    +0.000 A 
ATOM      7  C   UNL     1      10.333  30.579  16.588  0.00  0.00    +0.000 A 
ATOM      8  C   UNL     1       6.643  31.668  15.775  0.00  0.00    +0.000 A 
ATOM      9  C   UNL     1       9.559  33.282  16.696  0.00  0.00    +0.000 A 
ATOM     10  C   UNL     1      11.258  31.563  16.933  0.00  0.00    +0.000 A 
ATOM     11  C   UNL     1      10.865  32.899  16.985  0.00  0.00    +0.000 A 
ENDROOT
BRANCH   4  12
ATOM     12  C   UNL     1       5.461  29.586  15.240  0.00  0.00    +0.000 A 
ATOM     13  C   UNL     1       4.223  29.769  15.862  0.00  0.00    +0.000 A 
ATOM     14  C   UNL     1       5.561  28.621  14.232  0.00  0.00    +0.000 A 
ATOM     15  C   UNL     1       3.113  29.011  15.494  0.00  0.00    +0.000 A 
ATOM     16  C   UNL     1       4.459  27.855  13.854  0.00  0.00    +0.000 A 
ATOM     17  C   UNL     1       3.241  28.059  14.490  0.00  0.00    +0.000 A 
BRANCH  17  18
ATOM     18  O   UNL     1       2.174  27.301  14.107  0.00  0.00    +0.000 OA
ATOM     19  H   UNL     1       2.049  27.414  13.148  0.00  0.00    +0.000 HD
ENDBRANCH  17  18
ENDBRANCH   4  12
BRANCH   7  20
ATOM     20  O   UNL     1      10.792  29.290  16.559  0.00  0.00    +0.000 OA
ATOM     21  H   UNL     1      10.020  28.681  16.513  0.00  0.00    +0.000 HD
ENDBRANCH   7  20
BRANCH  11  22
ATOM     22  O   UNL     1      11.762  33.871  17.322  0.00  0.00    +0.000 OA
ATOM     23  H   UNL     1      12.605  33.440  17.548  0.00  0.00    +0.000 HD
ENDBRANCH  11  22
TORSDOF 4
ENDMDL
MODEL 9
REMARK VINA RESULT:      -6.4     20.183     21.130
REMARK  Name = Genistein.pdbqt.pdb
REMARK  4 active torsions:
REMARK  status: ('A' for Active; 'I' for Inactive)
REMARK    1  A    between atoms: C_4  and  C_12
REMARK    2  A    between atoms: C_7  and  O_20
REMARK    3  A    between atoms: C_11  and  O_22
REMARK    4  A    between atoms: C_17  and  O_18
REMARK                            x       y       z     vdW  Elec       q    Type
REMARK                         _______ _______ _______ _____ _____    ______ ____
ROOT
ATOM      1  O   UNL     1     -15.732  34.277  22.396  0.00  0.00    +0.000 OA
ATOM      2  O   UNL     1     -14.618  30.860  24.538  0.00  0.00    +0.000 OA
ATOM      3  C   UNL     1     -14.629  33.232  24.359  0.00  0.00    +0.000 A 
ATOM      4  C   UNL     1     -15.719  31.769  22.589  0.00  0.00    +0.000 A 
ATOM      5  C   UNL     1     -15.029  34.368  23.595  0.00  0.00    +0.000 A 
ATOM      6  C   UNL     1     -14.962  31.837  23.882  0.00  0.00    +0.000 A 
ATOM      7  C   UNL     1     -13.927  33.422  25.552  0.00  0.00    +0.000 A 
ATOM      8  C   UNL     1     -15.907  32.984  22.182  0.00  0.00    +0.000 A 
ATOM      9  C   UNL     1     -14.722  35.653  24.034  0.00  0.00    +0.000 A 
ATOM     10  C   UNL     1     -13.623  34.712  25.984  0.00  0.00    +0.000 A 
ATOM     11  C   UNL     1     -14.022  35.810  25.226  0.00  0.00    +0.000 A 
ENDROOT
BRANCH   4  12
ATOM     12  C   UNL     1     -16.168  30.562  21.899  0.00  0.00    +0.000 A 
ATOM     13  C   UNL     1     -17.362  29.929  22.254  0.00  0.00    +0.000 A 
ATOM     14  C   UNL     1     -15.407  30.011  20.861  0.00  0.00    +0.000 A 
ATOM     15  C   UNL     1     -17.791  28.778  21.596  0.00  0.00    +0.000 A 
ATOM     16  C   UNL     1     -15.824  28.860  20.195  0.00  0.00    +0.000 A 
ATOM     17  C   UNL     1     -17.016  28.253  20.569  0.00  0.00    +0.000 A 
BRANCH  17  18
ATOM     18  O   UNL     1     -17.408  27.127  19.905  0.00  0.00    +0.000 OA
ATOM     19  H   UNL     1     -17.024  27.153  19.010  0.00  0.00    +0.000 HD
ENDBRANCH  17  18
ENDBRANCH   4  12
BRANCH   7  20
ATOM     20  O   UNL     1     -13.503  32.393  26.349  0.00  0.00    +0.000 OA
ATOM     21  H   UNL     1     -14.285  31.856  26.612  0.00  0.00    +0.000 HD
ENDBRANCH   7  20
BRANCH  11  22
ATOM     22  O   UNL     1     -13.730  37.078  25.640  0.00  0.00    +0.000 OA
ATOM     23  H   UNL     1     -12.762  37.182  25.641  0.00  0.00    +0.000 HD
ENDBRANCH  11  22
TORSDOF 4
ENDMDL
