MODEL 1
REMARK VINA RESULT:      -2.7      0.000      0.000
REMARK  Name = HydrogenPeroxide.pdbqt.pdb
REMARK  1 active torsions:
REMARK  status: ('A' for Active; 'I' for Inactive)
REMARK    1  A    between atoms: O_1  and  O_3
REMARK                            x       y       z     vdW  Elec       q    Type
REMARK                         _______ _______ _______ _____ _____    ______ ____
ROOT
ATOM      1  O   UNL     1      -5.283  25.767   5.162  0.00  0.00    +0.000 OA
ATOM      2  H   UNL     1      -5.089  25.799   4.205  0.00  0.00    +0.000 HD
ENDROOT
BRANCH   1   3
ATOM      3  O   UNL     1      -5.906  27.077   5.254  0.00  0.00    +0.000 OA
ATOM      4  H   UNL     1      -6.500  26.870   6.001  0.00  0.00    +0.000 HD
ENDBRANCH   1   3
TORSDOF 1
ENDMDL
MODEL 2
REMARK VINA RESULT:      -2.7     33.571     33.950
REMARK  Name = HydrogenPeroxide.pdbqt.pdb
REMARK  1 active torsions:
REMARK  status: ('A' for Active; 'I' for Inactive)
REMARK    1  A    between atoms: O_1  and  O_3
REMARK                            x       y       z     vdW  Elec       q    Type
REMARK                         _______ _______ _______ _____ _____    ______ ____
ROOT
ATOM      1  O   UNL     1      11.617  54.520  -0.057  0.00  0.00    +0.000 OA
ATOM      2  H   UNL     1      11.261  55.235   0.504  0.00  0.00    +0.000 HD
ENDROOT
BRANCH   1   3
ATOM      3  O   UNL     1      12.986  55.005  -0.106  0.00  0.00    +0.000 OA
ATOM      4  H   UNL     1      12.789  55.866  -0.521  0.00  0.00    +0.000 HD
ENDBRANCH   1   3
TORSDOF 1
ENDMDL
MODEL 3
REMARK VINA RESULT:      -2.7      8.111      8.173
REMARK  Name = HydrogenPeroxide.pdbqt.pdb
REMARK  1 active torsions:
REMARK  status: ('A' for Active; 'I' for Inactive)
REMARK    1  A    between atoms: O_1  and  O_3
REMARK                            x       y       z     vdW  Elec       q    Type
REMARK                         _______ _______ _______ _____ _____    ______ ____
ROOT
ATOM      1  O   UNL     1     -11.351  23.359  10.811  0.00  0.00    +0.000 OA
ATOM      2  H   UNL     1     -11.309  24.321  10.653  0.00  0.00    +0.000 HD
ENDROOT
BRANCH   1   3
ATOM      3  O   UNL     1     -10.766  22.950   9.545  0.00  0.00    +0.000 OA
ATOM      4  H   UNL     1     -10.415  23.825   9.293  0.00  0.00    +0.000 HD
ENDBRANCH   1   3
TORSDOF 1
ENDMDL
MODEL 4
REMARK VINA RESULT:      -2.7      3.024      3.552
REMARK  Name = HydrogenPeroxide.pdbqt.pdb
REMARK  1 active torsions:
REMARK  status: ('A' for Active; 'I' for Inactive)
REMARK    1  A    between atoms: O_1  and  O_3
REMARK                            x       y       z     vdW  Elec       q    Type
REMARK                         _______ _______ _______ _____ _____    ______ ____
ROOT
ATOM      1  O   UNL     1      -1.747  25.382   4.875  0.00  0.00    +0.000 OA
ATOM      2  H   UNL     1      -1.244  24.730   5.400  0.00  0.00    +0.000 HD
ENDROOT
BRANCH   1   3
ATOM      3  O   UNL     1      -3.071  24.965   5.307  0.00  0.00    +0.000 OA
ATOM      4  H   UNL     1      -2.850  24.836   6.249  0.00  0.00    +0.000 HD
ENDBRANCH   1   3
TORSDOF 1
ENDMDL
MODEL 5
REMARK VINA RESULT:      -2.5     18.589     18.690
REMARK  Name = HydrogenPeroxide.pdbqt.pdb
REMARK  1 active torsions:
REMARK  status: ('A' for Active; 'I' for Inactive)
REMARK    1  A    between atoms: O_1  and  O_3
REMARK                            x       y       z     vdW  Elec       q    Type
REMARK                         _______ _______ _______ _____ _____    ______ ____
ROOT
ATOM      1  O   UNL     1       0.129  44.234   7.032  0.00  0.00    +0.000 OA
ATOM      2  H   UNL     1      -0.420  44.307   7.836  0.00  0.00    +0.000 HD
ENDROOT
BRANCH   1   3
ATOM      3  O   UNL     1      -0.952  44.386   6.072  0.00  0.00    +0.000 OA
ATOM      4  H   UNL     1      -0.497  45.019   5.485  0.00  0.00    +0.000 HD
ENDBRANCH   1   3
TORSDOF 1
ENDMDL
MODEL 6
REMARK VINA RESULT:      -2.4     19.501     19.507
REMARK  Name = HydrogenPeroxide.pdbqt.pdb
REMARK  1 active torsions:
REMARK  status: ('A' for Active; 'I' for Inactive)
REMARK    1  A    between atoms: O_1  and  O_3
REMARK                            x       y       z     vdW  Elec       q    Type
REMARK                         _______ _______ _______ _____ _____    ______ ____
ROOT
ATOM      1  O   UNL     1       3.466  32.114 -11.476  0.00  0.00    +0.000 OA
ATOM      2  H   UNL     1       3.102  31.348 -10.993  0.00  0.00    +0.000 HD
ENDROOT
BRANCH   1   3
ATOM      3  O   UNL     1       3.514  33.024 -10.344  0.00  0.00    +0.000 OA
ATOM      4  H   UNL     1       3.273  33.833 -10.836  0.00  0.00    +0.000 HD
ENDBRANCH   1   3
TORSDOF 1
ENDMDL
MODEL 7
REMARK VINA RESULT:      -2.3     21.903     22.140
REMARK  Name = HydrogenPeroxide.pdbqt.pdb
REMARK  1 active torsions:
REMARK  status: ('A' for Active; 'I' for Inactive)
REMARK    1  A    between atoms: O_1  and  O_3
REMARK                            x       y       z     vdW  Elec       q    Type
REMARK                         _______ _______ _______ _____ _____    ______ ____
ROOT
ATOM      1  O   UNL     1       4.936  43.811  14.443  0.00  0.00    +0.000 OA
ATOM      2  H   UNL     1       4.504  43.350  13.698  0.00  0.00    +0.000 HD
ENDROOT
BRANCH   1   3
ATOM      3  O   UNL     1       5.080  42.650  15.304  0.00  0.00    +0.000 OA
ATOM      4  H   UNL     1       5.538  43.105  16.036  0.00  0.00    +0.000 HD
ENDBRANCH   1   3
TORSDOF 1
ENDMDL
MODEL 8
REMARK VINA RESULT:      -2.3     19.578     19.657
REMARK  Name = HydrogenPeroxide.pdbqt.pdb
REMARK  1 active torsions:
REMARK  status: ('A' for Active; 'I' for Inactive)
REMARK    1  A    between atoms: O_1  and  O_3
REMARK                            x       y       z     vdW  Elec       q    Type
REMARK                         _______ _______ _______ _____ _____    ______ ____
ROOT
ATOM      1  O   UNL     1      12.939  32.302   9.358  0.00  0.00    +0.000 OA
ATOM      2  H   UNL     1      13.259  33.202   9.560  0.00  0.00    +0.000 HD
ENDROOT
BRANCH   1   3
ATOM      3  O   UNL     1      12.170  32.116  10.578  0.00  0.00    +0.000 OA
ATOM      4  H   UNL     1      12.112  31.143  10.531  0.00  0.00    +0.000 HD
ENDBRANCH   1   3
TORSDOF 1
ENDMDL
MODEL 9
REMARK VINA RESULT:      -2.2     10.185     10.256
REMARK  Name = HydrogenPeroxide.pdbqt.pdb
REMARK  1 active torsions:
REMARK  status: ('A' for Active; 'I' for Inactive)
REMARK    1  A    between atoms: O_1  and  O_3
REMARK                            x       y       z     vdW  Elec       q    Type
REMARK                         _______ _______ _______ _____ _____    ______ ____
ROOT
ATOM      1  O   UNL     1      -5.574  28.239  -4.536  0.00  0.00    +0.000 OA
ATOM      2  H   UNL     1      -4.990  27.652  -5.052  0.00  0.00    +0.000 HD
ENDROOT
BRANCH   1   3
ATOM      3  O   UNL     1      -4.937  29.490  -4.914  0.00  0.00    +0.000 OA
ATOM      4  H   UNL     1      -4.618  29.197  -5.788  0.00  0.00    +0.000 HD
ENDBRANCH   1   3
TORSDOF 1
ENDMDL
