MODEL 1
REMARK VINA RESULT:      -6.9      0.000      0.000
REMARK  Name = Hyoscyamine.pdbqt.pdb
REMARK  6 active torsions:
REMARK  status: ('A' for Active; 'I' for Inactive)
REMARK    1  A    between atoms: C_2  and  O_3
REMARK    2  A    between atoms: C_2  and  C_13
REMARK    3  A    between atoms: O_3  and  C_4
REMARK    4  A    between atoms: C_13  and  C_14
REMARK    5  A    between atoms: C_13  and  C_20
REMARK    6  A    between atoms: C_20  and  O_21
REMARK                            x       y       z     vdW  Elec       q    Type
REMARK                         _______ _______ _______ _____ _____    ______ ____
ROOT
ATOM      1  O   UNL     1       8.974  29.655  17.074  0.00  0.00    +0.000 OA
ATOM      2  C   UNL     1       8.395  29.928  16.029  0.00  0.00    +0.000 C 
ENDROOT
BRANCH   2   3
ATOM      3  O   UNL     1       8.349  31.145  15.414  0.00  0.00    +0.000 OA
BRANCH   3   4
ATOM      4  C   UNL     1       8.401  32.212  16.311  0.00  0.00    +0.000 C 
ATOM      5  C   UNL     1       7.338  33.199  16.359  0.00  0.00    +0.000 C 
ATOM      6  C   UNL     1       7.491  34.651  16.517  0.00  0.00    +0.000 C 
ATOM      7  N   UNL     1       8.702  34.998  15.640  0.00  0.00    +0.000 NA
ATOM      8  C   UNL     1       7.901  35.038  17.856  0.00  0.00    +0.000 C 
ATOM      9  C   UNL     1       9.778  34.416  16.570  0.00  0.00    +0.000 C 
ATOM     10  C   UNL     1       8.855  36.452  15.484  0.00  0.00    +0.000 C 
ATOM     11  C   UNL     1       9.423  34.889  17.900  0.00  0.00    +0.000 C 
ATOM     12  C   UNL     1       9.638  32.960  16.417  0.00  0.00    +0.000 C 
ENDBRANCH   3   4
ENDBRANCH   2   3
BRANCH   2  13
ATOM     13  C   UNL     1       7.588  28.931  15.265  0.00  0.00    +0.000 C 
BRANCH  13  14
ATOM     14  C   UNL     1       6.114  28.907  15.253  0.00  0.00    +0.000 A 
ATOM     15  C   UNL     1       5.386  29.821  16.023  0.00  0.00    +0.000 A 
ATOM     16  C   UNL     1       3.992  29.786  16.049  0.00  0.00    +0.000 A 
ATOM     17  C   UNL     1       3.308  28.828  15.309  0.00  0.00    +0.000 A 
ATOM     18  C   UNL     1       4.016  27.905  14.547  0.00  0.00    +0.000 A 
ATOM     19  C   UNL     1       5.409  27.945  14.525  0.00  0.00    +0.000 A 
ENDBRANCH  13  14
BRANCH  13  20
ATOM     20  C   UNL     1       8.311  27.998  14.457  0.00  0.00    +0.000 C 
BRANCH  20  21
ATOM     21  O   UNL     1       8.982  27.131  13.705  0.00  0.00    +0.000 OA
ATOM     22  H   UNL     1       9.630  27.595  13.146  0.00  0.00    +0.000 HD
ENDBRANCH  20  21
ENDBRANCH  13  20
ENDBRANCH   2  13
TORSDOF 6
ENDMDL
MODEL 2
REMARK VINA RESULT:      -6.2     22.817     24.809
REMARK  Name = Hyoscyamine.pdbqt.pdb
REMARK  6 active torsions:
REMARK  status: ('A' for Active; 'I' for Inactive)
REMARK    1  A    between atoms: C_2  and  O_3
REMARK    2  A    between atoms: C_2  and  C_13
REMARK    3  A    between atoms: O_3  and  C_4
REMARK    4  A    between atoms: C_13  and  C_14
REMARK    5  A    between atoms: C_13  and  C_20
REMARK    6  A    between atoms: C_20  and  O_21
REMARK                            x       y       z     vdW  Elec       q    Type
REMARK                         _______ _______ _______ _____ _____    ______ ____
ROOT
ATOM      1  O   UNL     1     -17.127  30.800  24.548  0.00  0.00    +0.000 OA
ATOM      2  C   UNL     1     -15.980  30.814  24.976  0.00  0.00    +0.000 C 
ENDROOT
BRANCH   2   3
ATOM      3  O   UNL     1     -14.985  29.927  24.681  0.00  0.00    +0.000 OA
BRANCH   3   4
ATOM      4  C   UNL     1     -14.727  29.834  23.314  0.00  0.00    +0.000 C 
ATOM      5  C   UNL     1     -15.650  30.390  22.341  0.00  0.00    +0.000 C 
ATOM      6  C   UNL     1     -16.052  29.787  21.064  0.00  0.00    +0.000 C 
ATOM      7  N   UNL     1     -16.227  28.298  21.392  0.00  0.00    +0.000 NA
ATOM      8  C   UNL     1     -14.997  29.808  20.066  0.00  0.00    +0.000 C 
ATOM      9  C   UNL     1     -14.733  27.954  21.500  0.00  0.00    +0.000 C 
ATOM     10  C   UNL     1     -16.867  27.574  20.283  0.00  0.00    +0.000 C 
ATOM     11  C   UNL     1     -14.116  28.590  20.345  0.00  0.00    +0.000 C 
ATOM     12  C   UNL     1     -14.318  28.550  22.779  0.00  0.00    +0.000 C 
ENDBRANCH   3   4
ENDBRANCH   2   3
BRANCH   2  13
ATOM     13  C   UNL     1     -15.494  31.829  25.957  0.00  0.00    +0.000 C 
BRANCH  13  14
ATOM     14  C   UNL     1     -14.766  33.054  25.576  0.00  0.00    +0.000 A 
ATOM     15  C   UNL     1     -13.943  33.703  26.503  0.00  0.00    +0.000 A 
ATOM     16  C   UNL     1     -13.278  34.882  26.169  0.00  0.00    +0.000 A 
ATOM     17  C   UNL     1     -13.435  35.433  24.901  0.00  0.00    +0.000 A 
ATOM     18  C   UNL     1     -14.258  34.806  23.971  0.00  0.00    +0.000 A 
ATOM     19  C   UNL     1     -14.921  33.628  24.312  0.00  0.00    +0.000 A 
ENDBRANCH  13  14
BRANCH  13  20
ATOM     20  C   UNL     1     -15.824  31.610  27.331  0.00  0.00    +0.000 C 
BRANCH  20  21
ATOM     21  O   UNL     1     -16.131  31.406  28.608  0.00  0.00    +0.000 OA
ATOM     22  H   UNL     1     -15.502  30.783  29.015  0.00  0.00    +0.000 HD
ENDBRANCH  20  21
ENDBRANCH  13  20
ENDBRANCH   2  13
TORSDOF 6
ENDMDL
MODEL 3
REMARK VINA RESULT:      -5.8      3.353      5.467
REMARK  Name = Hyoscyamine.pdbqt.pdb
REMARK  6 active torsions:
REMARK  status: ('A' for Active; 'I' for Inactive)
REMARK    1  A    between atoms: C_2  and  O_3
REMARK    2  A    between atoms: C_2  and  C_13
REMARK    3  A    between atoms: O_3  and  C_4
REMARK    4  A    between atoms: C_13  and  C_14
REMARK    5  A    between atoms: C_13  and  C_20
REMARK    6  A    between atoms: C_20  and  O_21
REMARK                            x       y       z     vdW  Elec       q    Type
REMARK                         _______ _______ _______ _____ _____    ______ ____
ROOT
ATOM      1  O   UNL     1       8.807  29.349  17.306  0.00  0.00    +0.000 OA
ATOM      2  C   UNL     1       8.515  29.067  16.150  0.00  0.00    +0.000 C 
ENDROOT
BRANCH   2   3
ATOM      3  O   UNL     1       9.131  28.148  15.352  0.00  0.00    +0.000 OA
BRANCH   3   4
ATOM      4  C   UNL     1      10.523  28.209  15.424  0.00  0.00    +0.000 C 
ATOM      5  C   UNL     1      11.252  29.314  14.827  0.00  0.00    +0.000 C 
ATOM      6  C   UNL     1      12.515  29.235  14.081  0.00  0.00    +0.000 C 
ATOM      7  N   UNL     1      12.360  27.976  13.216  0.00  0.00    +0.000 NA
ATOM      8  C   UNL     1      13.659  28.945  14.928  0.00  0.00    +0.000 C 
ATOM      9  C   UNL     1      12.541  26.950  14.345  0.00  0.00    +0.000 C 
ATOM     10  C   UNL     1      13.435  27.874  12.219  0.00  0.00    +0.000 C 
ATOM     11  C   UNL     1      13.688  27.426  15.106  0.00  0.00    +0.000 C 
ATOM     12  C   UNL     1      11.280  27.017  15.099  0.00  0.00    +0.000 C 
ENDBRANCH   3   4
ENDBRANCH   2   3
BRANCH   2  13
ATOM     13  C   UNL     1       7.417  29.749  15.403  0.00  0.00    +0.000 C 
BRANCH  13  14
ATOM     14  C   UNL     1       6.037  29.235  15.325  0.00  0.00    +0.000 A 
ATOM     15  C   UNL     1       5.741  28.125  14.525  0.00  0.00    +0.000 A 
ATOM     16  C   UNL     1       4.435  27.651  14.413  0.00  0.00    +0.000 A 
ATOM     17  C   UNL     1       3.404  28.288  15.094  0.00  0.00    +0.000 A 
ATOM     18  C   UNL     1       3.678  29.399  15.884  0.00  0.00    +0.000 A 
ATOM     19  C   UNL     1       4.986  29.869  15.993  0.00  0.00    +0.000 A 
ENDBRANCH  13  14
BRANCH  13  20
ATOM     20  C   UNL     1       7.732  31.004  14.793  0.00  0.00    +0.000 C 
BRANCH  20  21
ATOM     21  O   UNL     1       8.026  32.170  14.226  0.00  0.00    +0.000 OA
ATOM     22  H   UNL     1       7.764  32.906  14.806  0.00  0.00    +0.000 HD
ENDBRANCH  20  21
ENDBRANCH  13  20
ENDBRANCH   2  13
TORSDOF 6
ENDMDL
MODEL 4
REMARK VINA RESULT:      -5.5     22.063     24.411
REMARK  Name = Hyoscyamine.pdbqt.pdb
REMARK  6 active torsions:
REMARK  status: ('A' for Active; 'I' for Inactive)
REMARK    1  A    between atoms: C_2  and  O_3
REMARK    2  A    between atoms: C_2  and  C_13
REMARK    3  A    between atoms: O_3  and  C_4
REMARK    4  A    between atoms: C_13  and  C_14
REMARK    5  A    between atoms: C_13  and  C_20
REMARK    6  A    between atoms: C_20  and  O_21
REMARK                            x       y       z     vdW  Elec       q    Type
REMARK                         _______ _______ _______ _____ _____    ______ ____
ROOT
ATOM      1  O   UNL     1     -17.861  30.105  23.070  0.00  0.00    +0.000 OA
ATOM      2  C   UNL     1     -17.030  30.268  22.185  0.00  0.00    +0.000 C 
ENDROOT
BRANCH   2   3
ATOM      3  O   UNL     1     -16.395  31.431  21.862  0.00  0.00    +0.000 OA
BRANCH   3   4
ATOM      4  C   UNL     1     -15.683  31.977  22.930  0.00  0.00    +0.000 C 
ATOM      5  C   UNL     1     -14.897  31.132  23.812  0.00  0.00    +0.000 C 
ATOM      6  C   UNL     1     -14.788  31.245  25.272  0.00  0.00    +0.000 C 
ATOM      7  N   UNL     1     -16.218  31.563  25.731  0.00  0.00    +0.000 NA
ATOM      8  C   UNL     1     -14.015  32.399  25.699  0.00  0.00    +0.000 C 
ATOM      9  C   UNL     1     -16.246  33.024  25.256  0.00  0.00    +0.000 C 
ATOM     10  C   UNL     1     -16.348  31.470  27.193  0.00  0.00    +0.000 C 
ATOM     11  C   UNL     1     -14.977  33.588  25.695  0.00  0.00    +0.000 C 
ATOM     12  C   UNL     1     -16.360  32.925  23.793  0.00  0.00    +0.000 C 
ENDBRANCH   3   4
ENDBRANCH   2   3
BRANCH   2  13
ATOM     13  C   UNL     1     -16.602  29.171  21.266  0.00  0.00    +0.000 C 
BRANCH  13  14
ATOM     14  C   UNL     1     -15.203  28.730  21.111  0.00  0.00    +0.000 A 
ATOM     15  C   UNL     1     -14.467  29.100  19.980  0.00  0.00    +0.000 A 
ATOM     16  C   UNL     1     -13.156  28.660  19.803  0.00  0.00    +0.000 A 
ATOM     17  C   UNL     1     -12.566  27.835  20.755  0.00  0.00    +0.000 A 
ATOM     18  C   UNL     1     -13.287  27.450  21.880  0.00  0.00    +0.000 A 
ATOM     19  C   UNL     1     -14.598  27.893  22.051  0.00  0.00    +0.000 A 
ENDBRANCH  13  14
BRANCH  13  20
ATOM     20  C   UNL     1     -17.636  28.483  20.555  0.00  0.00    +0.000 C 
BRANCH  20  21
ATOM     21  O   UNL     1     -18.596  27.844  19.896  0.00  0.00    +0.000 OA
ATOM     22  H   UNL     1     -19.119  27.293  20.504  0.00  0.00    +0.000 HD
ENDBRANCH  20  21
ENDBRANCH  13  20
ENDBRANCH   2  13
TORSDOF 6
ENDMDL
MODEL 5
REMARK VINA RESULT:      -5.5     13.573     14.802
REMARK  Name = Hyoscyamine.pdbqt.pdb
REMARK  6 active torsions:
REMARK  status: ('A' for Active; 'I' for Inactive)
REMARK    1  A    between atoms: C_2  and  O_3
REMARK    2  A    between atoms: C_2  and  C_13
REMARK    3  A    between atoms: O_3  and  C_4
REMARK    4  A    between atoms: C_13  and  C_14
REMARK    5  A    between atoms: C_13  and  C_20
REMARK    6  A    between atoms: C_20  and  O_21
REMARK                            x       y       z     vdW  Elec       q    Type
REMARK                         _______ _______ _______ _____ _____    ______ ____
ROOT
ATOM      1  O   UNL     1       2.975  17.354   8.621  0.00  0.00    +0.000 OA
ATOM      2  C   UNL     1       2.941  18.131   9.567  0.00  0.00    +0.000 C 
ENDROOT
BRANCH   2   3
ATOM      3  O   UNL     1       3.143  17.828  10.882  0.00  0.00    +0.000 OA
BRANCH   3   4
ATOM      4  C   UNL     1       4.493  17.804  11.234  0.00  0.00    +0.000 C 
ATOM      5  C   UNL     1       5.259  19.033  11.333  0.00  0.00    +0.000 C 
ATOM      6  C   UNL     1       6.640  19.249  10.879  0.00  0.00    +0.000 C 
ATOM      7  N   UNL     1       6.713  18.508   9.537  0.00  0.00    +0.000 NA
ATOM      8  C   UNL     1       7.624  18.576  11.710  0.00  0.00    +0.000 C 
ATOM      9  C   UNL     1       6.739  17.083  10.112  0.00  0.00    +0.000 C 
ATOM     10  C   UNL     1       7.957  18.820   8.818  0.00  0.00    +0.000 C 
ATOM     11  C   UNL     1       7.700  17.134  11.204  0.00  0.00    +0.000 C 
ATOM     12  C   UNL     1       5.359  16.853  10.566  0.00  0.00    +0.000 C 
ENDBRANCH   3   4
ENDBRANCH   2   3
BRANCH   2  13
ATOM     13  C   UNL     1       2.620  19.581   9.413  0.00  0.00    +0.000 C 
BRANCH  13  14
ATOM     14  C   UNL     1       3.049  20.397   8.262  0.00  0.00    +0.000 A 
ATOM     15  C   UNL     1       4.342  20.930   8.217  0.00  0.00    +0.000 A 
ATOM     16  C   UNL     1       4.749  21.734   7.153  0.00  0.00    +0.000 A 
ATOM     17  C   UNL     1       3.862  22.023   6.122  0.00  0.00    +0.000 A 
ATOM     18  C   UNL     1       2.570  21.511   6.156  0.00  0.00    +0.000 A 
ATOM     19  C   UNL     1       2.168  20.707   7.223  0.00  0.00    +0.000 A 
ENDBRANCH  13  14
BRANCH  13  20
ATOM     20  C   UNL     1       1.792  20.170  10.420  0.00  0.00    +0.000 C 
BRANCH  20  21
ATOM     21  O   UNL     1       1.023  20.718  11.355  0.00  0.00    +0.000 OA
ATOM     22  H   UNL     1       1.569  21.156  12.032  0.00  0.00    +0.000 HD
ENDBRANCH  20  21
ENDBRANCH  13  20
ENDBRANCH   2  13
TORSDOF 6
ENDMDL
MODEL 6
REMARK VINA RESULT:      -5.3     13.332     15.205
REMARK  Name = Hyoscyamine.pdbqt.pdb
REMARK  6 active torsions:
REMARK  status: ('A' for Active; 'I' for Inactive)
REMARK    1  A    between atoms: C_2  and  O_3
REMARK    2  A    between atoms: C_2  and  C_13
REMARK    3  A    between atoms: O_3  and  C_4
REMARK    4  A    between atoms: C_13  and  C_14
REMARK    5  A    between atoms: C_13  and  C_20
REMARK    6  A    between atoms: C_20  and  O_21
REMARK                            x       y       z     vdW  Elec       q    Type
REMARK                         _______ _______ _______ _____ _____    ______ ____
ROOT
ATOM      1  O   UNL     1       5.048  21.890   6.911  0.00  0.00    +0.000 OA
ATOM      2  C   UNL     1       4.048  21.300   7.301  0.00  0.00    +0.000 C 
ENDROOT
BRANCH   2   3
ATOM      3  O   UNL     1       3.771  20.917   8.582  0.00  0.00    +0.000 OA
BRANCH   3   4
ATOM      4  C   UNL     1       4.854  20.307   9.214  0.00  0.00    +0.000 C 
ATOM      5  C   UNL     1       5.445  19.094   8.676  0.00  0.00    +0.000 C 
ATOM      6  C   UNL     1       5.911  17.929   9.440  0.00  0.00    +0.000 C 
ATOM      7  N   UNL     1       4.844  17.742  10.527  0.00  0.00    +0.000 NA
ATOM      8  C   UNL     1       7.133  18.187  10.182  0.00  0.00    +0.000 C 
ATOM      9  C   UNL     1       5.257  18.937  11.401  0.00  0.00    +0.000 C 
ATOM     10  C   UNL     1       5.020  16.468  11.240  0.00  0.00    +0.000 C 
ATOM     11  C   UNL     1       6.708  18.854  11.491  0.00  0.00    +0.000 C 
ATOM     12  C   UNL     1       4.790  20.111  10.648  0.00  0.00    +0.000 C 
ENDBRANCH   3   4
ENDBRANCH   2   3
BRANCH   2  13
ATOM     13  C   UNL     1       2.956  20.861   6.382  0.00  0.00    +0.000 C 
BRANCH  13  14
ATOM     14  C   UNL     1       2.080  19.704   6.643  0.00  0.00    +0.000 A 
ATOM     15  C   UNL     1       0.776  19.898   7.115  0.00  0.00    +0.000 A 
ATOM     16  C   UNL     1      -0.051  18.813   7.401  0.00  0.00    +0.000 A 
ATOM     17  C   UNL     1       0.420  17.516   7.227  0.00  0.00    +0.000 A 
ATOM     18  C   UNL     1       1.716  17.306   6.770  0.00  0.00    +0.000 A 
ATOM     19  C   UNL     1       2.539  18.395   6.485  0.00  0.00    +0.000 A 
ENDBRANCH  13  14
BRANCH  13  20
ATOM     20  C   UNL     1       2.727  21.665   5.221  0.00  0.00    +0.000 C 
BRANCH  20  21
ATOM     21  O   UNL     1       2.513  22.412   4.142  0.00  0.00    +0.000 OA
ATOM     22  H   UNL     1       2.883  21.982   3.351  0.00  0.00    +0.000 HD
ENDBRANCH  20  21
ENDBRANCH  13  20
ENDBRANCH   2  13
TORSDOF 6
ENDMDL
MODEL 7
REMARK VINA RESULT:      -5.1     13.540     15.109
REMARK  Name = Hyoscyamine.pdbqt.pdb
REMARK  6 active torsions:
REMARK  status: ('A' for Active; 'I' for Inactive)
REMARK    1  A    between atoms: C_2  and  O_3
REMARK    2  A    between atoms: C_2  and  C_13
REMARK    3  A    between atoms: O_3  and  C_4
REMARK    4  A    between atoms: C_13  and  C_14
REMARK    5  A    between atoms: C_13  and  C_20
REMARK    6  A    between atoms: C_20  and  O_21
REMARK                            x       y       z     vdW  Elec       q    Type
REMARK                         _______ _______ _______ _____ _____    ______ ____
ROOT
ATOM      1  O   UNL     1       3.457  21.069   7.196  0.00  0.00    +0.000 OA
ATOM      2  C   UNL     1       3.384  20.658   8.348  0.00  0.00    +0.000 C 
ENDROOT
BRANCH   2   3
ATOM      3  O   UNL     1       4.349  20.741   9.309  0.00  0.00    +0.000 OA
BRANCH   3   4
ATOM      4  C   UNL     1       4.969  19.518   9.565  0.00  0.00    +0.000 C 
ATOM      5  C   UNL     1       5.139  19.038  10.925  0.00  0.00    +0.000 C 
ATOM      6  C   UNL     1       6.320  18.363  11.479  0.00  0.00    +0.000 C 
ATOM      7  N   UNL     1       7.505  19.128  10.875  0.00  0.00    +0.000 NA
ATOM      8  C   UNL     1       6.485  17.007  10.986  0.00  0.00    +0.000 C 
ATOM      9  C   UNL     1       7.394  18.554   9.454  0.00  0.00    +0.000 C 
ATOM     10  C   UNL     1       8.774  18.744  11.513  0.00  0.00    +0.000 C 
ATOM     11  C   UNL     1       7.203  17.122   9.641  0.00  0.00    +0.000 C 
ATOM     12  C   UNL     1       6.216  19.225   8.886  0.00  0.00    +0.000 C 
ENDBRANCH   3   4
ENDBRANCH   2   3
BRANCH   2  13
ATOM     13  C   UNL     1       2.186  19.941   8.878  0.00  0.00    +0.000 C 
BRANCH  13  14
ATOM     14  C   UNL     1       1.554  18.792   8.203  0.00  0.00    +0.000 A 
ATOM     15  C   UNL     1       0.241  18.887   7.728  0.00  0.00    +0.000 A 
ATOM     16  C   UNL     1      -0.382  17.797   7.121  0.00  0.00    +0.000 A 
ATOM     17  C   UNL     1       0.301  16.592   6.989  0.00  0.00    +0.000 A 
ATOM     18  C   UNL     1       1.602  16.478   7.464  0.00  0.00    +0.000 A 
ATOM     19  C   UNL     1       2.220  17.571   8.071  0.00  0.00    +0.000 A 
ENDBRANCH  13  14
BRANCH  13  20
ATOM     20  C   UNL     1       1.684  20.371  10.146  0.00  0.00    +0.000 C 
BRANCH  20  21
ATOM     21  O   UNL     1       1.217  20.771  11.325  0.00  0.00    +0.000 OA
ATOM     22  H   UNL     1       1.951  20.966  11.934  0.00  0.00    +0.000 HD
ENDBRANCH  20  21
ENDBRANCH  13  20
ENDBRANCH   2  13
TORSDOF 6
ENDMDL
MODEL 8
REMARK VINA RESULT:      -5.1     26.640     30.091
REMARK  Name = Hyoscyamine.pdbqt.pdb
REMARK  6 active torsions:
REMARK  status: ('A' for Active; 'I' for Inactive)
REMARK    1  A    between atoms: C_2  and  O_3
REMARK    2  A    between atoms: C_2  and  C_13
REMARK    3  A    between atoms: O_3  and  C_4
REMARK    4  A    between atoms: C_13  and  C_14
REMARK    5  A    between atoms: C_13  and  C_20
REMARK    6  A    between atoms: C_20  and  O_21
REMARK                            x       y       z     vdW  Elec       q    Type
REMARK                         _______ _______ _______ _____ _____    ______ ____
ROOT
ATOM      1  O   UNL     1      -4.542  60.119  14.632  0.00  0.00    +0.000 OA
ATOM      2  C   UNL     1      -3.920  59.361  13.898  0.00  0.00    +0.000 C 
ENDROOT
BRANCH   2   3
ATOM      3  O   UNL     1      -3.184  58.276  14.277  0.00  0.00    +0.000 OA
BRANCH   3   4
ATOM      4  C   UNL     1      -2.927  58.244  15.647  0.00  0.00    +0.000 C 
ATOM      5  C   UNL     1      -1.685  58.771  16.185  0.00  0.00    +0.000 C 
ATOM      6  C   UNL     1      -0.872  58.184  17.258  0.00  0.00    +0.000 C 
ATOM      7  N   UNL     1      -0.902  56.677  16.969  0.00  0.00    +0.000 NA
ATOM      8  C   UNL     1      -1.485  58.306  18.570  0.00  0.00    +0.000 C 
ATOM      9  C   UNL     1      -2.346  56.427  17.432  0.00  0.00    +0.000 C 
ATOM     10  C   UNL     1       0.064  55.950  17.806  0.00  0.00    +0.000 C 
ATOM     11  C   UNL     1      -2.465  57.139  18.697  0.00  0.00    +0.000 C 
ATOM     12  C   UNL     1      -3.172  57.007  16.362  0.00  0.00    +0.000 C 
ENDBRANCH   3   4
ENDBRANCH   2   3
BRANCH   2  13
ATOM     13  C   UNL     1      -3.844  59.548  12.419  0.00  0.00    +0.000 C 
BRANCH  13  14
ATOM     14  C   UNL     1      -3.021  60.582  11.765  0.00  0.00    +0.000 A 
ATOM     15  C   UNL     1      -2.862  60.583  10.374  0.00  0.00    +0.000 A 
ATOM     16  C   UNL     1      -2.058  61.532   9.746  0.00  0.00    +0.000 A 
ATOM     17  C   UNL     1      -1.393  62.490  10.504  0.00  0.00    +0.000 A 
ATOM     18  C   UNL     1      -1.532  62.498  11.887  0.00  0.00    +0.000 A 
ATOM     19  C   UNL     1      -2.338  61.546  12.510  0.00  0.00    +0.000 A 
ENDBRANCH  13  14
BRANCH  13  20
ATOM     20  C   UNL     1      -4.569  58.615  11.611  0.00  0.00    +0.000 C 
BRANCH  20  21
ATOM     21  O   UNL     1      -5.242  57.749  10.861  0.00  0.00    +0.000 OA
ATOM     22  H   UNL     1      -4.848  57.689   9.973  0.00  0.00    +0.000 HD
ENDBRANCH  20  21
ENDBRANCH  13  20
ENDBRANCH   2  13
TORSDOF 6
ENDMDL
MODEL 9
REMARK VINA RESULT:      -5.1     13.768     17.243
REMARK  Name = Hyoscyamine.pdbqt.pdb
REMARK  6 active torsions:
REMARK  status: ('A' for Active; 'I' for Inactive)
REMARK    1  A    between atoms: C_2  and  O_3
REMARK    2  A    between atoms: C_2  and  C_13
REMARK    3  A    between atoms: O_3  and  C_4
REMARK    4  A    between atoms: C_13  and  C_14
REMARK    5  A    between atoms: C_13  and  C_20
REMARK    6  A    between atoms: C_20  and  O_21
REMARK                            x       y       z     vdW  Elec       q    Type
REMARK                         _______ _______ _______ _____ _____    ______ ____
ROOT
ATOM      1  O   UNL     1       3.301  16.654   9.395  0.00  0.00    +0.000 OA
ATOM      2  C   UNL     1       3.555  17.105  10.505  0.00  0.00    +0.000 C 
ENDROOT
BRANCH   2   3
ATOM      3  O   UNL     1       3.279  16.523  11.708  0.00  0.00    +0.000 OA
BRANCH   3   4
ATOM      4  C   UNL     1       3.973  15.330  11.909  0.00  0.00    +0.000 C 
ATOM      5  C   UNL     1       5.307  15.144  11.364  0.00  0.00    +0.000 C 
ATOM      6  C   UNL     1       5.841  13.926  10.741  0.00  0.00    +0.000 C 
ATOM      7  N   UNL     1       4.678  13.403   9.885  0.00  0.00    +0.000 NA
ATOM      8  C   UNL     1       6.087  12.858  11.694  0.00  0.00    +0.000 C 
ATOM      9  C   UNL     1       3.820  12.870  11.043  0.00  0.00    +0.000 C 
ATOM     10  C   UNL     1       5.112  12.317   8.994  0.00  0.00    +0.000 C 
ATOM     11  C   UNL     1       4.749  12.147  11.900  0.00  0.00    +0.000 C 
ATOM     12  C   UNL     1       3.275  14.082  11.675  0.00  0.00    +0.000 C 
ENDBRANCH   3   4
ENDBRANCH   2   3
BRANCH   2  13
ATOM     13  C   UNL     1       4.200  18.436  10.710  0.00  0.00    +0.000 C 
BRANCH  13  14
ATOM     14  C   UNL     1       5.657  18.657  10.665  0.00  0.00    +0.000 A 
ATOM     15  C   UNL     1       6.347  18.576   9.451  0.00  0.00    +0.000 A 
ATOM     16  C   UNL     1       7.730  18.746   9.399  0.00  0.00    +0.000 A 
ATOM     17  C   UNL     1       8.443  18.992  10.567  0.00  0.00    +0.000 A 
ATOM     18  C   UNL     1       7.775  19.065  11.784  0.00  0.00    +0.000 A 
ATOM     19  C   UNL     1       6.392  18.894  11.830  0.00  0.00    +0.000 A 
ENDBRANCH  13  14
BRANCH  13  20
ATOM     20  C   UNL     1       3.327  19.555  10.893  0.00  0.00    +0.000 C 
BRANCH  20  21
ATOM     21  O   UNL     1       2.516  20.594  11.062  0.00  0.00    +0.000 OA
ATOM     22  H   UNL     1       3.025  21.387  11.307  0.00  0.00    +0.000 HD
ENDBRANCH  20  21
ENDBRANCH  13  20
ENDBRANCH   2  13
TORSDOF 6
ENDMDL
