MODEL 1
REMARK VINA RESULT:      -6.3      0.000      0.000
REMARK  Name = 
REMARK  6 active torsions:
REMARK  status: ('A' for Active; 'I' for Inactive)
REMARK    1  A    between atoms: O_3  and  C_16
REMARK    2  A    between atoms: O_4  and  C_17
REMARK    3  A    between atoms: O_4  and  C_22
REMARK    4  A    between atoms: O_5  and  C_19
REMARK    5  A    between atoms: O_5  and  C_23
REMARK    6  A    between atoms: O_6  and  C_21
REMARK                            x       y       z     vdW  Elec       q    Type
REMARK                         _______ _______ _______ _____ _____    ______ ____
ROOT
ATOM      1  O   UNL     1      -0.517  42.767  18.071  0.00  0.00    +0.000 OA
ATOM      2  O   UNL     1       2.881  42.467  16.083  0.00  0.00    +0.000 OA
ATOM      3  C   UNL     1       1.061  41.194  17.134  0.00  0.00    +0.000 C 
ATOM      4  C   UNL     1       0.856  42.308  18.166  0.00  0.00    +0.000 C 
ATOM      5  C   UNL     1      -0.035  41.530  16.183  0.00  0.00    +0.000 A 
ATOM      6  C   UNL     1       2.477  41.198  16.596  0.00  0.00    +0.000 C 
ATOM      7  C   UNL     1       1.800  43.479  18.001  0.00  0.00    +0.000 A 
ATOM      8  C   UNL     1      -0.912  42.406  16.806  0.00  0.00    +0.000 A 
ATOM      9  C   UNL     1       2.749  43.508  16.965  0.00  0.00    +0.000 A 
ATOM     10  C   UNL     1      -0.289  41.064  14.904  0.00  0.00    +0.000 A 
ATOM     11  C   UNL     1       1.721  44.558  18.900  0.00  0.00    +0.000 A 
ATOM     12  C   UNL     1      -2.062  42.834  16.176  0.00  0.00    +0.000 A 
ATOM     13  C   UNL     1       3.572  44.631  16.804  0.00  0.00    +0.000 A 
ATOM     14  C   UNL     1      -1.447  41.503  14.246  0.00  0.00    +0.000 A 
ATOM     15  C   UNL     1      -2.338  42.387  14.877  0.00  0.00    +0.000 A 
ATOM     16  C   UNL     1       2.575  45.650  18.774  0.00  0.00    +0.000 A 
ATOM     17  C   UNL     1       3.493  45.673  17.736  0.00  0.00    +0.000 A 
ENDROOT
BRANCH  12  18
ATOM     18  O   UNL     1      -2.920  43.690  16.808  0.00  0.00    +0.000 OA
ATOM     19  H   UNL     1      -2.781  43.531  17.760  0.00  0.00    +0.000 HD
ENDBRANCH  12  18
BRANCH  13  20
ATOM     20  O   UNL     1       4.528  44.802  15.831  0.00  0.00    +0.000 OA
ATOM     21  C   UNL     1       4.046  45.395  14.627  0.00  0.00    +0.000 C 
ENDBRANCH  13  20
BRANCH  15  22
ATOM     22  O   UNL     1      -3.502  42.876  14.335  0.00  0.00    +0.000 OA
ATOM     23  C   UNL     1      -4.202  42.018  13.442  0.00  0.00    +0.000 C 
ENDBRANCH  15  22
BRANCH  17  24
ATOM     24  O   UNL     1       4.324  46.757  17.629  0.00  0.00    +0.000 OA
ATOM     25  H   UNL     1       3.852  47.479  18.085  0.00  0.00    +0.000 HD
ENDBRANCH  17  24
TORSDOF 4
ENDMDL
MODEL 2
REMARK VINA RESULT:      -6.2     24.761     26.843
REMARK  Name = 
REMARK  6 active torsions:
REMARK  status: ('A' for Active; 'I' for Inactive)
REMARK    1  A    between atoms: O_3  and  C_16
REMARK    2  A    between atoms: O_4  and  C_17
REMARK    3  A    between atoms: O_4  and  C_22
REMARK    4  A    between atoms: O_5  and  C_19
REMARK    5  A    between atoms: O_5  and  C_23
REMARK    6  A    between atoms: O_6  and  C_21
REMARK                            x       y       z     vdW  Elec       q    Type
REMARK                         _______ _______ _______ _____ _____    ______ ____
ROOT
ATOM      1  O   UNL     1       2.957  25.150  -1.204  0.00  0.00    +0.000 OA
ATOM      2  O   UNL     1       0.906  23.672  -4.236  0.00  0.00    +0.000 OA
ATOM      3  C   UNL     1       2.855  23.322  -2.782  0.00  0.00    +0.000 C 
ATOM      4  C   UNL     1       3.025  24.836  -2.618  0.00  0.00    +0.000 C 
ATOM      5  C   UNL     1       2.143  23.012  -1.511  0.00  0.00    +0.000 A 
ATOM      6  C   UNL     1       2.147  22.986  -4.078  0.00  0.00    +0.000 C 
ATOM      7  C   UNL     1       2.001  25.654  -3.375  0.00  0.00    +0.000 A 
ATOM      8  C   UNL     1       2.278  24.092  -0.651  0.00  0.00    +0.000 A 
ATOM      9  C   UNL     1       0.989  25.035  -4.127  0.00  0.00    +0.000 A 
ATOM     10  C   UNL     1       1.486  21.862  -1.106  0.00  0.00    +0.000 A 
ATOM     11  C   UNL     1       2.064  27.058  -3.316  0.00  0.00    +0.000 A 
ATOM     12  C   UNL     1       1.768  24.052   0.631  0.00  0.00    +0.000 A 
ATOM     13  C   UNL     1       0.022  25.819  -4.772  0.00  0.00    +0.000 A 
ATOM     14  C   UNL     1       0.951  21.814   0.189  0.00  0.00    +0.000 A 
ATOM     15  C   UNL     1       1.089  22.905   1.063  0.00  0.00    +0.000 A 
ATOM     16  C   UNL     1       1.136  27.838  -4.001  0.00  0.00    +0.000 A 
ATOM     17  C   UNL     1       0.132  27.213  -4.724  0.00  0.00    +0.000 A 
ENDROOT
BRANCH  12  18
ATOM     18  O   UNL     1       1.917  25.122   1.469  0.00  0.00    +0.000 OA
ATOM     19  H   UNL     1       1.289  24.963   2.197  0.00  0.00    +0.000 HD
ENDBRANCH  12  18
BRANCH  13  20
ATOM     20  O   UNL     1      -1.028  25.351  -5.526  0.00  0.00    +0.000 OA
ATOM     21  C   UNL     1      -2.183  24.990  -4.771  0.00  0.00    +0.000 C 
ENDBRANCH  13  20
BRANCH  15  22
ATOM     22  O   UNL     1       0.615  22.968   2.351  0.00  0.00    +0.000 OA
ATOM     23  C   UNL     1      -0.706  22.486   2.570  0.00  0.00    +0.000 C 
ENDBRANCH  15  22
BRANCH  17  24
ATOM     24  O   UNL     1      -0.772  27.999  -5.389  0.00  0.00    +0.000 OA
ATOM     25  H   UNL     1      -1.399  27.370  -5.794  0.00  0.00    +0.000 HD
ENDBRANCH  17  24
TORSDOF 4
ENDMDL
MODEL 3
REMARK VINA RESULT:      -5.9     22.756     24.507
REMARK  Name = 
REMARK  6 active torsions:
REMARK  status: ('A' for Active; 'I' for Inactive)
REMARK    1  A    between atoms: O_3  and  C_16
REMARK    2  A    between atoms: O_4  and  C_17
REMARK    3  A    between atoms: O_4  and  C_22
REMARK    4  A    between atoms: O_5  and  C_19
REMARK    5  A    between atoms: O_5  and  C_23
REMARK    6  A    between atoms: O_6  and  C_21
REMARK                            x       y       z     vdW  Elec       q    Type
REMARK                         _______ _______ _______ _____ _____    ______ ____
ROOT
ATOM      1  O   UNL     1      -1.377  19.865   6.311  0.00  0.00    +0.000 OA
ATOM      2  O   UNL     1       2.229  20.940   5.117  0.00  0.00    +0.000 OA
ATOM      3  C   UNL     1       0.138  19.850   4.428  0.00  0.00    +0.000 C 
ATOM      4  C   UNL     1      -0.096  19.357   5.860  0.00  0.00    +0.000 C 
ATOM      5  C   UNL     1      -0.755  21.042   4.426  0.00  0.00    +0.000 A 
ATOM      6  C   UNL     1       1.611  20.081   4.160  0.00  0.00    +0.000 C 
ATOM      7  C   UNL     1       0.989  19.763   6.834  0.00  0.00    +0.000 A 
ATOM      8  C   UNL     1      -1.612  20.958   5.513  0.00  0.00    +0.000 A 
ATOM      9  C   UNL     1       2.081  20.544   6.420  0.00  0.00    +0.000 A 
ATOM     10  C   UNL     1      -0.861  22.083   3.519  0.00  0.00    +0.000 A 
ATOM     11  C   UNL     1       0.895  19.356   8.177  0.00  0.00    +0.000 A 
ATOM     12  C   UNL     1      -2.596  21.902   5.722  0.00  0.00    +0.000 A 
ATOM     13  C   UNL     1       3.041  20.952   7.358  0.00  0.00    +0.000 A 
ATOM     14  C   UNL     1      -1.848  23.058   3.727  0.00  0.00    +0.000 A 
ATOM     15  C   UNL     1      -2.719  22.972   4.825  0.00  0.00    +0.000 A 
ATOM     16  C   UNL     1       1.876  19.715   9.097  0.00  0.00    +0.000 A 
ATOM     17  C   UNL     1       2.938  20.501   8.679  0.00  0.00    +0.000 A 
ENDROOT
BRANCH  12  18
ATOM     18  O   UNL     1      -3.439  21.799   6.793  0.00  0.00    +0.000 OA
ATOM     19  H   UNL     1      -3.671  20.854   6.843  0.00  0.00    +0.000 HD
ENDBRANCH  12  18
BRANCH  13  20
ATOM     20  O   UNL     1       4.148  21.725   7.099  0.00  0.00    +0.000 OA
ATOM     21  C   UNL     1       3.884  23.124   7.013  0.00  0.00    +0.000 C 
ENDBRANCH  13  20
BRANCH  15  22
ATOM     22  O   UNL     1      -3.724  23.860   5.124  0.00  0.00    +0.000 OA
ATOM     23  C   UNL     1      -4.947  23.705   4.415  0.00  0.00    +0.000 C 
ENDBRANCH  15  22
BRANCH  17  24
ATOM     24  O   UNL     1       3.893  20.843   9.599  0.00  0.00    +0.000 OA
ATOM     25  H   UNL     1       4.298  19.996   9.866  0.00  0.00    +0.000 HD
ENDBRANCH  17  24
TORSDOF 4
ENDMDL
MODEL 4
REMARK VINA RESULT:      -5.8     25.960     28.017
REMARK  Name = 
REMARK  6 active torsions:
REMARK  status: ('A' for Active; 'I' for Inactive)
REMARK    1  A    between atoms: O_3  and  C_16
REMARK    2  A    between atoms: O_4  and  C_17
REMARK    3  A    between atoms: O_4  and  C_22
REMARK    4  A    between atoms: O_5  and  C_19
REMARK    5  A    between atoms: O_5  and  C_23
REMARK    6  A    between atoms: O_6  and  C_21
REMARK                            x       y       z     vdW  Elec       q    Type
REMARK                         _______ _______ _______ _____ _____    ______ ____
ROOT
ATOM      1  O   UNL     1       4.951  15.897  11.063  0.00  0.00    +0.000 OA
ATOM      2  O   UNL     1       2.644  17.232   8.151  0.00  0.00    +0.000 OA
ATOM      3  C   UNL     1       4.528  15.749   8.688  0.00  0.00    +0.000 C 
ATOM      4  C   UNL     1       4.948  16.672   9.837  0.00  0.00    +0.000 C 
ATOM      5  C   UNL     1       3.791  14.709   9.459  0.00  0.00    +0.000 A 
ATOM      6  C   UNL     1       3.756  16.509   7.628  0.00  0.00    +0.000 C 
ATOM      7  C   UNL     1       4.062  17.888  10.002  0.00  0.00    +0.000 A 
ATOM      8  C   UNL     1       4.114  14.840  10.802  0.00  0.00    +0.000 A 
ATOM      9  C   UNL     1       2.952  18.098   9.168  0.00  0.00    +0.000 A 
ATOM     10  C   UNL     1       2.960  13.690   9.026  0.00  0.00    +0.000 A 
ATOM     11  C   UNL     1       4.356  18.820  11.015  0.00  0.00    +0.000 A 
ATOM     12  C   UNL     1       3.623  13.959  11.743  0.00  0.00    +0.000 A 
ATOM     13  C   UNL     1       2.118  19.204   9.382  0.00  0.00    +0.000 A 
ATOM     14  C   UNL     1       2.442  12.797   9.974  0.00  0.00    +0.000 A 
ATOM     15  C   UNL     1       2.770  12.925  11.334  0.00  0.00    +0.000 A 
ATOM     16  C   UNL     1       3.560  19.948  11.192  0.00  0.00    +0.000 A 
ATOM     17  C   UNL     1       2.457  20.132  10.373  0.00  0.00    +0.000 A 
ENDROOT
BRANCH  12  18
ATOM     18  O   UNL     1       3.958  14.096  13.061  0.00  0.00    +0.000 OA
ATOM     19  H   UNL     1       4.599  13.382  13.235  0.00  0.00    +0.000 HD
ENDBRANCH  12  18
BRANCH  13  20
ATOM     20  O   UNL     1       0.995  19.525   8.656  0.00  0.00    +0.000 OA
ATOM     21  C   UNL     1       1.258  20.232   7.445  0.00  0.00    +0.000 C 
ENDBRANCH  13  20
BRANCH  15  22
ATOM     22  O   UNL     1       2.331  12.107  12.347  0.00  0.00    +0.000 OA
ATOM     23  C   UNL     1       2.935  10.823  12.441  0.00  0.00    +0.000 C 
ENDBRANCH  15  22
BRANCH  17  24
ATOM     24  O   UNL     1       1.687  21.248  10.565  0.00  0.00    +0.000 OA
ATOM     25  H   UNL     1       1.867  21.521  11.485  0.00  0.00    +0.000 HD
ENDBRANCH  17  24
TORSDOF 4
ENDMDL
MODEL 5
REMARK VINA RESULT:      -5.6     26.775     28.705
REMARK  Name = 
REMARK  6 active torsions:
REMARK  status: ('A' for Active; 'I' for Inactive)
REMARK    1  A    between atoms: O_3  and  C_16
REMARK    2  A    between atoms: O_4  and  C_17
REMARK    3  A    between atoms: O_4  and  C_22
REMARK    4  A    between atoms: O_5  and  C_19
REMARK    5  A    between atoms: O_5  and  C_23
REMARK    6  A    between atoms: O_6  and  C_21
REMARK                            x       y       z     vdW  Elec       q    Type
REMARK                         _______ _______ _______ _____ _____    ______ ____
ROOT
ATOM      1  O   UNL     1      18.509  40.853  -3.686  0.00  0.00    +0.000 OA
ATOM      2  O   UNL     1      21.790  41.162  -5.860  0.00  0.00    +0.000 OA
ATOM      3  C   UNL     1      19.660  39.962  -5.616  0.00  0.00    +0.000 C 
ATOM      4  C   UNL     1      19.710  40.150  -4.096  0.00  0.00    +0.000 C 
ATOM      5  C   UNL     1      18.729  41.068  -5.974  0.00  0.00    +0.000 A 
ATOM      6  C   UNL     1      21.049  39.996  -6.219  0.00  0.00    +0.000 C 
ATOM      7  C   UNL     1      20.933  40.897  -3.610  0.00  0.00    +0.000 A 
ATOM      8  C   UNL     1      18.086  41.497  -4.822  0.00  0.00    +0.000 A 
ATOM      9  C   UNL     1      21.897  41.378  -4.512  0.00  0.00    +0.000 A 
ATOM     10  C   UNL     1      18.415  41.614  -7.207  0.00  0.00    +0.000 A 
ATOM     11  C   UNL     1      21.101  41.119  -2.230  0.00  0.00    +0.000 A 
ATOM     12  C   UNL     1      17.114  42.476  -4.870  0.00  0.00    +0.000 A 
ATOM     13  C   UNL     1      22.990  42.116  -4.036  0.00  0.00    +0.000 A 
ATOM     14  C   UNL     1      17.439  42.619  -7.268  0.00  0.00    +0.000 A 
ATOM     15  C   UNL     1      16.784  43.053  -6.103  0.00  0.00    +0.000 A 
ATOM     16  C   UNL     1      22.214  41.804  -1.753  0.00  0.00    +0.000 A 
ATOM     17  C   UNL     1      23.148  42.288  -2.656  0.00  0.00    +0.000 A 
ENDROOT
BRANCH  12  18
ATOM     18  O   UNL     1      16.483  42.881  -3.727  0.00  0.00    +0.000 OA
ATOM     19  H   UNL     1      15.943  42.118  -3.451  0.00  0.00    +0.000 HD
ENDBRANCH  12  18
BRANCH  13  20
ATOM     20  O   UNL     1      23.997  42.656  -4.800  0.00  0.00    +0.000 OA
ATOM     21  C   UNL     1      23.691  43.930  -5.364  0.00  0.00    +0.000 C 
ENDBRANCH  13  20
BRANCH  15  22
ATOM     22  O   UNL     1      15.811  44.021  -6.043  0.00  0.00    +0.000 OA
ATOM     23  C   UNL     1      14.830  44.008  -7.074  0.00  0.00    +0.000 C 
ENDBRANCH  15  22
BRANCH  17  24
ATOM     24  O   UNL     1      24.236  42.960  -2.165  0.00  0.00    +0.000 OA
ATOM     25  H   UNL     1      24.970  42.320  -2.222  0.00  0.00    +0.000 HD
ENDBRANCH  17  24
TORSDOF 4
ENDMDL
MODEL 6
REMARK VINA RESULT:      -5.5     26.562     28.548
REMARK  Name = 
REMARK  6 active torsions:
REMARK  status: ('A' for Active; 'I' for Inactive)
REMARK    1  A    between atoms: O_3  and  C_16
REMARK    2  A    between atoms: O_4  and  C_17
REMARK    3  A    between atoms: O_4  and  C_22
REMARK    4  A    between atoms: O_5  and  C_19
REMARK    5  A    between atoms: O_5  and  C_23
REMARK    6  A    between atoms: O_6  and  C_21
REMARK                            x       y       z     vdW  Elec       q    Type
REMARK                         _______ _______ _______ _____ _____    ______ ____
ROOT
ATOM      1  O   UNL     1      19.799  40.659  -2.273  0.00  0.00    +0.000 OA
ATOM      2  O   UNL     1      20.323  41.009  -6.170  0.00  0.00    +0.000 OA
ATOM      3  C   UNL     1      21.473  40.886  -4.002  0.00  0.00    +0.000 C 
ATOM      4  C   UNL     1      20.277  41.551  -3.312  0.00  0.00    +0.000 C 
ATOM      5  C   UNL     1      21.191  39.461  -3.672  0.00  0.00    +0.000 A 
ATOM      6  C   UNL     1      21.539  41.262  -5.468  0.00  0.00    +0.000 C 
ATOM      7  C   UNL     1      19.142  41.898  -4.251  0.00  0.00    +0.000 A 
ATOM      8  C   UNL     1      20.251  39.419  -2.652  0.00  0.00    +0.000 A 
ATOM      9  C   UNL     1      19.214  41.597  -5.621  0.00  0.00    +0.000 A 
ATOM     10  C   UNL     1      21.751  38.297  -4.168  0.00  0.00    +0.000 A 
ATOM     11  C   UNL     1      17.993  42.529  -3.737  0.00  0.00    +0.000 A 
ATOM     12  C   UNL     1      19.851  38.220  -2.099  0.00  0.00    +0.000 A 
ATOM     13  C   UNL     1      18.123  41.880  -6.455  0.00  0.00    +0.000 A 
ATOM     14  C   UNL     1      21.342  37.070  -3.625  0.00  0.00    +0.000 A 
ATOM     15  C   UNL     1      20.394  37.025  -2.590  0.00  0.00    +0.000 A 
ATOM     16  C   UNL     1      16.932  42.860  -4.575  0.00  0.00    +0.000 A 
ATOM     17  C   UNL     1      17.009  42.540  -5.921  0.00  0.00    +0.000 A 
ENDROOT
BRANCH  12  18
ATOM     18  O   UNL     1      18.931  38.196  -1.089  0.00  0.00    +0.000 OA
ATOM     19  H   UNL     1      18.908  39.108  -0.745  0.00  0.00    +0.000 HD
ENDBRANCH  12  18
BRANCH  13  20
ATOM     20  O   UNL     1      18.048  41.628  -7.805  0.00  0.00    +0.000 OA
ATOM     21  C   UNL     1      18.779  42.545  -8.617  0.00  0.00    +0.000 C 
ENDBRANCH  13  20
BRANCH  15  22
ATOM     22  O   UNL     1      19.925  35.887  -1.979  0.00  0.00    +0.000 OA
ATOM     23  C   UNL     1      20.828  35.207  -1.114  0.00  0.00    +0.000 C 
ENDBRANCH  15  22
BRANCH  17  24
ATOM     24  O   UNL     1      15.955  42.874  -6.728  0.00  0.00    +0.000 OA
ATOM     25  H   UNL     1      15.965  42.208  -7.442  0.00  0.00    +0.000 HD
ENDBRANCH  17  24
TORSDOF 4
ENDMDL
MODEL 7
REMARK VINA RESULT:      -5.4     23.733     25.720
REMARK  Name = 
REMARK  6 active torsions:
REMARK  status: ('A' for Active; 'I' for Inactive)
REMARK    1  A    between atoms: O_3  and  C_16
REMARK    2  A    between atoms: O_4  and  C_17
REMARK    3  A    between atoms: O_4  and  C_22
REMARK    4  A    between atoms: O_5  and  C_19
REMARK    5  A    between atoms: O_5  and  C_23
REMARK    6  A    between atoms: O_6  and  C_21
REMARK                            x       y       z     vdW  Elec       q    Type
REMARK                         _______ _______ _______ _____ _____    ______ ____
ROOT
ATOM      1  O   UNL     1      14.989  29.481   1.267  0.00  0.00    +0.000 OA
ATOM      2  O   UNL     1      12.754  26.898  -0.714  0.00  0.00    +0.000 OA
ATOM      3  C   UNL     1      15.061  27.512  -0.133  0.00  0.00    +0.000 C 
ATOM      4  C   UNL     1      14.667  28.991  -0.059  0.00  0.00    +0.000 C 
ATOM      5  C   UNL     1      15.032  27.173   1.317  0.00  0.00    +0.000 A 
ATOM      6  C   UNL     1      14.132  26.741  -1.048  0.00  0.00    +0.000 C 
ATOM      7  C   UNL     1      13.207  29.252  -0.362  0.00  0.00    +0.000 A 
ATOM      8  C   UNL     1      15.027  28.352   2.048  0.00  0.00    +0.000 A 
ATOM      9  C   UNL     1      12.326  28.198  -0.656  0.00  0.00    +0.000 A 
ATOM     10  C   UNL     1      15.074  25.944   1.953  0.00  0.00    +0.000 A 
ATOM     11  C   UNL     1      12.727  30.575  -0.343  0.00  0.00    +0.000 A 
ATOM     12  C   UNL     1      15.067  28.336   3.428  0.00  0.00    +0.000 A 
ATOM     13  C   UNL     1      10.967  28.467  -0.877  0.00  0.00    +0.000 A 
ATOM     14  C   UNL     1      15.100  25.914   3.355  0.00  0.00    +0.000 A 
ATOM     15  C   UNL     1      15.099  27.106   4.098  0.00  0.00    +0.000 A 
ATOM     16  C   UNL     1      11.390  30.847  -0.616  0.00  0.00    +0.000 A 
ATOM     17  C   UNL     1      10.528  29.796  -0.886  0.00  0.00    +0.000 A 
ENDROOT
BRANCH  12  18
ATOM     18  O   UNL     1      15.070  29.507   4.133  0.00  0.00    +0.000 OA
ATOM     19  H   UNL     1      14.168  29.589   4.493  0.00  0.00    +0.000 HD
ENDBRANCH  12  18
BRANCH  13  20
ATOM     20  O   UNL     1       9.993  27.538  -1.159  0.00  0.00    +0.000 OA
ATOM     21  C   UNL     1      10.035  27.025  -2.489  0.00  0.00    +0.000 C 
ENDBRANCH  13  20
BRANCH  15  22
ATOM     22  O   UNL     1      15.130  27.199   5.468  0.00  0.00    +0.000 OA
ATOM     23  C   UNL     1      15.944  26.254   6.155  0.00  0.00    +0.000 C 
ENDBRANCH  15  22
BRANCH  17  24
ATOM     24  O   UNL     1       9.216  30.085  -1.152  0.00  0.00    +0.000 OA
ATOM     25  H   UNL     1       8.846  30.375  -0.296  0.00  0.00    +0.000 HD
ENDBRANCH  17  24
TORSDOF 4
ENDMDL
MODEL 8
REMARK VINA RESULT:      -5.3     21.050     23.180
REMARK  Name = 
REMARK  6 active torsions:
REMARK  status: ('A' for Active; 'I' for Inactive)
REMARK    1  A    between atoms: O_3  and  C_16
REMARK    2  A    between atoms: O_4  and  C_17
REMARK    3  A    between atoms: O_4  and  C_22
REMARK    4  A    between atoms: O_5  and  C_19
REMARK    5  A    between atoms: O_5  and  C_23
REMARK    6  A    between atoms: O_6  and  C_21
REMARK                            x       y       z     vdW  Elec       q    Type
REMARK                         _______ _______ _______ _____ _____    ______ ____
ROOT
ATOM      1  O   UNL     1      -2.005  63.108   5.946  0.00  0.00    +0.000 OA
ATOM      2  O   UNL     1      -0.055  64.362   9.141  0.00  0.00    +0.000 OA
ATOM      3  C   UNL     1       0.059  64.116   6.699  0.00  0.00    +0.000 C 
ATOM      4  C   UNL     1      -0.833  62.872   6.767  0.00  0.00    +0.000 C 
ATOM      5  C   UNL     1      -0.961  65.133   6.316  0.00  0.00    +0.000 A 
ATOM      6  C   UNL     1       0.803  64.330   8.001  0.00  0.00    +0.000 C 
ATOM      7  C   UNL     1      -1.258  62.497   8.170  0.00  0.00    +0.000 A 
ATOM      8  C   UNL     1      -2.096  64.476   5.865  0.00  0.00    +0.000 A 
ATOM      9  C   UNL     1      -0.864  63.265   9.278  0.00  0.00    +0.000 A 
ATOM     10  C   UNL     1      -0.887  66.515   6.298  0.00  0.00    +0.000 A 
ATOM     11  C   UNL     1      -2.066  61.361   8.364  0.00  0.00    +0.000 A 
ATOM     12  C   UNL     1      -3.182  65.177   5.382  0.00  0.00    +0.000 A 
ATOM     13  C   UNL     1      -1.319  62.925  10.560  0.00  0.00    +0.000 A 
ATOM     14  C   UNL     1      -1.989  67.241   5.823  0.00  0.00    +0.000 A 
ATOM     15  C   UNL     1      -3.139  66.578   5.362  0.00  0.00    +0.000 A 
ATOM     16  C   UNL     1      -2.473  60.991   9.642  0.00  0.00    +0.000 A 
ATOM     17  C   UNL     1      -2.092  61.769  10.724  0.00  0.00    +0.000 A 
ENDROOT
BRANCH  12  18
ATOM     18  O   UNL     1      -4.290  64.515   4.932  0.00  0.00    +0.000 OA
ATOM     19  H   UNL     1      -3.996  63.595   4.795  0.00  0.00    +0.000 HD
ENDBRANCH  12  18
BRANCH  13  20
ATOM     20  O   UNL     1      -1.027  63.591  11.727  0.00  0.00    +0.000 OA
ATOM     21  C   UNL     1       0.280  63.337  12.240  0.00  0.00    +0.000 C 
ENDBRANCH  13  20
BRANCH  15  22
ATOM     22  O   UNL     1      -4.271  67.181   4.870  0.00  0.00    +0.000 OA
ATOM     23  C   UNL     1      -5.042  67.943   5.791  0.00  0.00    +0.000 C 
ENDBRANCH  15  22
BRANCH  17  24
ATOM     24  O   UNL     1      -2.504  61.388  11.974  0.00  0.00    +0.000 OA
ATOM     25  H   UNL     1      -2.416  60.416  11.980  0.00  0.00    +0.000 HD
ENDBRANCH  17  24
TORSDOF 4
ENDMDL
MODEL 9
REMARK VINA RESULT:      -5.2     28.270     31.187
REMARK  Name = 
REMARK  6 active torsions:
REMARK  status: ('A' for Active; 'I' for Inactive)
REMARK    1  A    between atoms: O_3  and  C_16
REMARK    2  A    between atoms: O_4  and  C_17
REMARK    3  A    between atoms: O_4  and  C_22
REMARK    4  A    between atoms: O_5  and  C_19
REMARK    5  A    between atoms: O_5  and  C_23
REMARK    6  A    between atoms: O_6  and  C_21
REMARK                            x       y       z     vdW  Elec       q    Type
REMARK                         _______ _______ _______ _____ _____    ______ ____
ROOT
ATOM      1  O   UNL     1      10.035  55.044 -12.530  0.00  0.00    +0.000 OA
ATOM      2  O   UNL     1       6.787  55.551 -10.344  0.00  0.00    +0.000 OA
ATOM      3  C   UNL     1       7.735  55.783 -12.599  0.00  0.00    +0.000 C 
ATOM      4  C   UNL     1       9.124  56.043 -12.006  0.00  0.00    +0.000 C 
ATOM      5  C   UNL     1       7.876  54.340 -12.940  0.00  0.00    +0.000 A 
ATOM      6  C   UNL     1       6.641  56.165 -11.623  0.00  0.00    +0.000 C 
ATOM      7  C   UNL     1       9.158  56.026 -10.493  0.00  0.00    +0.000 A 
ATOM      8  C   UNL     1       9.222  54.006 -12.912  0.00  0.00    +0.000 A 
ATOM      9  C   UNL     1       8.000  55.765  -9.742  0.00  0.00    +0.000 A 
ATOM     10  C   UNL     1       6.922  53.407 -13.309  0.00  0.00    +0.000 A 
ATOM     11  C   UNL     1      10.376  56.268  -9.830  0.00  0.00    +0.000 A 
ATOM     12  C   UNL     1       9.651  52.740 -13.254  0.00  0.00    +0.000 A 
ATOM     13  C   UNL     1       8.075  55.700  -8.344  0.00  0.00    +0.000 A 
ATOM     14  C   UNL     1       7.343  52.112 -13.645  0.00  0.00    +0.000 A 
ATOM     15  C   UNL     1       8.706  51.773 -13.622  0.00  0.00    +0.000 A 
ATOM     16  C   UNL     1      10.440  56.258  -8.440  0.00  0.00    +0.000 A 
ATOM     17  C   UNL     1       9.293  55.981  -7.713  0.00  0.00    +0.000 A 
ENDROOT
BRANCH  12  18
ATOM     18  O   UNL     1      10.982  52.430 -13.231  0.00  0.00    +0.000 OA
ATOM     19  H   UNL     1      11.373  53.042 -12.581  0.00  0.00    +0.000 HD
ENDBRANCH  12  18
BRANCH  13  20
ATOM     20  O   UNL     1       7.031  55.441  -7.488  0.00  0.00    +0.000 OA
ATOM     21  C   UNL     1       6.181  56.560  -7.240  0.00  0.00    +0.000 C 
ENDBRANCH  13  20
BRANCH  15  22
ATOM     22  O   UNL     1       9.233  50.544 -13.937  0.00  0.00    +0.000 OA
ATOM     23  C   UNL     1       9.297  50.211 -15.319  0.00  0.00    +0.000 C 
ENDBRANCH  15  22
BRANCH  17  24
ATOM     24  O   UNL     1       9.378  55.975  -6.346  0.00  0.00    +0.000 OA
ATOM     25  H   UNL     1       9.923  56.754  -6.126  0.00  0.00    +0.000 HD
ENDBRANCH  17  24
TORSDOF 4
ENDMDL
