MODEL 1
REMARK VINA RESULT:      -8.3      0.000      0.000
REMARK  Name = 
REMARK  9 active torsions:
REMARK  status: ('A' for Active; 'I' for Inactive)
REMARK    1  A    between atoms: O_1  and  N_7
REMARK    2  A    between atoms: O_1  and  C_20
REMARK    3  A    between atoms: O_2  and  C_14
REMARK    4  A    between atoms: O_3  and  C_18
REMARK    5  A    between atoms: O_4  and  C_25
REMARK    6  A    between atoms: C_8  and  C_10
REMARK    7  A    between atoms: C_17  and  C_18
REMARK    8  A    between atoms: C_17  and  C_20
REMARK    9  A    between atoms: C_18  and  C_25
REMARK                            x       y       z     vdW  Elec       q    Type
REMARK                         _______ _______ _______ _____ _____    ______ ____
ROOT
ATOM      1  N   UNL     1       7.638  30.683  16.022  0.00  0.00    +0.000 NA
ATOM      2  N   UNL     1       4.742  32.568  15.222  0.00  0.00    +0.000 NA
ATOM      3  C   UNL     1       6.444  30.788  15.494  0.00  0.00    +0.000 C 
ATOM      4  C   UNL     1       5.944  32.220  15.556  0.00  0.00    +0.000 C 
ATOM      5  C   UNL     1       7.061  32.963  16.123  0.00  0.00    +0.000 A 
ATOM      6  C   UNL     1       8.019  31.984  16.390  0.00  0.00    +0.000 A 
ATOM      7  C   UNL     1       7.267  34.301  16.411  0.00  0.00    +0.000 A 
ATOM      8  C   UNL     1       9.229  32.334  16.963  0.00  0.00    +0.000 A 
ATOM      9  C   UNL     1       8.488  34.656  16.989  0.00  0.00    +0.000 A 
ATOM     10  C   UNL     1       9.462  33.680  17.264  0.00  0.00    +0.000 A 
ENDROOT
BRANCH   3  12
ATOM     11  N   UNL     1       5.400  27.655  13.996  0.00  0.00    +0.000 N 
ATOM     12  C   UNL     1       5.768  29.627  14.967  0.00  0.00    +0.000 A 
ATOM     13  C   UNL     1       4.359  29.350  14.991  0.00  0.00    +0.000 A 
ATOM     14  C   UNL     1       4.160  28.119  14.366  0.00  0.00    +0.000 A 
ATOM     15  C   UNL     1       6.379  28.538  14.369  0.00  0.00    +0.000 A 
ATOM     16  C   UNL     1       3.227  30.041  15.474  0.00  0.00    +0.000 A 
ATOM     17  C   UNL     1       2.895  27.543  14.202  0.00  0.00    +0.000 A 
ATOM     18  C   UNL     1       1.954  29.482  15.319  0.00  0.00    +0.000 A 
ATOM     19  C   UNL     1       1.793  28.250  14.691  0.00  0.00    +0.000 A 
ATOM     20  H   UNL     1       5.552  26.769  13.539  0.00  0.00    +0.000 HD
BRANCH  15  21
ATOM     21  O   UNL     1       7.667  28.275  14.176  0.00  0.00    +0.000 OA
ATOM     22  H   UNL     1       8.060  28.923  13.569  0.00  0.00    +0.000 HD
ENDBRANCH  15  21
ENDBRANCH   3  12
BRANCH   2  23
ATOM     23  O   UNL     1       4.514  33.933  15.414  0.00  0.00    +0.000 OA
BRANCH  23  24
ATOM     24  C   UNL     1       3.754  34.421  14.312  0.00  0.00    +0.000 C 
BRANCH  24  25
ATOM     25  C   UNL     1       2.496  33.579  14.152  0.00  0.00    +0.000 C 
BRANCH  25  26
ATOM     26  C   UNL     1       1.343  34.000  15.064  0.00  0.00    +0.000 C 
BRANCH  26  27
ATOM     27  O   UNL     1       0.142  34.009  14.278  0.00  0.00    +0.000 OA
ATOM     28  H   UNL     1      -0.235  34.901  14.420  0.00  0.00    +0.000 HD
ENDBRANCH  26  27
BRANCH  26  29
ATOM     29  C   UNL     1       1.124  33.070  16.262  0.00  0.00    +0.000 C 
BRANCH  29  30
ATOM     30  O   UNL     1       2.271  33.162  17.114  0.00  0.00    +0.000 OA
ATOM     31  H   UNL     1       2.470  34.111  17.209  0.00  0.00    +0.000 HD
ENDBRANCH  29  30
ENDBRANCH  26  29
ENDBRANCH  25  26
ENDBRANCH  24  25
ENDBRANCH  23  24
ENDBRANCH   2  23
TORSDOF 9
ENDMDL
MODEL 2
REMARK VINA RESULT:      -8.3      1.511      2.087
REMARK  Name = 
REMARK  9 active torsions:
REMARK  status: ('A' for Active; 'I' for Inactive)
REMARK    1  A    between atoms: O_1  and  N_7
REMARK    2  A    between atoms: O_1  and  C_20
REMARK    3  A    between atoms: O_2  and  C_14
REMARK    4  A    between atoms: O_3  and  C_18
REMARK    5  A    between atoms: O_4  and  C_25
REMARK    6  A    between atoms: C_8  and  C_10
REMARK    7  A    between atoms: C_17  and  C_18
REMARK    8  A    between atoms: C_17  and  C_20
REMARK    9  A    between atoms: C_18  and  C_25
REMARK                            x       y       z     vdW  Elec       q    Type
REMARK                         _______ _______ _______ _____ _____    ______ ____
ROOT
ATOM      1  N   UNL     1       6.451  29.115  15.764  0.00  0.00    +0.000 NA
ATOM      2  N   UNL     1       4.757  32.188  15.244  0.00  0.00    +0.000 NA
ATOM      3  C   UNL     1       5.398  29.799  15.391  0.00  0.00    +0.000 C 
ATOM      4  C   UNL     1       5.672  31.292  15.437  0.00  0.00    +0.000 C 
ATOM      5  C   UNL     1       7.076  31.384  15.810  0.00  0.00    +0.000 A 
ATOM      6  C   UNL     1       7.464  30.058  16.005  0.00  0.00    +0.000 A 
ATOM      7  C   UNL     1       7.945  32.446  15.993  0.00  0.00    +0.000 A 
ATOM      8  C   UNL     1       8.758  29.763  16.395  0.00  0.00    +0.000 A 
ATOM      9  C   UNL     1       9.253  32.149  16.385  0.00  0.00    +0.000 A 
ATOM     10  C   UNL     1       9.657  30.818  16.586  0.00  0.00    +0.000 A 
ENDROOT
BRANCH   3  12
ATOM     11  N   UNL     1       2.758  27.667  14.112  0.00  0.00    +0.000 N 
ATOM     12  C   UNL     1       4.175  29.125  15.023  0.00  0.00    +0.000 A 
ATOM     13  C   UNL     1       2.838  29.463  15.421  0.00  0.00    +0.000 A 
ATOM     14  C   UNL     1       1.976  28.542  14.826  0.00  0.00    +0.000 A 
ATOM     15  C   UNL     1       4.084  27.990  14.237  0.00  0.00    +0.000 A 
ATOM     16  C   UNL     1       2.275  30.479  16.224  0.00  0.00    +0.000 A 
ATOM     17  C   UNL     1       0.586  28.581  14.991  0.00  0.00    +0.000 A 
ATOM     18  C   UNL     1       0.888  30.534  16.401  0.00  0.00    +0.000 A 
ATOM     19  C   UNL     1       0.057  29.598  15.792  0.00  0.00    +0.000 A 
ATOM     20  H   UNL     1       2.392  26.882  13.595  0.00  0.00    +0.000 HD
BRANCH  15  21
ATOM     21  O   UNL     1       5.039  27.246  13.688  0.00  0.00    +0.000 OA
ATOM     22  H   UNL     1       5.114  26.394  14.146  0.00  0.00    +0.000 HD
ENDBRANCH  15  21
ENDBRANCH   3  12
BRANCH   2  23
ATOM     23  O   UNL     1       5.252  33.487  15.386  0.00  0.00    +0.000 OA
BRANCH  23  24
ATOM     24  C   UNL     1       4.378  34.378  14.698  0.00  0.00    +0.000 C 
BRANCH  24  25
ATOM     25  C   UNL     1       3.109  33.638  14.303  0.00  0.00    +0.000 C 
BRANCH  25  26
ATOM     26  C   UNL     1       1.860  34.518  14.260  0.00  0.00    +0.000 C 
BRANCH  26  27
ATOM     27  O   UNL     1       1.682  34.965  12.907  0.00  0.00    +0.000 OA
ATOM     28  H   UNL     1       0.715  35.076  12.812  0.00  0.00    +0.000 HD
ENDBRANCH  26  27
BRANCH  26  29
ATOM     29  C   UNL     1       0.577  33.804  14.700  0.00  0.00    +0.000 C 
BRANCH  29  30
ATOM     30  O   UNL     1      -0.485  34.764  14.715  0.00  0.00    +0.000 OA
ATOM     31  H   UNL     1      -0.291  35.381  15.443  0.00  0.00    +0.000 HD
ENDBRANCH  29  30
ENDBRANCH  26  29
ENDBRANCH  25  26
ENDBRANCH  24  25
ENDBRANCH  23  24
ENDBRANCH   2  23
TORSDOF 9
ENDMDL
MODEL 3
REMARK VINA RESULT:      -8.3      2.381      5.584
REMARK  Name = 
REMARK  9 active torsions:
REMARK  status: ('A' for Active; 'I' for Inactive)
REMARK    1  A    between atoms: O_1  and  N_7
REMARK    2  A    between atoms: O_1  and  C_20
REMARK    3  A    between atoms: O_2  and  C_14
REMARK    4  A    between atoms: O_3  and  C_18
REMARK    5  A    between atoms: O_4  and  C_25
REMARK    6  A    between atoms: C_8  and  C_10
REMARK    7  A    between atoms: C_17  and  C_18
REMARK    8  A    between atoms: C_17  and  C_20
REMARK    9  A    between atoms: C_18  and  C_25
REMARK                            x       y       z     vdW  Elec       q    Type
REMARK                         _______ _______ _______ _____ _____    ______ ____
ROOT
ATOM      1  N   UNL     1       4.156  30.370  15.106  0.00  0.00    +0.000 NA
ATOM      2  N   UNL     1       5.943  33.214  16.246  0.00  0.00    +0.000 NA
ATOM      3  C   UNL     1       4.229  31.648  15.380  0.00  0.00    +0.000 C 
ATOM      4  C   UNL     1       5.635  32.039  15.797  0.00  0.00    +0.000 C 
ATOM      5  C   UNL     1       6.405  30.813  15.643  0.00  0.00    +0.000 A 
ATOM      6  C   UNL     1       5.460  29.865  15.250  0.00  0.00    +0.000 A 
ATOM      7  C   UNL     1       7.740  30.497  15.825  0.00  0.00    +0.000 A 
ATOM      8  C   UNL     1       5.841  28.554  15.026  0.00  0.00    +0.000 A 
ATOM      9  C   UNL     1       8.127  29.174  15.599  0.00  0.00    +0.000 A 
ATOM     10  C   UNL     1       7.185  28.209  15.204  0.00  0.00    +0.000 A 
ENDROOT
BRANCH   3  12
ATOM     11  N   UNL     1       1.727  34.217  14.830  0.00  0.00    +0.000 N 
ATOM     12  C   UNL     1       3.057  32.488  15.288  0.00  0.00    +0.000 A 
ATOM     13  C   UNL     1       1.726  32.182  15.727  0.00  0.00    +0.000 A 
ATOM     14  C   UNL     1       0.922  33.285  15.440  0.00  0.00    +0.000 A 
ATOM     15  C   UNL     1       3.009  33.745  14.711  0.00  0.00    +0.000 A 
ATOM     16  C   UNL     1       1.128  31.070  16.360  0.00  0.00    +0.000 A 
ATOM     17  C   UNL     1      -0.443  33.335  15.747  0.00  0.00    +0.000 A 
ATOM     18  C   UNL     1      -0.235  31.101  16.674  0.00  0.00    +0.000 A 
ATOM     19  C   UNL     1      -1.007  32.219  16.372  0.00  0.00    +0.000 A 
ATOM     20  H   UNL     1       1.397  35.109  14.496  0.00  0.00    +0.000 HD
BRANCH  15  21
ATOM     21  O   UNL     1       3.955  34.445  14.094  0.00  0.00    +0.000 OA
ATOM     22  H   UNL     1       3.875  34.352  13.131  0.00  0.00    +0.000 HD
ENDBRANCH  15  21
ENDBRANCH   3  12
BRANCH   2  23
ATOM     23  O   UNL     1       7.289  33.307  16.605  0.00  0.00    +0.000 OA
BRANCH  23  24
ATOM     24  C   UNL     1       7.627  34.686  16.729  0.00  0.00    +0.000 C 
BRANCH  24  25
ATOM     25  C   UNL     1       8.985  34.934  16.088  0.00  0.00    +0.000 C 
BRANCH  25  26
ATOM     26  C   UNL     1       9.183  36.360  15.574  0.00  0.00    +0.000 C 
BRANCH  26  27
ATOM     27  O   UNL     1      10.138  36.313  14.503  0.00  0.00    +0.000 OA
ATOM     28  H   UNL     1       9.985  37.140  14.003  0.00  0.00    +0.000 HD
ENDBRANCH  26  27
BRANCH  26  29
ATOM     29  C   UNL     1       7.903  37.016  15.045  0.00  0.00    +0.000 C 
BRANCH  29  30
ATOM     30  O   UNL     1       8.215  37.671  13.811  0.00  0.00    +0.000 OA
ATOM     31  H   UNL     1       9.056  37.290  13.500  0.00  0.00    +0.000 HD
ENDBRANCH  29  30
ENDBRANCH  26  29
ENDBRANCH  25  26
ENDBRANCH  24  25
ENDBRANCH  23  24
ENDBRANCH   2  23
TORSDOF 9
ENDMDL
MODEL 4
REMARK VINA RESULT:      -7.7      2.464      4.611
REMARK  Name = 
REMARK  9 active torsions:
REMARK  status: ('A' for Active; 'I' for Inactive)
REMARK    1  A    between atoms: O_1  and  N_7
REMARK    2  A    between atoms: O_1  and  C_20
REMARK    3  A    between atoms: O_2  and  C_14
REMARK    4  A    between atoms: O_3  and  C_18
REMARK    5  A    between atoms: O_4  and  C_25
REMARK    6  A    between atoms: C_8  and  C_10
REMARK    7  A    between atoms: C_17  and  C_18
REMARK    8  A    between atoms: C_17  and  C_20
REMARK    9  A    between atoms: C_18  and  C_25
REMARK                            x       y       z     vdW  Elec       q    Type
REMARK                         _______ _______ _______ _____ _____    ______ ____
ROOT
ATOM      1  N   UNL     1       5.884  27.954  14.962  0.00  0.00    +0.000 NA
ATOM      2  N   UNL     1       5.681  31.390  15.822  0.00  0.00    +0.000 NA
ATOM      3  C   UNL     1       5.198  29.054  15.151  0.00  0.00    +0.000 C 
ATOM      4  C   UNL     1       6.114  30.223  15.466  0.00  0.00    +0.000 C 
ATOM      5  C   UNL     1       7.455  29.665  15.349  0.00  0.00    +0.000 A 
ATOM      6  C   UNL     1       7.238  28.316  15.067  0.00  0.00    +0.000 A 
ATOM      7  C   UNL     1       8.723  30.201  15.479  0.00  0.00    +0.000 A 
ATOM      8  C   UNL     1       8.311  27.458  14.907  0.00  0.00    +0.000 A 
ATOM      9  C   UNL     1       9.809  29.337  15.316  0.00  0.00    +0.000 A 
ATOM     10  C   UNL     1       9.605  27.975  15.034  0.00  0.00    +0.000 A 
ENDROOT
BRANCH   3  12
ATOM     11  N   UNL     1       1.673  28.446  14.551  0.00  0.00    +0.000 N 
ATOM     12  C   UNL     1       3.756  29.045  15.068  0.00  0.00    +0.000 A 
ATOM     13  C   UNL     1       2.841  29.968  15.677  0.00  0.00    +0.000 A 
ATOM     14  C   UNL     1       1.549  29.575  15.325  0.00  0.00    +0.000 A 
ATOM     15  C   UNL     1       2.992  28.101  14.405  0.00  0.00    +0.000 A 
ATOM     16  C   UNL     1       2.989  31.115  16.486  0.00  0.00    +0.000 A 
ATOM     17  C   UNL     1       0.403  30.264  15.739  0.00  0.00    +0.000 A 
ATOM     18  C   UNL     1       1.856  31.817  16.911  0.00  0.00    +0.000 A 
ATOM     19  C   UNL     1       0.581  31.395  16.541  0.00  0.00    +0.000 A 
ATOM     20  H   UNL     1       0.888  27.937  14.174  0.00  0.00    +0.000 HD
BRANCH  15  21
ATOM     21  O   UNL     1       3.358  27.004  13.750  0.00  0.00    +0.000 OA
ATOM     22  H   UNL     1       2.995  27.008  12.850  0.00  0.00    +0.000 HD
ENDBRANCH  15  21
ENDBRANCH   3  12
BRANCH   2  23
ATOM     23  O   UNL     1       6.722  32.278  16.103  0.00  0.00    +0.000 OA
BRANCH  23  24
ATOM     24  C   UNL     1       6.177  33.591  16.205  0.00  0.00    +0.000 C 
BRANCH  24  25
ATOM     25  C   UNL     1       7.249  34.545  16.712  0.00  0.00    +0.000 C 
BRANCH  25  26
ATOM     26  C   UNL     1       8.048  34.012  17.902  0.00  0.00    +0.000 C 
BRANCH  26  27
ATOM     27  O   UNL     1       9.278  33.468  17.399  0.00  0.00    +0.000 OA
ATOM     28  H   UNL     1       9.120  33.356  16.440  0.00  0.00    +0.000 HD
ENDBRANCH  26  27
BRANCH  26  29
ATOM     29  C   UNL     1       8.388  35.076  18.951  0.00  0.00    +0.000 C 
BRANCH  29  30
ATOM     30  O   UNL     1       7.621  36.249  18.661  0.00  0.00    +0.000 OA
ATOM     31  H   UNL     1       8.171  36.804  18.080  0.00  0.00    +0.000 HD
ENDBRANCH  29  30
ENDBRANCH  26  29
ENDBRANCH  25  26
ENDBRANCH  24  25
ENDBRANCH  23  24
ENDBRANCH   2  23
TORSDOF 9
ENDMDL
MODEL 5
REMARK VINA RESULT:      -7.4      2.829      5.027
REMARK  Name = 
REMARK  9 active torsions:
REMARK  status: ('A' for Active; 'I' for Inactive)
REMARK    1  A    between atoms: O_1  and  N_7
REMARK    2  A    between atoms: O_1  and  C_20
REMARK    3  A    between atoms: O_2  and  C_14
REMARK    4  A    between atoms: O_3  and  C_18
REMARK    5  A    between atoms: O_4  and  C_25
REMARK    6  A    between atoms: C_8  and  C_10
REMARK    7  A    between atoms: C_17  and  C_18
REMARK    8  A    between atoms: C_17  and  C_20
REMARK    9  A    between atoms: C_18  and  C_25
REMARK                            x       y       z     vdW  Elec       q    Type
REMARK                         _______ _______ _______ _____ _____    ______ ____
ROOT
ATOM      1  N   UNL     1       7.656  28.934  16.010  0.00  0.00    +0.000 NA
ATOM      2  N   UNL     1       7.815  32.446  15.534  0.00  0.00    +0.000 NA
ATOM      3  C   UNL     1       7.082  30.100  15.844  0.00  0.00    +0.000 C 
ATOM      4  C   UNL     1       8.111  31.187  15.597  0.00  0.00    +0.000 C 
ATOM      5  C   UNL     1       9.380  30.472  15.555  0.00  0.00    +0.000 A 
ATOM      6  C   UNL     1       9.033  29.148  15.825  0.00  0.00    +0.000 A 
ATOM      7  C   UNL     1      10.688  30.866  15.337  0.00  0.00    +0.000 A 
ATOM      8  C   UNL     1      10.011  28.171  15.884  0.00  0.00    +0.000 A 
ATOM      9  C   UNL     1      11.677  29.881  15.395  0.00  0.00    +0.000 A 
ATOM     10  C   UNL     1      11.342  28.544  15.668  0.00  0.00    +0.000 A 
ENDROOT
BRANCH   3  12
ATOM     11  N   UNL     1       3.620  31.000  16.446  0.00  0.00    +0.000 N 
ATOM     12  C   UNL     1       5.646  30.230  15.927  0.00  0.00    +0.000 A 
ATOM     13  C   UNL     1       4.656  29.392  15.312  0.00  0.00    +0.000 A 
ATOM     14  C   UNL     1       3.402  29.890  15.665  0.00  0.00    +0.000 A 
ATOM     15  C   UNL     1       4.963  31.231  16.595  0.00  0.00    +0.000 A 
ATOM     16  C   UNL     1       4.708  28.241  14.495  0.00  0.00    +0.000 A 
ATOM     17  C   UNL     1       2.202  29.304  15.246  0.00  0.00    +0.000 A 
ATOM     18  C   UNL     1       3.519  27.641  14.066  0.00  0.00    +0.000 A 
ATOM     19  C   UNL     1       2.285  28.166  14.438  0.00  0.00    +0.000 A 
ATOM     20  H   UNL     1       2.881  31.571  16.826  0.00  0.00    +0.000 HD
BRANCH  15  21
ATOM     21  O   UNL     1       5.420  32.289  17.257  0.00  0.00    +0.000 OA
ATOM     22  H   UNL     1       5.156  32.247  18.190  0.00  0.00    +0.000 HD
ENDBRANCH  15  21
ENDBRANCH   3  12
BRANCH   2  23
ATOM     23  O   UNL     1       8.944  33.247  15.347  0.00  0.00    +0.000 OA
BRANCH  23  24
ATOM     24  C   UNL     1       8.775  34.445  16.099  0.00  0.00    +0.000 C 
BRANCH  24  25
ATOM     25  C   UNL     1      10.021  35.307  15.964  0.00  0.00    +0.000 C 
BRANCH  25  26
ATOM     26  C   UNL     1       9.757  36.704  15.401  0.00  0.00    +0.000 C 
BRANCH  26  27
ATOM     27  O   UNL     1      10.505  36.837  14.183  0.00  0.00    +0.000 OA
ATOM     28  H   UNL     1      10.825  37.762  14.193  0.00  0.00    +0.000 HD
ENDBRANCH  26  27
BRANCH  26  29
ATOM     29  C   UNL     1       8.283  36.984  15.090  0.00  0.00    +0.000 C 
BRANCH  29  30
ATOM     30  O   UNL     1       8.211  37.625  13.812  0.00  0.00    +0.000 OA
ATOM     31  H   UNL     1       7.641  38.406  13.926  0.00  0.00    +0.000 HD
ENDBRANCH  29  30
ENDBRANCH  26  29
ENDBRANCH  25  26
ENDBRANCH  24  25
ENDBRANCH  23  24
ENDBRANCH   2  23
TORSDOF 9
ENDMDL
MODEL 6
REMARK VINA RESULT:      -7.2      2.888      4.136
REMARK  Name = 
REMARK  9 active torsions:
REMARK  status: ('A' for Active; 'I' for Inactive)
REMARK    1  A    between atoms: O_1  and  N_7
REMARK    2  A    between atoms: O_1  and  C_20
REMARK    3  A    between atoms: O_2  and  C_14
REMARK    4  A    between atoms: O_3  and  C_18
REMARK    5  A    between atoms: O_4  and  C_25
REMARK    6  A    between atoms: C_8  and  C_10
REMARK    7  A    between atoms: C_17  and  C_18
REMARK    8  A    between atoms: C_17  and  C_20
REMARK    9  A    between atoms: C_18  and  C_25
REMARK                            x       y       z     vdW  Elec       q    Type
REMARK                         _______ _______ _______ _____ _____    ______ ____
ROOT
ATOM      1  N   UNL     1       8.933  29.213  17.027  0.00  0.00    +0.000 NA
ATOM      2  N   UNL     1       7.783  32.246  15.592  0.00  0.00    +0.000 NA
ATOM      3  C   UNL     1       8.123  29.880  16.243  0.00  0.00    +0.000 C 
ATOM      4  C   UNL     1       8.502  31.349  16.188  0.00  0.00    +0.000 C 
ATOM      5  C   UNL     1       9.714  31.434  16.991  0.00  0.00    +0.000 A 
ATOM      6  C   UNL     1       9.896  30.136  17.469  0.00  0.00    +0.000 A 
ATOM      7  C   UNL     1      10.570  32.471  17.315  0.00  0.00    +0.000 A 
ATOM      8  C   UNL     1      10.964  29.844  18.299  0.00  0.00    +0.000 A 
ATOM      9  C   UNL     1      11.650  32.178  18.153  0.00  0.00    +0.000 A 
ATOM     10  C   UNL     1      11.845  30.875  18.642  0.00  0.00    +0.000 A 
ENDROOT
BRANCH   3  12
ATOM     11  N   UNL     1       5.883  27.807  14.284  0.00  0.00    +0.000 N 
ATOM     12  C   UNL     1       7.027  29.213  15.579  0.00  0.00    +0.000 A 
ATOM     13  C   UNL     1       5.625  29.488  15.717  0.00  0.00    +0.000 A 
ATOM     14  C   UNL     1       4.938  28.602  14.887  0.00  0.00    +0.000 A 
ATOM     15  C   UNL     1       7.142  28.146  14.706  0.00  0.00    +0.000 A 
ATOM     16  C   UNL     1       4.872  30.421  16.463  0.00  0.00    +0.000 A 
ATOM     17  C   UNL     1       3.544  28.598  14.765  0.00  0.00    +0.000 A 
ATOM     18  C   UNL     1       3.477  30.431  16.354  0.00  0.00    +0.000 A 
ATOM     19  C   UNL     1       2.824  29.532  15.515  0.00  0.00    +0.000 A 
ATOM     20  H   UNL     1       5.660  27.060  13.643  0.00  0.00    +0.000 HD
BRANCH  15  21
ATOM     21  O   UNL     1       8.216  27.471  14.309  0.00  0.00    +0.000 OA
ATOM     22  H   UNL     1       8.710  27.977  13.644  0.00  0.00    +0.000 HD
ENDBRANCH  15  21
ENDBRANCH   3  12
BRANCH   2  23
ATOM     23  O   UNL     1       8.321  33.528  15.725  0.00  0.00    +0.000 OA
BRANCH  23  24
ATOM     24  C   UNL     1       7.363  34.351  16.384  0.00  0.00    +0.000 C 
BRANCH  24  25
ATOM     25  C   UNL     1       8.054  35.588  16.938  0.00  0.00    +0.000 C 
BRANCH  25  26
ATOM     26  C   UNL     1       8.507  36.584  15.869  0.00  0.00    +0.000 C 
BRANCH  26  27
ATOM     27  O   UNL     1       9.476  35.926  15.038  0.00  0.00    +0.000 OA
ATOM     28  H   UNL     1       9.020  35.119  14.726  0.00  0.00    +0.000 HD
ENDBRANCH  26  27
BRANCH  26  29
ATOM     29  C   UNL     1       7.374  37.094  14.972  0.00  0.00    +0.000 C 
BRANCH  29  30
ATOM     30  O   UNL     1       7.173  38.483  15.256  0.00  0.00    +0.000 OA
ATOM     31  H   UNL     1       7.716  38.978  14.616  0.00  0.00    +0.000 HD
ENDBRANCH  29  30
ENDBRANCH  26  29
ENDBRANCH  25  26
ENDBRANCH  24  25
ENDBRANCH  23  24
ENDBRANCH   2  23
TORSDOF 9
ENDMDL
MODEL 7
REMARK VINA RESULT:      -6.9     21.374     23.712
REMARK  Name = 
REMARK  9 active torsions:
REMARK  status: ('A' for Active; 'I' for Inactive)
REMARK    1  A    between atoms: O_1  and  N_7
REMARK    2  A    between atoms: O_1  and  C_20
REMARK    3  A    between atoms: O_2  and  C_14
REMARK    4  A    between atoms: O_3  and  C_18
REMARK    5  A    between atoms: O_4  and  C_25
REMARK    6  A    between atoms: C_8  and  C_10
REMARK    7  A    between atoms: C_17  and  C_18
REMARK    8  A    between atoms: C_17  and  C_20
REMARK    9  A    between atoms: C_18  and  C_25
REMARK                            x       y       z     vdW  Elec       q    Type
REMARK                         _______ _______ _______ _____ _____    ______ ____
ROOT
ATOM      1  N   UNL     1     -15.244  31.415  21.430  0.00  0.00    +0.000 NA
ATOM      2  N   UNL     1     -17.872  31.528  23.809  0.00  0.00    +0.000 NA
ATOM      3  C   UNL     1     -15.846  31.968  22.453  0.00  0.00    +0.000 C 
ATOM      4  C   UNL     1     -17.032  31.136  22.904  0.00  0.00    +0.000 C 
ATOM      5  C   UNL     1     -16.989  29.960  22.047  0.00  0.00    +0.000 A 
ATOM      6  C   UNL     1     -15.916  30.205  21.189  0.00  0.00    +0.000 A 
ATOM      7  C   UNL     1     -17.759  28.814  21.962  0.00  0.00    +0.000 A 
ATOM      8  C   UNL     1     -15.587  29.286  20.208  0.00  0.00    +0.000 A 
ATOM      9  C   UNL     1     -17.428  27.885  20.973  0.00  0.00    +0.000 A 
ATOM     10  C   UNL     1     -16.351  28.119  20.101  0.00  0.00    +0.000 A 
ENDROOT
BRANCH   3  12
ATOM     11  N   UNL     1     -15.016  35.404  23.266  0.00  0.00    +0.000 N 
ATOM     12  C   UNL     1     -15.375  33.222  22.994  0.00  0.00    +0.000 A 
ATOM     13  C   UNL     1     -14.579  33.420  24.172  0.00  0.00    +0.000 A 
ATOM     14  C   UNL     1     -14.362  34.791  24.308  0.00  0.00    +0.000 A 
ATOM     15  C   UNL     1     -15.649  34.477  22.479  0.00  0.00    +0.000 A 
ATOM     16  C   UNL     1     -14.008  32.558  25.133  0.00  0.00    +0.000 A 
ATOM     17  C   UNL     1     -13.608  35.344  25.350  0.00  0.00    +0.000 A 
ATOM     18  C   UNL     1     -13.252  33.092  26.182  0.00  0.00    +0.000 A 
ATOM     19  C   UNL     1     -13.056  34.466  26.287  0.00  0.00    +0.000 A 
ATOM     20  H   UNL     1     -15.041  36.404  23.131  0.00  0.00    +0.000 HD
BRANCH  15  21
ATOM     21  O   UNL     1     -16.402  34.837  21.446  0.00  0.00    +0.000 OA
ATOM     22  H   UNL     1     -16.889  35.653  21.646  0.00  0.00    +0.000 HD
ENDBRANCH  15  21
ENDBRANCH   3  12
BRANCH   2  23
ATOM     23  O   UNL     1     -18.901  30.605  24.011  0.00  0.00    +0.000 OA
BRANCH  23  24
ATOM     24  C   UNL     1     -20.120  31.185  23.554  0.00  0.00    +0.000 C 
BRANCH  24  25
ATOM     25  C   UNL     1     -20.402  32.456  24.342  0.00  0.00    +0.000 C 
BRANCH  25  26
ATOM     26  C   UNL     1     -20.612  33.696  23.474  0.00  0.00    +0.000 C 
BRANCH  26  27
ATOM     27  O   UNL     1     -21.808  34.352  23.924  0.00  0.00    +0.000 OA
ATOM     28  H   UNL     1     -22.415  33.620  24.154  0.00  0.00    +0.000 HD
ENDBRANCH  26  27
BRANCH  26  29
ATOM     29  C   UNL     1     -19.461  34.705  23.537  0.00  0.00    +0.000 C 
BRANCH  29  30
ATOM     30  O   UNL     1     -19.156  35.118  22.201  0.00  0.00    +0.000 OA
ATOM     31  H   UNL     1     -18.313  34.690  21.963  0.00  0.00    +0.000 HD
ENDBRANCH  29  30
ENDBRANCH  26  29
ENDBRANCH  25  26
ENDBRANCH  24  25
ENDBRANCH  23  24
ENDBRANCH   2  23
TORSDOF 9
ENDMDL
MODEL 8
REMARK VINA RESULT:      -6.9     10.006     13.422
REMARK  Name = 
REMARK  9 active torsions:
REMARK  status: ('A' for Active; 'I' for Inactive)
REMARK    1  A    between atoms: O_1  and  N_7
REMARK    2  A    between atoms: O_1  and  C_20
REMARK    3  A    between atoms: O_2  and  C_14
REMARK    4  A    between atoms: O_3  and  C_18
REMARK    5  A    between atoms: O_4  and  C_25
REMARK    6  A    between atoms: C_8  and  C_10
REMARK    7  A    between atoms: C_17  and  C_18
REMARK    8  A    between atoms: C_17  and  C_20
REMARK    9  A    between atoms: C_18  and  C_25
REMARK                            x       y       z     vdW  Elec       q    Type
REMARK                         _______ _______ _______ _____ _____    ______ ____
ROOT
ATOM      1  N   UNL     1      -0.945  43.369  18.921  0.00  0.00    +0.000 NA
ATOM      2  N   UNL     1      -1.337  41.940  15.698  0.00  0.00    +0.000 NA
ATOM      3  C   UNL     1      -0.529  43.161  17.697  0.00  0.00    +0.000 C 
ATOM      4  C   UNL     1      -1.559  42.388  16.893  0.00  0.00    +0.000 C 
ATOM      5  C   UNL     1      -2.687  42.247  17.803  0.00  0.00    +0.000 A 
ATOM      6  C   UNL     1      -2.243  42.835  18.987  0.00  0.00    +0.000 A 
ATOM      7  C   UNL     1      -3.942  41.678  17.682  0.00  0.00    +0.000 A 
ATOM      8  C   UNL     1      -3.067  42.865  20.099  0.00  0.00    +0.000 A 
ATOM      9  C   UNL     1      -4.775  41.708  18.803  0.00  0.00    +0.000 A 
ATOM     10  C   UNL     1      -4.341  42.296  20.003  0.00  0.00    +0.000 A 
ENDROOT
BRANCH   3  12
ATOM     11  N   UNL     1       2.464  44.982  16.756  0.00  0.00    +0.000 N 
ATOM     12  C   UNL     1       0.770  43.629  17.272  0.00  0.00    +0.000 A 
ATOM     13  C   UNL     1       1.896  42.834  16.869  0.00  0.00    +0.000 A 
ATOM     14  C   UNL     1       2.932  43.708  16.541  0.00  0.00    +0.000 A 
ATOM     15  C   UNL     1       1.173  44.952  17.217  0.00  0.00    +0.000 A 
ATOM     16  C   UNL     1       2.127  41.448  16.737  0.00  0.00    +0.000 A 
ATOM     17  C   UNL     1       4.184  43.271  16.092  0.00  0.00    +0.000 A 
ATOM     18  C   UNL     1       3.372  40.992  16.290  0.00  0.00    +0.000 A 
ATOM     19  C   UNL     1       4.385  41.893  15.972  0.00  0.00    +0.000 A 
ATOM     20  H   UNL     1       3.017  45.814  16.617  0.00  0.00    +0.000 HD
BRANCH  15  21
ATOM     21  O   UNL     1       0.528  46.062  17.559  0.00  0.00    +0.000 OA
ATOM     22  H   UNL     1      -0.265  46.178  17.011  0.00  0.00    +0.000 HD
ENDBRANCH  15  21
ENDBRANCH   3  12
BRANCH   2  23
ATOM     23  O   UNL     1      -2.424  41.222  15.193  0.00  0.00    +0.000 OA
BRANCH  23  24
ATOM     24  C   UNL     1      -2.102  40.789  13.874  0.00  0.00    +0.000 C 
BRANCH  24  25
ATOM     25  C   UNL     1      -2.324  39.287  13.766  0.00  0.00    +0.000 C 
BRANCH  25  26
ATOM     26  C   UNL     1      -1.385  38.452  14.637  0.00  0.00    +0.000 C 
BRANCH  26  27
ATOM     27  O   UNL     1      -0.327  39.311  15.092  0.00  0.00    +0.000 OA
ATOM     28  H   UNL     1      -0.654  39.671  15.941  0.00  0.00    +0.000 HD
ENDBRANCH  26  27
BRANCH  26  29
ATOM     29  C   UNL     1      -2.059  37.831  15.865  0.00  0.00    +0.000 C 
BRANCH  29  30
ATOM     30  O   UNL     1      -2.446  38.892  16.745  0.00  0.00    +0.000 OA
ATOM     31  H   UNL     1      -3.313  38.643  17.115  0.00  0.00    +0.000 HD
ENDBRANCH  29  30
ENDBRANCH  26  29
ENDBRANCH  25  26
ENDBRANCH  24  25
ENDBRANCH  23  24
ENDBRANCH   2  23
TORSDOF 9
ENDMDL
MODEL 9
REMARK VINA RESULT:      -6.8      2.597      5.527
REMARK  Name = 
REMARK  9 active torsions:
REMARK  status: ('A' for Active; 'I' for Inactive)
REMARK    1  A    between atoms: O_1  and  N_7
REMARK    2  A    between atoms: O_1  and  C_20
REMARK    3  A    between atoms: O_2  and  C_14
REMARK    4  A    between atoms: O_3  and  C_18
REMARK    5  A    between atoms: O_4  and  C_25
REMARK    6  A    between atoms: C_8  and  C_10
REMARK    7  A    between atoms: C_17  and  C_18
REMARK    8  A    between atoms: C_17  and  C_20
REMARK    9  A    between atoms: C_18  and  C_25
REMARK                            x       y       z     vdW  Elec       q    Type
REMARK                         _______ _______ _______ _____ _____    ______ ____
ROOT
ATOM      1  N   UNL     1       5.495  29.264  15.183  0.00  0.00    +0.000 NA
ATOM      2  N   UNL     1       6.345  32.555  16.198  0.00  0.00    +0.000 NA
ATOM      3  C   UNL     1       5.171  30.504  15.452  0.00  0.00    +0.000 C 
ATOM      4  C   UNL     1       6.402  31.334  15.771  0.00  0.00    +0.000 C 
ATOM      5  C   UNL     1       7.513  30.415  15.563  0.00  0.00    +0.000 A 
ATOM      6  C   UNL     1       6.897  29.207  15.235  0.00  0.00    +0.000 A 
ATOM      7  C   UNL     1       8.887  30.548  15.652  0.00  0.00    +0.000 A 
ATOM      8  C   UNL     1       7.664  28.082  14.985  0.00  0.00    +0.000 A 
ATOM      9  C   UNL     1       9.663  29.413  15.399  0.00  0.00    +0.000 A 
ATOM     10  C   UNL     1       9.056  28.189  15.069  0.00  0.00    +0.000 A 
ENDROOT
BRANCH   3  12
ATOM     11  N   UNL     1       1.575  30.911  15.696  0.00  0.00    +0.000 N 
ATOM     12  C   UNL     1       3.789  30.923  15.442  0.00  0.00    +0.000 A 
ATOM     13  C   UNL     1       3.264  32.192  15.022  0.00  0.00    +0.000 A 
ATOM     14  C   UNL     1       1.879  32.148  15.181  0.00  0.00    +0.000 A 
ATOM     15  C   UNL     1       2.714  30.170  15.880  0.00  0.00    +0.000 A 
ATOM     16  C   UNL     1       3.837  33.374  14.506  0.00  0.00    +0.000 A 
ATOM     17  C   UNL     1       1.040  33.220  14.855  0.00  0.00    +0.000 A 
ATOM     18  C   UNL     1       3.015  34.456  14.175  0.00  0.00    +0.000 A 
ATOM     19  C   UNL     1       1.636  34.378  14.347  0.00  0.00    +0.000 A 
ATOM     20  H   UNL     1       0.639  30.615  15.930  0.00  0.00    +0.000 HD
BRANCH  15  21
ATOM     21  O   UNL     1       2.678  28.960  16.429  0.00  0.00    +0.000 OA
ATOM     22  H   UNL     1       3.423  28.422  16.116  0.00  0.00    +0.000 HD
ENDBRANCH  15  21
ENDBRANCH   3  12
BRANCH   2  23
ATOM     23  O   UNL     1       7.611  33.082  16.464  0.00  0.00    +0.000 OA
BRANCH  23  24
ATOM     24  C   UNL     1       7.510  34.503  16.492  0.00  0.00    +0.000 C 
BRANCH  24  25
ATOM     25  C   UNL     1       8.905  35.109  16.520  0.00  0.00    +0.000 C 
BRANCH  25  26
ATOM     26  C   UNL     1      10.011  34.154  16.068  0.00  0.00    +0.000 C 
BRANCH  26  27
ATOM     27  O   UNL     1       9.882  33.972  14.650  0.00  0.00    +0.000 OA
ATOM     28  H   UNL     1       8.980  34.289  14.444  0.00  0.00    +0.000 HD
ENDBRANCH  26  27
BRANCH  26  29
ATOM     29  C   UNL     1      11.428  34.658  16.360  0.00  0.00    +0.000 C 
BRANCH  29  30
ATOM     30  O   UNL     1      11.748  35.669  15.398  0.00  0.00    +0.000 OA
ATOM     31  H   UNL     1      11.124  35.557  14.659  0.00  0.00    +0.000 HD
ENDBRANCH  29  30
ENDBRANCH  26  29
ENDBRANCH  25  26
ENDBRANCH  24  25
ENDBRANCH  23  24
ENDBRANCH   2  23
TORSDOF 9
ENDMDL
