MODEL 1
REMARK VINA RESULT:      -8.3      0.000      0.000
REMARK  Name = IPA3.pdbqt.pdb
REMARK  5 active torsions:
REMARK  status: ('A' for Active; 'I' for Inactive)
REMARK    1  A    between atoms: S_1  and  S_2
REMARK    2  A    between atoms: S_1  and  C_15
REMARK    3  A    between atoms: S_2  and  C_3
REMARK    4  A    between atoms: C_10  and  O_13
REMARK    5  A    between atoms: C_22  and  O_25
REMARK                            x       y       z     vdW  Elec       q    Type
REMARK                         _______ _______ _______ _____ _____    ______ ____
ROOT
ATOM      1  S   UNL     1       5.309  32.745  15.434  0.00  0.00    +0.000 S 
ENDROOT
BRANCH   1   2
ATOM      2  C   UNL     1       7.001  32.351  15.900  0.00  0.00    +0.000 A 
ATOM      3  C   UNL     1       7.551  31.072  15.645  0.00  0.00    +0.000 A 
ATOM      4  C   UNL     1       8.897  30.821  16.005  0.00  0.00    +0.000 A 
ATOM      5  C   UNL     1       6.837  30.026  15.035  0.00  0.00    +0.000 A 
ATOM      6  C   UNL     1       9.662  31.811  16.617  0.00  0.00    +0.000 A 
ATOM      7  C   UNL     1       9.479  29.580  15.747  0.00  0.00    +0.000 A 
ATOM      8  C   UNL     1       9.114  33.060  16.881  0.00  0.00    +0.000 A 
ATOM      9  C   UNL     1       7.797  33.326  16.523  0.00  0.00    +0.000 A 
ATOM     10  C   UNL     1       8.747  28.568  15.134  0.00  0.00    +0.000 A 
ATOM     11  C   UNL     1       7.424  28.789  14.778  0.00  0.00    +0.000 A 
BRANCH   9  12
ATOM     12  O   UNL     1       7.330  34.582  16.806  0.00  0.00    +0.000 OA
ATOM     13  H   UNL     1       8.101  35.170  16.906  0.00  0.00    +0.000 HD
ENDBRANCH   9  12
ENDBRANCH   1   2
BRANCH   1  14
ATOM     14  S   UNL     1       4.262  32.102  17.088  0.00  0.00    +0.000 S 
BRANCH  14  15
ATOM     15  C   UNL     1       2.730  31.521  16.346  0.00  0.00    +0.000 A 
ATOM     16  C   UNL     1       2.657  30.257  15.714  0.00  0.00    +0.000 A 
ATOM     17  C   UNL     1       1.422  29.833  15.170  0.00  0.00    +0.000 A 
ATOM     18  C   UNL     1       3.750  29.378  15.604  0.00  0.00    +0.000 A 
ATOM     19  C   UNL     1       0.300  30.654  15.239  0.00  0.00    +0.000 A 
ATOM     20  C   UNL     1       1.306  28.584  14.560  0.00  0.00    +0.000 A 
ATOM     21  C   UNL     1       0.377  31.903  15.846  0.00  0.00    +0.000 A 
ATOM     22  C   UNL     1       1.582  32.328  16.395  0.00  0.00    +0.000 A 
ATOM     23  C   UNL     1       2.405  27.733  14.476  0.00  0.00    +0.000 A 
ATOM     24  C   UNL     1       3.630  28.131  14.996  0.00  0.00    +0.000 A 
BRANCH  22  25
ATOM     25  O   UNL     1       1.579  33.565  16.985  0.00  0.00    +0.000 OA
ATOM     26  H   UNL     1       0.653  33.792  17.190  0.00  0.00    +0.000 HD
ENDBRANCH  22  25
ENDBRANCH  14  15
ENDBRANCH   1  14
TORSDOF 5
ENDMDL
MODEL 2
REMARK VINA RESULT:      -8.3     20.485     22.819
REMARK  Name = IPA3.pdbqt.pdb
REMARK  5 active torsions:
REMARK  status: ('A' for Active; 'I' for Inactive)
REMARK    1  A    between atoms: S_1  and  S_2
REMARK    2  A    between atoms: S_1  and  C_15
REMARK    3  A    between atoms: S_2  and  C_3
REMARK    4  A    between atoms: C_10  and  O_13
REMARK    5  A    between atoms: C_22  and  O_25
REMARK                            x       y       z     vdW  Elec       q    Type
REMARK                         _______ _______ _______ _____ _____    ______ ____
ROOT
ATOM      1  S   UNL     1     -17.499  27.572  22.362  0.00  0.00    +0.000 S 
ENDROOT
BRANCH   1   2
ATOM      2  C   UNL     1     -16.208  28.095  21.225  0.00  0.00    +0.000 A 
ATOM      3  C   UNL     1     -16.465  28.234  19.839  0.00  0.00    +0.000 A 
ATOM      4  C   UNL     1     -15.423  28.675  18.990  0.00  0.00    +0.000 A 
ATOM      5  C   UNL     1     -17.714  27.969  19.250  0.00  0.00    +0.000 A 
ATOM      6  C   UNL     1     -14.159  28.952  19.506  0.00  0.00    +0.000 A 
ATOM      7  C   UNL     1     -15.646  28.847  17.624  0.00  0.00    +0.000 A 
ATOM      8  C   UNL     1     -13.905  28.799  20.863  0.00  0.00    +0.000 A 
ATOM      9  C   UNL     1     -14.921  28.376  21.713  0.00  0.00    +0.000 A 
ATOM     10  C   UNL     1     -16.897  28.584  17.073  0.00  0.00    +0.000 A 
ATOM     11  C   UNL     1     -17.933  28.143  17.886  0.00  0.00    +0.000 A 
BRANCH   9  12
ATOM     12  O   UNL     1     -14.599  28.258  23.039  0.00  0.00    +0.000 OA
ATOM     13  H   UNL     1     -13.665  28.518  23.141  0.00  0.00    +0.000 HD
ENDBRANCH   9  12
ENDBRANCH   1   2
BRANCH   1  14
ATOM     14  S   UNL     1     -18.421  29.363  22.797  0.00  0.00    +0.000 S 
BRANCH  14  15
ATOM     15  C   UNL     1     -17.353  30.018  24.086  0.00  0.00    +0.000 A 
ATOM     16  C   UNL     1     -16.501  31.122  23.839  0.00  0.00    +0.000 A 
ATOM     17  C   UNL     1     -15.700  31.618  24.894  0.00  0.00    +0.000 A 
ATOM     18  C   UNL     1     -16.410  31.771  22.595  0.00  0.00    +0.000 A 
ATOM     19  C   UNL     1     -15.736  31.021  26.151  0.00  0.00    +0.000 A 
ATOM     20  C   UNL     1     -14.865  32.718  24.695  0.00  0.00    +0.000 A 
ATOM     21  C   UNL     1     -16.561  29.927  26.387  0.00  0.00    +0.000 A 
ATOM     22  C   UNL     1     -17.362  29.434  25.363  0.00  0.00    +0.000 A 
ATOM     23  C   UNL     1     -14.805  33.345  23.453  0.00  0.00    +0.000 A 
ATOM     24  C   UNL     1     -15.577  32.870  22.400  0.00  0.00    +0.000 A 
BRANCH  22  25
ATOM     25  O   UNL     1     -18.156  28.362  25.674  0.00  0.00    +0.000 OA
ATOM     26  H   UNL     1     -17.670  27.810  26.315  0.00  0.00    +0.000 HD
ENDBRANCH  22  25
ENDBRANCH  14  15
ENDBRANCH   1  14
TORSDOF 5
ENDMDL
MODEL 3
REMARK VINA RESULT:      -8.0      1.329      2.781
REMARK  Name = IPA3.pdbqt.pdb
REMARK  5 active torsions:
REMARK  status: ('A' for Active; 'I' for Inactive)
REMARK    1  A    between atoms: S_1  and  S_2
REMARK    2  A    between atoms: S_1  and  C_15
REMARK    3  A    between atoms: S_2  and  C_3
REMARK    4  A    between atoms: C_10  and  O_13
REMARK    5  A    between atoms: C_22  and  O_25
REMARK                            x       y       z     vdW  Elec       q    Type
REMARK                         _______ _______ _______ _____ _____    ______ ____
ROOT
ATOM      1  S   UNL     1       5.034  32.477  15.309  0.00  0.00    +0.000 S 
ENDROOT
BRANCH   1   2
ATOM      2  C   UNL     1       6.720  32.069  15.784  0.00  0.00    +0.000 A 
ATOM      3  C   UNL     1       7.248  30.773  15.565  0.00  0.00    +0.000 A 
ATOM      4  C   UNL     1       8.590  30.510  15.930  0.00  0.00    +0.000 A 
ATOM      5  C   UNL     1       6.515  29.722  14.987  0.00  0.00    +0.000 A 
ATOM      6  C   UNL     1       9.373  31.504  16.512  0.00  0.00    +0.000 A 
ATOM      7  C   UNL     1       9.151  29.253  15.708  0.00  0.00    +0.000 A 
ATOM      8  C   UNL     1       8.847  32.769  16.741  0.00  0.00    +0.000 A 
ATOM      9  C   UNL     1       7.533  33.047  16.377  0.00  0.00    +0.000 A 
ATOM     10  C   UNL     1       8.401  28.235  15.126  0.00  0.00    +0.000 A 
ATOM     11  C   UNL     1       7.080  28.469  14.766  0.00  0.00    +0.000 A 
BRANCH   9  12
ATOM     12  O   UNL     1       7.088  34.319  16.624  0.00  0.00    +0.000 OA
ATOM     13  H   UNL     1       6.483  34.279  17.387  0.00  0.00    +0.000 HD
ENDBRANCH   9  12
ENDBRANCH   1   2
BRANCH   1  14
ATOM     14  S   UNL     1       3.999  32.048  17.039  0.00  0.00    +0.000 S 
BRANCH  14  15
ATOM     15  C   UNL     1       2.536  31.227  16.393  0.00  0.00    +0.000 A 
ATOM     16  C   UNL     1       1.334  31.941  16.171  0.00  0.00    +0.000 A 
ATOM     17  C   UNL     1       0.218  31.256  15.635  0.00  0.00    +0.000 A 
ATOM     18  C   UNL     1       1.183  33.313  16.443  0.00  0.00    +0.000 A 
ATOM     19  C   UNL     1       0.296  29.897  15.347  0.00  0.00    +0.000 A 
ATOM     20  C   UNL     1      -0.975  31.932  15.382  0.00  0.00    +0.000 A 
ATOM     21  C   UNL     1       1.471  29.193  15.580  0.00  0.00    +0.000 A 
ATOM     22  C   UNL     1       2.580  29.855  16.097  0.00  0.00    +0.000 A 
ATOM     23  C   UNL     1      -1.089  33.293  15.653  0.00  0.00    +0.000 A 
ATOM     24  C   UNL     1      -0.009  33.985  16.187  0.00  0.00    +0.000 A 
BRANCH  22  25
ATOM     25  O   UNL     1       3.705  29.098  16.291  0.00  0.00    +0.000 OA
ATOM     26  H   UNL     1       3.420  28.180  16.454  0.00  0.00    +0.000 HD
ENDBRANCH  22  25
ENDBRANCH  14  15
ENDBRANCH   1  14
TORSDOF 5
ENDMDL
MODEL 4
REMARK VINA RESULT:      -7.5      2.841      7.753
REMARK  Name = IPA3.pdbqt.pdb
REMARK  5 active torsions:
REMARK  status: ('A' for Active; 'I' for Inactive)
REMARK    1  A    between atoms: S_1  and  S_2
REMARK    2  A    between atoms: S_1  and  C_15
REMARK    3  A    between atoms: S_2  and  C_3
REMARK    4  A    between atoms: C_10  and  O_13
REMARK    5  A    between atoms: C_22  and  O_25
REMARK                            x       y       z     vdW  Elec       q    Type
REMARK                         _______ _______ _______ _____ _____    ______ ____
ROOT
ATOM      1  S   UNL     1       7.568  30.709  15.030  0.00  0.00    +0.000 S 
ENDROOT
BRANCH   1   2
ATOM      2  C   UNL     1       5.846  30.715  15.549  0.00  0.00    +0.000 A 
ATOM      3  C   UNL     1       4.954  29.696  15.137  0.00  0.00    +0.000 A 
ATOM      4  C   UNL     1       3.616  29.730  15.596  0.00  0.00    +0.000 A 
ATOM      5  C   UNL     1       5.325  28.630  14.299  0.00  0.00    +0.000 A 
ATOM      6  C   UNL     1       3.179  30.760  16.426  0.00  0.00    +0.000 A 
ATOM      7  C   UNL     1       2.715  28.730  15.231  0.00  0.00    +0.000 A 
ATOM      8  C   UNL     1       4.052  31.768  16.815  0.00  0.00    +0.000 A 
ATOM      9  C   UNL     1       5.373  31.743  16.381  0.00  0.00    +0.000 A 
ATOM     10  C   UNL     1       3.117  27.683  14.406  0.00  0.00    +0.000 A 
ATOM     11  C   UNL     1       4.423  27.632  13.938  0.00  0.00    +0.000 A 
BRANCH   9  12
ATOM     12  O   UNL     1       6.177  32.764  16.814  0.00  0.00    +0.000 OA
ATOM     13  H   UNL     1       7.053  32.646  16.405  0.00  0.00    +0.000 HD
ENDBRANCH   9  12
ENDBRANCH   1   2
BRANCH   1  14
ATOM     14  S   UNL     1       8.342  29.179  16.172  0.00  0.00    +0.000 S 
BRANCH  14  15
ATOM     15  C   UNL     1      10.000  29.022  15.494  0.00  0.00    +0.000 A 
ATOM     16  C   UNL     1      11.070  29.806  15.988  0.00  0.00    +0.000 A 
ATOM     17  C   UNL     1      12.362  29.625  15.442  0.00  0.00    +0.000 A 
ATOM     18  C   UNL     1      10.927  30.759  17.013  0.00  0.00    +0.000 A 
ATOM     19  C   UNL     1      12.575  28.703  14.421  0.00  0.00    +0.000 A 
ATOM     20  C   UNL     1      13.444  30.364  15.919  0.00  0.00    +0.000 A 
ATOM     21  C   UNL     1      11.521  27.944  13.926  0.00  0.00    +0.000 A 
ATOM     22  C   UNL     1      10.247  28.103  14.461  0.00  0.00    +0.000 A 
ATOM     23  C   UNL     1      13.271  31.293  16.942  0.00  0.00    +0.000 A 
ATOM     24  C   UNL     1      12.010  31.493  17.489  0.00  0.00    +0.000 A 
BRANCH  22  25
ATOM     25  O   UNL     1       9.261  27.315  13.929  0.00  0.00    +0.000 OA
ATOM     26  H   UNL     1       9.322  26.439  14.353  0.00  0.00    +0.000 HD
ENDBRANCH  22  25
ENDBRANCH  14  15
ENDBRANCH   1  14
TORSDOF 5
ENDMDL
MODEL 5
REMARK VINA RESULT:      -7.2      3.982      6.763
REMARK  Name = IPA3.pdbqt.pdb
REMARK  5 active torsions:
REMARK  status: ('A' for Active; 'I' for Inactive)
REMARK    1  A    between atoms: S_1  and  S_2
REMARK    2  A    between atoms: S_1  and  C_15
REMARK    3  A    between atoms: S_2  and  C_3
REMARK    4  A    between atoms: C_10  and  O_13
REMARK    5  A    between atoms: C_22  and  O_25
REMARK                            x       y       z     vdW  Elec       q    Type
REMARK                         _______ _______ _______ _____ _____    ______ ____
ROOT
ATOM      1  S   UNL     1      10.033  34.347  15.237  0.00  0.00    +0.000 S 
ENDROOT
BRANCH   1   2
ATOM      2  C   UNL     1      10.553  36.025  15.627  0.00  0.00    +0.000 A 
ATOM      3  C   UNL     1       9.637  37.104  15.582  0.00  0.00    +0.000 A 
ATOM      4  C   UNL     1      10.089  38.400  15.925  0.00  0.00    +0.000 A 
ATOM      5  C   UNL     1       8.285  36.961  15.225  0.00  0.00    +0.000 A 
ATOM      6  C   UNL     1      11.418  38.614  16.284  0.00  0.00    +0.000 A 
ATOM      7  C   UNL     1       9.211  39.483  15.915  0.00  0.00    +0.000 A 
ATOM      8  C   UNL     1      12.318  37.557  16.312  0.00  0.00    +0.000 A 
ATOM      9  C   UNL     1      11.887  36.274  15.988  0.00  0.00    +0.000 A 
ATOM     10  C   UNL     1       7.875  39.307  15.565  0.00  0.00    +0.000 A 
ATOM     11  C   UNL     1       7.411  38.045  15.218  0.00  0.00    +0.000 A 
BRANCH   9  12
ATOM     12  O   UNL     1      12.829  35.281  16.047  0.00  0.00    +0.000 OA
ATOM     13  H   UNL     1      13.667  35.647  15.712  0.00  0.00    +0.000 HD
ENDBRANCH   9  12
ENDBRANCH   1   2
BRANCH   1  14
ATOM     14  S   UNL     1       9.139  33.768  17.001  0.00  0.00    +0.000 S 
BRANCH  14  15
ATOM     15  C   UNL     1       8.314  32.248  16.509  0.00  0.00    +0.000 A 
ATOM     16  C   UNL     1       6.938  32.237  16.177  0.00  0.00    +0.000 A 
ATOM     17  C   UNL     1       6.341  31.022  15.769  0.00  0.00    +0.000 A 
ATOM     18  C   UNL     1       6.119  33.381  16.216  0.00  0.00    +0.000 A 
ATOM     19  C   UNL     1       7.091  29.850  15.712  0.00  0.00    +0.000 A 
ATOM     20  C   UNL     1       4.994  30.977  15.412  0.00  0.00    +0.000 A 
ATOM     21  C   UNL     1       8.439  29.859  16.053  0.00  0.00    +0.000 A 
ATOM     22  C   UNL     1       9.042  31.049  16.447  0.00  0.00    +0.000 A 
ATOM     23  C   UNL     1       4.212  32.129  15.452  0.00  0.00    +0.000 A 
ATOM     24  C   UNL     1       4.775  33.333  15.857  0.00  0.00    +0.000 A 
BRANCH  22  25
ATOM     25  O   UNL     1      10.374  30.982  16.759  0.00  0.00    +0.000 OA
ATOM     26  H   UNL     1      10.876  31.265  15.972  0.00  0.00    +0.000 HD
ENDBRANCH  22  25
ENDBRANCH  14  15
ENDBRANCH   1  14
TORSDOF 5
ENDMDL
MODEL 6
REMARK VINA RESULT:      -7.2      3.786      6.355
REMARK  Name = IPA3.pdbqt.pdb
REMARK  5 active torsions:
REMARK  status: ('A' for Active; 'I' for Inactive)
REMARK    1  A    between atoms: S_1  and  S_2
REMARK    2  A    between atoms: S_1  and  C_15
REMARK    3  A    between atoms: S_2  and  C_3
REMARK    4  A    between atoms: C_10  and  O_13
REMARK    5  A    between atoms: C_22  and  O_25
REMARK                            x       y       z     vdW  Elec       q    Type
REMARK                         _______ _______ _______ _____ _____    ______ ____
ROOT
ATOM      1  S   UNL     1      10.283  34.139  15.005  0.00  0.00    +0.000 S 
ENDROOT
BRANCH   1   2
ATOM      2  C   UNL     1      10.896  35.708  15.637  0.00  0.00    +0.000 A 
ATOM      3  C   UNL     1      10.108  36.882  15.569  0.00  0.00    +0.000 A 
ATOM      4  C   UNL     1      10.625  38.085  16.106  0.00  0.00    +0.000 A 
ATOM      5  C   UNL     1       8.820  36.923  15.006  0.00  0.00    +0.000 A 
ATOM      6  C   UNL     1      11.895  38.118  16.675  0.00  0.00    +0.000 A 
ATOM      7  C   UNL     1       9.867  39.256  16.078  0.00  0.00    +0.000 A 
ATOM      8  C   UNL     1      12.673  36.968  16.725  0.00  0.00    +0.000 A 
ATOM      9  C   UNL     1      12.175  35.775  16.212  0.00  0.00    +0.000 A 
ATOM     10  C   UNL     1       8.592  39.261  15.521  0.00  0.00    +0.000 A 
ATOM     11  C   UNL     1       8.067  38.094  14.982  0.00  0.00    +0.000 A 
BRANCH   9  12
ATOM     12  O   UNL     1      12.995  34.681  16.306  0.00  0.00    +0.000 OA
ATOM     13  H   UNL     1      13.907  34.979  16.137  0.00  0.00    +0.000 HD
ENDBRANCH   9  12
ENDBRANCH   1   2
BRANCH   1  14
ATOM     14  S   UNL     1       9.785  33.155  16.746  0.00  0.00    +0.000 S 
BRANCH  14  15
ATOM     15  C   UNL     1       8.109  32.609  16.390  0.00  0.00    +0.000 A 
ATOM     16  C   UNL     1       7.846  31.283  15.971  0.00  0.00    +0.000 A 
ATOM     17  C   UNL     1       6.507  30.894  15.730  0.00  0.00    +0.000 A 
ATOM     18  C   UNL     1       8.846  30.311  15.789  0.00  0.00    +0.000 A 
ATOM     19  C   UNL     1       5.467  31.806  15.885  0.00  0.00    +0.000 A 
ATOM     20  C   UNL     1       6.207  29.590  15.338  0.00  0.00    +0.000 A 
ATOM     21  C   UNL     1       5.729  33.113  16.281  0.00  0.00    +0.000 A 
ATOM     22  C   UNL     1       7.039  33.507  16.532  0.00  0.00    +0.000 A 
ATOM     23  C   UNL     1       7.220  28.648  15.176  0.00  0.00    +0.000 A 
ATOM     24  C   UNL     1       8.543  29.010  15.400  0.00  0.00    +0.000 A 
BRANCH  22  25
ATOM     25  O   UNL     1       7.218  34.806  16.928  0.00  0.00    +0.000 OA
ATOM     26  H   UNL     1       7.456  35.326  16.138  0.00  0.00    +0.000 HD
ENDBRANCH  22  25
ENDBRANCH  14  15
ENDBRANCH   1  14
TORSDOF 5
ENDMDL
MODEL 7
REMARK VINA RESULT:      -6.9     20.492     22.847
REMARK  Name = IPA3.pdbqt.pdb
REMARK  5 active torsions:
REMARK  status: ('A' for Active; 'I' for Inactive)
REMARK    1  A    between atoms: S_1  and  S_2
REMARK    2  A    between atoms: S_1  and  C_15
REMARK    3  A    between atoms: S_2  and  C_3
REMARK    4  A    between atoms: C_10  and  O_13
REMARK    5  A    between atoms: C_22  and  O_25
REMARK                            x       y       z     vdW  Elec       q    Type
REMARK                         _______ _______ _______ _____ _____    ______ ____
ROOT
ATOM      1  S   UNL     1     -17.577  30.862  23.421  0.00  0.00    +0.000 S 
ENDROOT
BRANCH   1   2
ATOM      2  C   UNL     1     -16.310  31.911  24.150  0.00  0.00    +0.000 A 
ATOM      3  C   UNL     1     -16.172  32.022  25.555  0.00  0.00    +0.000 A 
ATOM      4  C   UNL     1     -15.141  32.838  26.079  0.00  0.00    +0.000 A 
ATOM      5  C   UNL     1     -16.999  31.351  26.473  0.00  0.00    +0.000 A 
ATOM      6  C   UNL     1     -14.288  33.534  25.227  0.00  0.00    +0.000 A 
ATOM      7  C   UNL     1     -14.960  32.953  27.457  0.00  0.00    +0.000 A 
ATOM      8  C   UNL     1     -14.436  33.436  23.849  0.00  0.00    +0.000 A 
ATOM      9  C   UNL     1     -15.438  32.630  23.318  0.00  0.00    +0.000 A 
ATOM     10  C   UNL     1     -15.790  32.269  28.340  0.00  0.00    +0.000 A 
ATOM     11  C   UNL     1     -16.813  31.468  27.849  0.00  0.00    +0.000 A 
BRANCH   9  12
ATOM     12  O   UNL     1     -15.516  32.575  21.952  0.00  0.00    +0.000 OA
ATOM     13  H   UNL     1     -15.741  33.467  21.631  0.00  0.00    +0.000 HD
ENDBRANCH   9  12
ENDBRANCH   1   2
BRANCH   1  14
ATOM     14  S   UNL     1     -16.654  29.020  23.439  0.00  0.00    +0.000 S 
BRANCH  14  15
ATOM     15  C   UNL     1     -16.073  28.888  21.743  0.00  0.00    +0.000 A 
ATOM     16  C   UNL     1     -16.943  28.487  20.701  0.00  0.00    +0.000 A 
ATOM     17  C   UNL     1     -16.445  28.426  19.378  0.00  0.00    +0.000 A 
ATOM     18  C   UNL     1     -18.295  28.155  20.901  0.00  0.00    +0.000 A 
ATOM     19  C   UNL     1     -15.115  28.737  19.108  0.00  0.00    +0.000 A 
ATOM     20  C   UNL     1     -17.279  28.057  18.322  0.00  0.00    +0.000 A 
ATOM     21  C   UNL     1     -14.258  29.114  20.135  0.00  0.00    +0.000 A 
ATOM     22  C   UNL     1     -14.735  29.190  21.439  0.00  0.00    +0.000 A 
ATOM     23  C   UNL     1     -18.616  27.743  18.553  0.00  0.00    +0.000 A 
ATOM     24  C   UNL     1     -19.125  27.790  19.844  0.00  0.00    +0.000 A 
BRANCH  22  25
ATOM     25  O   UNL     1     -13.835  29.578  22.395  0.00  0.00    +0.000 OA
ATOM     26  H   UNL     1     -13.713  28.830  23.008  0.00  0.00    +0.000 HD
ENDBRANCH  22  25
ENDBRANCH  14  15
ENDBRANCH   1  14
TORSDOF 5
ENDMDL
MODEL 8
REMARK VINA RESULT:      -6.9     21.923     23.899
REMARK  Name = IPA3.pdbqt.pdb
REMARK  5 active torsions:
REMARK  status: ('A' for Active; 'I' for Inactive)
REMARK    1  A    between atoms: S_1  and  S_2
REMARK    2  A    between atoms: S_1  and  C_15
REMARK    3  A    between atoms: S_2  and  C_3
REMARK    4  A    between atoms: C_10  and  O_13
REMARK    5  A    between atoms: C_22  and  O_25
REMARK                            x       y       z     vdW  Elec       q    Type
REMARK                         _______ _______ _______ _____ _____    ______ ____
ROOT
ATOM      1  S   UNL     1     -15.154  30.429  25.264  0.00  0.00    +0.000 S 
ENDROOT
BRANCH   1   2
ATOM      2  C   UNL     1     -15.170  31.973  24.342  0.00  0.00    +0.000 A 
ATOM      3  C   UNL     1     -14.557  33.140  24.859  0.00  0.00    +0.000 A 
ATOM      4  C   UNL     1     -14.572  34.323  24.082  0.00  0.00    +0.000 A 
ATOM      5  C   UNL     1     -13.914  33.192  26.108  0.00  0.00    +0.000 A 
ATOM      6  C   UNL     1     -15.194  34.344  22.837  0.00  0.00    +0.000 A 
ATOM      7  C   UNL     1     -13.957  35.485  24.549  0.00  0.00    +0.000 A 
ATOM      8  C   UNL     1     -15.809  33.202  22.339  0.00  0.00    +0.000 A 
ATOM      9  C   UNL     1     -15.794  32.028  23.086  0.00  0.00    +0.000 A 
ATOM     10  C   UNL     1     -13.322  35.501  25.787  0.00  0.00    +0.000 A 
ATOM     11  C   UNL     1     -13.301  34.355  26.570  0.00  0.00    +0.000 A 
BRANCH   9  12
ATOM     12  O   UNL     1     -16.412  30.941  22.526  0.00  0.00    +0.000 OA
ATOM     13  H   UNL     1     -17.345  31.176  22.374  0.00  0.00    +0.000 HD
ENDBRANCH   9  12
ENDBRANCH   1   2
BRANCH   1  14
ATOM     14  S   UNL     1     -16.637  30.760  26.656  0.00  0.00    +0.000 S 
BRANCH  14  15
ATOM     15  C   UNL     1     -17.823  31.720  25.704  0.00  0.00    +0.000 A 
ATOM     16  C   UNL     1     -17.938  33.120  25.876  0.00  0.00    +0.000 A 
ATOM     17  C   UNL     1     -18.867  33.834  25.083  0.00  0.00    +0.000 A 
ATOM     18  C   UNL     1     -17.166  33.857  26.792  0.00  0.00    +0.000 A 
ATOM     19  C   UNL     1     -19.667  33.167  24.159  0.00  0.00    +0.000 A 
ATOM     20  C   UNL     1     -18.992  35.217  25.209  0.00  0.00    +0.000 A 
ATOM     21  C   UNL     1     -19.563  31.790  24.002  0.00  0.00    +0.000 A 
ATOM     22  C   UNL     1     -18.648  31.076  24.767  0.00  0.00    +0.000 A 
ATOM     23  C   UNL     1     -18.205  35.919  26.119  0.00  0.00    +0.000 A 
ATOM     24  C   UNL     1     -17.292  35.238  26.914  0.00  0.00    +0.000 A 
BRANCH  22  25
ATOM     25  O   UNL     1     -18.596  29.724  24.550  0.00  0.00    +0.000 OA
ATOM     26  H   UNL     1     -17.665  29.448  24.630  0.00  0.00    +0.000 HD
ENDBRANCH  22  25
ENDBRANCH  14  15
ENDBRANCH   1  14
TORSDOF 5
ENDMDL
MODEL 9
REMARK VINA RESULT:      -6.7     32.703     34.876
REMARK  Name = IPA3.pdbqt.pdb
REMARK  5 active torsions:
REMARK  status: ('A' for Active; 'I' for Inactive)
REMARK    1  A    between atoms: S_1  and  S_2
REMARK    2  A    between atoms: S_1  and  C_15
REMARK    3  A    between atoms: S_2  and  C_3
REMARK    4  A    between atoms: C_10  and  O_13
REMARK    5  A    between atoms: C_22  and  O_25
REMARK                            x       y       z     vdW  Elec       q    Type
REMARK                         _______ _______ _______ _____ _____    ______ ____
ROOT
ATOM      1  S   UNL     1      -1.746  66.288   9.152  0.00  0.00    +0.000 S 
ENDROOT
BRANCH   1   2
ATOM      2  C   UNL     1      -2.792  65.687   7.817  0.00  0.00    +0.000 A 
ATOM      3  C   UNL     1      -3.923  64.877   8.081  0.00  0.00    +0.000 A 
ATOM      4  C   UNL     1      -4.729  64.453   6.998  0.00  0.00    +0.000 A 
ATOM      5  C   UNL     1      -4.306  64.474   9.372  0.00  0.00    +0.000 A 
ATOM      6  C   UNL     1      -4.406  64.812   5.692  0.00  0.00    +0.000 A 
ATOM      7  C   UNL     1      -5.864  63.675   7.222  0.00  0.00    +0.000 A 
ATOM      8  C   UNL     1      -3.286  65.593   5.434  0.00  0.00    +0.000 A 
ATOM      9  C   UNL     1      -2.489  66.027   6.488  0.00  0.00    +0.000 A 
ATOM     10  C   UNL     1      -6.221  63.299   8.514  0.00  0.00    +0.000 A 
ATOM     11  C   UNL     1      -5.441  63.698   9.591  0.00  0.00    +0.000 A 
BRANCH   9  12
ATOM     12  O   UNL     1      -1.409  66.802   6.158  0.00  0.00    +0.000 OA
ATOM     13  H   UNL     1      -1.193  66.627   5.224  0.00  0.00    +0.000 HD
ENDBRANCH   9  12
ENDBRANCH   1   2
BRANCH   1  14
ATOM     14  S   UNL     1      -0.107  65.051   8.986  0.00  0.00    +0.000 S 
BRANCH  14  15
ATOM     15  C   UNL     1      -0.882  63.463   8.653  0.00  0.00    +0.000 A 
ATOM     16  C   UNL     1      -1.454  62.695   9.695  0.00  0.00    +0.000 A 
ATOM     17  C   UNL     1      -2.077  61.465   9.378  0.00  0.00    +0.000 A 
ATOM     18  C   UNL     1      -1.452  63.092  11.045  0.00  0.00    +0.000 A 
ATOM     19  C   UNL     1      -2.110  61.008   8.063  0.00  0.00    +0.000 A 
ATOM     20  C   UNL     1      -2.671  60.692  10.375  0.00  0.00    +0.000 A 
ATOM     21  C   UNL     1      -1.534  61.756   7.043  0.00  0.00    +0.000 A 
ATOM     22  C   UNL     1      -0.928  62.972   7.337  0.00  0.00    +0.000 A 
ATOM     23  C   UNL     1      -2.661  61.118  11.701  0.00  0.00    +0.000 A 
ATOM     24  C   UNL     1      -2.049  62.319  12.037  0.00  0.00    +0.000 A 
BRANCH  22  25
ATOM     25  O   UNL     1      -0.391  63.656   6.279  0.00  0.00    +0.000 OA
ATOM     26  H   UNL     1       0.364  63.137   5.944  0.00  0.00    +0.000 HD
ENDBRANCH  22  25
ENDBRANCH  14  15
ENDBRANCH   1  14
TORSDOF 5
ENDMDL
