MODEL 1
REMARK VINA RESULT:      -8.7      0.000      0.000
REMARK  Name = 
REMARK  8 active torsions:
REMARK  status: ('A' for Active; 'I' for Inactive)
REMARK    1  A    between atoms: O_1  and  C_21
REMARK    2  A    between atoms: O_1  and  C_38
REMARK    3  A    between atoms: O_4  and  C_26
REMARK    4  A    between atoms: N_7  and  C_11
REMARK    5  A    between atoms: C_26  and  C_33
REMARK    6  A    between atoms: C_29  and  C_37
REMARK    7  A    between atoms: C_33  and  C_42
REMARK    8  A    between atoms: C_37  and  C_43
REMARK                            x       y       z     vdW  Elec       q    Type
REMARK                         _______ _______ _______ _____ _____    ______ ____
ROOT
ATOM      1  O   UNL     1     -13.348  38.660  11.401  0.00  0.00    +0.000 OA
ATOM      2  O   UNL     1      -9.398  39.844  10.541  0.00  0.00    +0.000 OA
ATOM      3  O   UNL     1     -14.562  37.769  13.069  0.00  0.00    +0.000 OA
ATOM      4  N   UNL     1      -8.971  40.318  12.746  0.00  0.00    +0.000 N 
ATOM      5  N   UNL     1      -8.292  41.114  16.177  0.00  0.00    +0.000 NA
ATOM      6  C   UNL     1      -9.402  40.450  14.050  0.00  0.00    +0.000 A 
ATOM      7  C   UNL     1      -7.160  40.984  14.030  0.00  0.00    +0.000 A 
ATOM      8  C   UNL     1      -7.546  40.637  12.622  0.00  0.00    +0.000 C 
ATOM      9  C   UNL     1     -11.613  39.792  13.355  0.00  0.00    +0.000 A 
ATOM     10  C   UNL     1     -13.062  39.557  13.704  0.00  0.00    +0.000 C 
ATOM     11  C   UNL     1      -8.267  40.871  14.864  0.00  0.00    +0.000 A 
ATOM     12  C   UNL     1     -11.200  39.662  12.079  0.00  0.00    +0.000 A 
ATOM     13  C   UNL     1      -5.944  41.379  14.569  0.00  0.00    +0.000 A 
ATOM     14  C   UNL     1     -10.672  40.207  14.389  0.00  0.00    +0.000 A 
ATOM     15  C   UNL     1      -9.777  39.943  11.703  0.00  0.00    +0.000 A 
ATOM     16  C   UNL     1      -5.919  41.666  15.965  0.00  0.00    +0.000 A 
ATOM     17  C   UNL     1     -12.108  39.258  10.971  0.00  0.00    +0.000 C 
ATOM     18  C   UNL     1      -7.129  41.510  16.716  0.00  0.00    +0.000 A 
ATOM     19  C   UNL     1     -13.702  38.571  12.701  0.00  0.00    +0.000 C 
ATOM     20  C   UNL     1      -4.806  42.374  18.013  0.00  0.00    +0.000 A 
ATOM     21  C   UNL     1      -4.762  42.098  16.648  0.00  0.00    +0.000 A 
ATOM     22  C   UNL     1      -7.120  41.776  18.079  0.00  0.00    +0.000 A 
ATOM     23  C   UNL     1      -5.969  42.201  18.743  0.00  0.00    +0.000 A 
ENDROOT
BRANCH  10  24
ATOM     24  O   UNL     1     -13.131  38.977  15.015  0.00  0.00    +0.000 OA
ATOM     25  H   UNL     1     -14.075  38.781  15.176  0.00  0.00    +0.000 HD
ENDBRANCH  10  24
BRANCH  10  26
ATOM     26  C   UNL     1     -13.841  40.889  13.704  0.00  0.00    +0.000 C 
ATOM     27  C   UNL     1     -15.195  40.831  14.406  0.00  0.00    +0.000 C 
ENDBRANCH  10  26
BRANCH  13  28
ATOM     28  C   UNL     1      -4.737  41.519  13.674  0.00  0.00    +0.000 C 
ATOM     29  C   UNL     1      -4.692  42.871  12.978  0.00  0.00    +0.000 C 
ENDBRANCH  13  28
BRANCH  20  30
ATOM     30  O   UNL     1      -3.634  42.757  18.668  0.00  0.00    +0.000 OA
BRANCH  30  38
ATOM     31  O   UNL     1      -2.211  40.997  18.177  0.00  0.00    +0.000 OA
ATOM     32  N   UNL     1      -1.655  43.139  17.539  0.00  0.00    +0.000 N 
ATOM     33  C   UNL     1       0.520  45.071  17.219  0.00  0.00    +0.000 C 
ATOM     34  C   UNL     1      -0.821  45.418  17.913  0.00  0.00    +0.000 C 
ATOM     35  C   UNL     1       0.759  43.546  17.357  0.00  0.00    +0.000 C 
ATOM     36  C   UNL     1      -1.978  44.551  17.424  0.00  0.00    +0.000 C 
ATOM     37  C   UNL     1      -0.432  42.722  16.879  0.00  0.00    +0.000 C 
ATOM     38  C   UNL     1      -2.480  42.194  18.131  0.00  0.00    +0.000 C 
BRANCH  33  39
ATOM     39  N   UNL     1       1.662  45.866  17.772  0.00  0.00    +0.000 NA
ATOM     40  C   UNL     1       1.436  46.256  19.180  0.00  0.00    +0.000 C 
ATOM     41  C   UNL     1       2.950  45.153  17.648  0.00  0.00    +0.000 C 
ATOM     42  C   UNL     1       2.579  47.096  19.754  0.00  0.00    +0.000 C 
ATOM     43  C   UNL     1       4.132  45.964  18.185  0.00  0.00    +0.000 C 
ATOM     44  C   UNL     1       3.913  46.380  19.629  0.00  0.00    +0.000 C 
ENDBRANCH  33  39
ENDBRANCH  30  38
ENDBRANCH  20  30
TORSDOF 6
ENDMDL
MODEL 2
REMARK VINA RESULT:      -8.2      4.047     12.392
REMARK  Name = 
REMARK  8 active torsions:
REMARK  status: ('A' for Active; 'I' for Inactive)
REMARK    1  A    between atoms: O_1  and  C_21
REMARK    2  A    between atoms: O_1  and  C_38
REMARK    3  A    between atoms: O_4  and  C_26
REMARK    4  A    between atoms: N_7  and  C_11
REMARK    5  A    between atoms: C_26  and  C_33
REMARK    6  A    between atoms: C_29  and  C_37
REMARK    7  A    between atoms: C_33  and  C_42
REMARK    8  A    between atoms: C_37  and  C_43
REMARK                            x       y       z     vdW  Elec       q    Type
REMARK                         _______ _______ _______ _____ _____    ______ ____
ROOT
ATOM      1  O   UNL     1      -4.644  41.717  18.841  0.00  0.00    +0.000 OA
ATOM      2  O   UNL     1      -8.856  41.590  18.822  0.00  0.00    +0.000 OA
ATOM      3  O   UNL     1      -2.882  40.801  17.789  0.00  0.00    +0.000 OA
ATOM      4  N   UNL     1      -8.913  41.052  16.592  0.00  0.00    +0.000 N 
ATOM      5  N   UNL     1      -9.033  40.261  13.095  0.00  0.00    +0.000 NA
ATOM      6  C   UNL     1      -8.268  40.858  15.387  0.00  0.00    +0.000 A 
ATOM      7  C   UNL     1     -10.512  40.500  15.008  0.00  0.00    +0.000 A 
ATOM      8  C   UNL     1     -10.358  40.846  16.460  0.00  0.00    +0.000 C 
ATOM      9  C   UNL     1      -6.170  41.354  16.464  0.00  0.00    +0.000 A 
ATOM     10  C   UNL     1      -4.680  41.558  16.358  0.00  0.00    +0.000 C 
ATOM     11  C   UNL     1      -9.270  40.512  14.385  0.00  0.00    +0.000 A 
ATOM     12  C   UNL     1      -6.793  41.545  17.643  0.00  0.00    +0.000 A 
ATOM     13  C   UNL     1     -11.642  40.200  14.260  0.00  0.00    +0.000 A 
ATOM     14  C   UNL     1      -6.943  40.995  15.280  0.00  0.00    +0.000 A 
ATOM     15  C   UNL     1      -8.279  41.398  17.757  0.00  0.00    +0.000 A 
ATOM     16  C   UNL     1     -11.447  39.938  12.873  0.00  0.00    +0.000 A 
ATOM     17  C   UNL     1      -6.071  41.928  18.887  0.00  0.00    +0.000 C 
ATOM     18  C   UNL     1     -10.113  39.981  12.351  0.00  0.00    +0.000 A 
ATOM     19  C   UNL     1      -4.005  41.305  17.725  0.00  0.00    +0.000 C 
ATOM     20  C   UNL     1     -12.246  39.406  10.633  0.00  0.00    +0.000 A 
ATOM     21  C   UNL     1     -12.502  39.640  11.983  0.00  0.00    +0.000 A 
ATOM     22  C   UNL     1      -9.904  39.719  11.002  0.00  0.00    +0.000 A 
ATOM     23  C   UNL     1     -10.955  39.423  10.134  0.00  0.00    +0.000 A 
ENDROOT
BRANCH  10  24
ATOM     24  O   UNL     1      -4.151  40.618  15.412  0.00  0.00    +0.000 OA
ATOM     25  H   UNL     1      -4.470  39.738  15.696  0.00  0.00    +0.000 HD
ENDBRANCH  10  24
BRANCH  10  26
ATOM     26  C   UNL     1      -4.364  42.989  15.872  0.00  0.00    +0.000 C 
ATOM     27  C   UNL     1      -3.125  43.098  14.986  0.00  0.00    +0.000 C 
ENDBRANCH  10  26
BRANCH  13  28
ATOM     28  C   UNL     1     -13.000  40.197  14.920  0.00  0.00    +0.000 C 
ATOM     29  C   UNL     1     -13.682  41.554  14.837  0.00  0.00    +0.000 C 
ENDBRANCH  13  28
BRANCH  20  30
ATOM     30  O   UNL     1     -13.306  39.071   9.789  0.00  0.00    +0.000 OA
BRANCH  30  38
ATOM     31  O   UNL     1     -12.297  38.700   7.737  0.00  0.00    +0.000 OA
ATOM     32  N   UNL     1     -13.781  40.443   7.992  0.00  0.00    +0.000 N 
ATOM     33  C   UNL     1     -14.401  43.207   7.260  0.00  0.00    +0.000 C 
ATOM     34  C   UNL     1     -14.462  42.688   8.718  0.00  0.00    +0.000 C 
ATOM     35  C   UNL     1     -13.394  42.332   6.472  0.00  0.00    +0.000 C 
ATOM     36  C   UNL     1     -14.734  41.188   8.796  0.00  0.00    +0.000 C 
ATOM     37  C   UNL     1     -13.692  40.841   6.600  0.00  0.00    +0.000 C 
ATOM     38  C   UNL     1     -13.063  39.346   8.446  0.00  0.00    +0.000 C 
BRANCH  33  39
ATOM     39  N   UNL     1     -14.045  44.660   7.195  0.00  0.00    +0.000 NA
ATOM     40  C   UNL     1     -12.756  44.945   7.861  0.00  0.00    +0.000 C 
ATOM     41  C   UNL     1     -14.016  45.167   5.808  0.00  0.00    +0.000 C 
ATOM     42  C   UNL     1     -12.388  46.431   7.833  0.00  0.00    +0.000 C 
ATOM     43  C   UNL     1     -13.679  46.658   5.727  0.00  0.00    +0.000 C 
ATOM     44  C   UNL     1     -12.361  46.970   6.413  0.00  0.00    +0.000 C 
ENDBRANCH  33  39
ENDBRANCH  30  38
ENDBRANCH  20  30
TORSDOF 6
ENDMDL
MODEL 3
REMARK VINA RESULT:      -8.0      4.905     10.120
REMARK  Name = 
REMARK  8 active torsions:
REMARK  status: ('A' for Active; 'I' for Inactive)
REMARK    1  A    between atoms: O_1  and  C_21
REMARK    2  A    between atoms: O_1  and  C_38
REMARK    3  A    between atoms: O_4  and  C_26
REMARK    4  A    between atoms: N_7  and  C_11
REMARK    5  A    between atoms: C_26  and  C_33
REMARK    6  A    between atoms: C_29  and  C_37
REMARK    7  A    between atoms: C_33  and  C_42
REMARK    8  A    between atoms: C_37  and  C_43
REMARK                            x       y       z     vdW  Elec       q    Type
REMARK                         _______ _______ _______ _____ _____    ______ ____
ROOT
ATOM      1  O   UNL     1      -0.014  40.041  15.967  0.00  0.00    +0.000 OA
ATOM      2  O   UNL     1      -1.621  42.276  19.157  0.00  0.00    +0.000 OA
ATOM      3  O   UNL     1      -0.524  38.291  14.653  0.00  0.00    +0.000 OA
ATOM      4  N   UNL     1      -3.773  41.840  18.488  0.00  0.00    +0.000 N 
ATOM      5  N   UNL     1      -7.145  41.217  17.437  0.00  0.00    +0.000 NA
ATOM      6  C   UNL     1      -4.662  41.309  17.576  0.00  0.00    +0.000 A 
ATOM      7  C   UNL     1      -5.919  42.256  19.259  0.00  0.00    +0.000 A 
ATOM      8  C   UNL     1      -4.475  42.471  19.610  0.00  0.00    +0.000 C 
ATOM      9  C   UNL     1      -2.800  40.565  16.239  0.00  0.00    +0.000 A 
ATOM     10  C   UNL     1      -2.295  39.906  14.980  0.00  0.00    +0.000 C 
ATOM     11  C   UNL     1      -6.015  41.569  18.055  0.00  0.00    +0.000 A 
ATOM     12  C   UNL     1      -1.926  41.082  17.126  0.00  0.00    +0.000 A 
ATOM     13  C   UNL     1      -7.080  42.628  19.922  0.00  0.00    +0.000 A 
ATOM     14  C   UNL     1      -4.235  40.685  16.474  0.00  0.00    +0.000 A 
ATOM     15  C   UNL     1      -2.410  41.787  18.355  0.00  0.00    +0.000 A 
ATOM     16  C   UNL     1      -8.315  42.289  19.298  0.00  0.00    +0.000 A 
ATOM     17  C   UNL     1      -0.451  41.010  16.943  0.00  0.00    +0.000 C 
ATOM     18  C   UNL     1      -8.281  41.578  18.054  0.00  0.00    +0.000 A 
ATOM     19  C   UNL     1      -0.877  39.333  15.207  0.00  0.00    +0.000 C 
ATOM     20  C   UNL     1     -10.749  42.270  19.175  0.00  0.00    +0.000 A 
ATOM     21  C   UNL     1      -9.576  42.619  19.842  0.00  0.00    +0.000 A 
ATOM     22  C   UNL     1      -9.476  41.232  17.437  0.00  0.00    +0.000 A 
ATOM     23  C   UNL     1     -10.715  41.562  17.986  0.00  0.00    +0.000 A 
ENDROOT
BRANCH  10  24
ATOM     24  O   UNL     1      -3.172  38.822  14.644  0.00  0.00    +0.000 OA
ATOM     25  H   UNL     1      -3.620  38.566  15.475  0.00  0.00    +0.000 HD
ENDBRANCH  10  24
BRANCH  10  26
ATOM     26  C   UNL     1      -2.274  40.915  13.813  0.00  0.00    +0.000 C 
ATOM     27  C   UNL     1      -3.619  41.106  13.117  0.00  0.00    +0.000 C 
ENDBRANCH  10  26
BRANCH  13  28
ATOM     28  C   UNL     1      -6.991  43.385  21.225  0.00  0.00    +0.000 C 
ATOM     29  C   UNL     1      -6.875  44.887  21.008  0.00  0.00    +0.000 C 
ENDBRANCH  13  28
BRANCH  20  30
ATOM     30  O   UNL     1     -11.979  42.572  19.760  0.00  0.00    +0.000 OA
BRANCH  30  38
ATOM     31  O   UNL     1     -12.742  44.362  18.503  0.00  0.00    +0.000 OA
ATOM     32  N   UNL     1     -12.316  44.633  20.750  0.00  0.00    +0.000 N 
ATOM     33  C   UNL     1     -11.278  46.437  22.807  0.00  0.00    +0.000 C 
ATOM     34  C   UNL     1     -10.873  44.945  22.712  0.00  0.00    +0.000 C 
ATOM     35  C   UNL     1     -11.697  46.919  21.394  0.00  0.00    +0.000 C 
ATOM     36  C   UNL     1     -11.943  44.087  22.044  0.00  0.00    +0.000 C 
ATOM     37  C   UNL     1     -12.749  46.017  20.758  0.00  0.00    +0.000 C 
ATOM     38  C   UNL     1     -12.379  43.893  19.579  0.00  0.00    +0.000 C 
BRANCH  33  39
ATOM     39  N   UNL     1     -10.184  47.282  23.381  0.00  0.00    +0.000 NA
ATOM     40  C   UNL     1      -8.940  46.511  23.593  0.00  0.00    +0.000 C 
ATOM     41  C   UNL     1      -9.902  48.472  22.551  0.00  0.00    +0.000 C 
ATOM     42  C   UNL     1      -7.818  47.349  24.209  0.00  0.00    +0.000 C 
ATOM     43  C   UNL     1      -8.803  49.360  23.139  0.00  0.00    +0.000 C 
ATOM     44  C   UNL     1      -7.520  48.581  23.371  0.00  0.00    +0.000 C 
ENDBRANCH  33  39
ENDBRANCH  30  38
ENDBRANCH  20  30
TORSDOF 6
ENDMDL
MODEL 4
REMARK VINA RESULT:      -8.0      3.143      3.686
REMARK  Name = 
REMARK  8 active torsions:
REMARK  status: ('A' for Active; 'I' for Inactive)
REMARK    1  A    between atoms: O_1  and  C_21
REMARK    2  A    between atoms: O_1  and  C_38
REMARK    3  A    between atoms: O_4  and  C_26
REMARK    4  A    between atoms: N_7  and  C_11
REMARK    5  A    between atoms: C_26  and  C_33
REMARK    6  A    between atoms: C_29  and  C_37
REMARK    7  A    between atoms: C_33  and  C_42
REMARK    8  A    between atoms: C_37  and  C_43
REMARK                            x       y       z     vdW  Elec       q    Type
REMARK                         _______ _______ _______ _____ _____    ______ ____
ROOT
ATOM      1  O   UNL     1     -12.845  38.637  11.444  0.00  0.00    +0.000 OA
ATOM      2  O   UNL     1      -8.873  39.572  10.398  0.00  0.00    +0.000 OA
ATOM      3  O   UNL     1     -14.066  38.029  13.230  0.00  0.00    +0.000 OA
ATOM      4  N   UNL     1      -8.410  40.344  12.510  0.00  0.00    +0.000 N 
ATOM      5  N   UNL     1      -7.674  41.602  15.787  0.00  0.00    +0.000 NA
ATOM      6  C   UNL     1      -8.824  40.673  13.784  0.00  0.00    +0.000 A 
ATOM      7  C   UNL     1      -6.569  41.134  13.674  0.00  0.00    +0.000 A 
ATOM      8  C   UNL     1      -6.978  40.600  12.333  0.00  0.00    +0.000 C 
ATOM      9  C   UNL     1     -11.060  39.987  13.204  0.00  0.00    +0.000 A 
ATOM     10  C   UNL     1     -12.510  39.846  13.593  0.00  0.00    +0.000 C 
ATOM     11  C   UNL     1      -7.669  41.173  14.522  0.00  0.00    +0.000 A 
ATOM     12  C   UNL     1     -10.663  39.664  11.958  0.00  0.00    +0.000 A 
ATOM     13  C   UNL     1      -5.336  41.567  14.144  0.00  0.00    +0.000 A 
ATOM     14  C   UNL     1     -10.096  40.518  14.162  0.00  0.00    +0.000 A 
ATOM     15  C   UNL     1      -9.237  39.847  11.537  0.00  0.00    +0.000 A 
ATOM     16  C   UNL     1      -5.290  42.049  15.484  0.00  0.00    +0.000 A 
ATOM     17  C   UNL     1     -11.593  39.132  10.925  0.00  0.00    +0.000 C 
ATOM     18  C   UNL     1      -6.496  42.037  16.257  0.00  0.00    +0.000 A 
ATOM     19  C   UNL     1     -13.188  38.745  12.745  0.00  0.00    +0.000 C 
ATOM     20  C   UNL     1      -4.136  43.011  17.403  0.00  0.00    +0.000 A 
ATOM     21  C   UNL     1      -4.113  42.541  16.091  0.00  0.00    +0.000 A 
ATOM     22  C   UNL     1      -6.465  42.495  17.568  0.00  0.00    +0.000 A 
ATOM     23  C   UNL     1      -5.296  42.977  18.157  0.00  0.00    +0.000 A 
ENDROOT
BRANCH  10  24
ATOM     24  O   UNL     1     -12.582  39.461  14.973  0.00  0.00    +0.000 OA
ATOM     25  H   UNL     1     -12.320  40.249  15.490  0.00  0.00    +0.000 HD
ENDBRANCH  10  24
BRANCH  10  26
ATOM     26  C   UNL     1     -13.253  41.186  13.407  0.00  0.00    +0.000 C 
ATOM     27  C   UNL     1     -13.973  41.689  14.655  0.00  0.00    +0.000 C 
ENDBRANCH  10  26
BRANCH  13  28
ATOM     28  C   UNL     1      -4.135  41.543  13.230  0.00  0.00    +0.000 C 
ATOM     29  C   UNL     1      -3.212  40.371  13.526  0.00  0.00    +0.000 C 
ENDBRANCH  13  28
BRANCH  20  30
ATOM     30  O   UNL     1      -2.948  43.450  17.988  0.00  0.00    +0.000 OA
BRANCH  30  38
ATOM     31  O   UNL     1      -2.576  41.380  18.960  0.00  0.00    +0.000 OA
ATOM     32  N   UNL     1      -1.842  43.294  20.011  0.00  0.00    +0.000 N 
ATOM     33  C   UNL     1      -1.470  44.640  22.582  0.00  0.00    +0.000 C 
ATOM     34  C   UNL     1      -2.118  45.330  21.355  0.00  0.00    +0.000 C 
ATOM     35  C   UNL     1      -1.691  43.112  22.454  0.00  0.00    +0.000 C 
ATOM     36  C   UNL     1      -1.649  44.734  20.031  0.00  0.00    +0.000 C 
ATOM     37  C   UNL     1      -1.230  42.566  21.106  0.00  0.00    +0.000 C 
ATOM     38  C   UNL     1      -2.464  42.603  18.981  0.00  0.00    +0.000 C 
BRANCH  33  39
ATOM     39  N   UNL     1      -2.006  45.174  23.875  0.00  0.00    +0.000 NA
ATOM     40  C   UNL     1      -3.203  44.433  24.327  0.00  0.00    +0.000 C 
ATOM     41  C   UNL     1      -0.985  45.179  24.943  0.00  0.00    +0.000 C 
ATOM     42  C   UNL     1      -3.784  44.983  25.632  0.00  0.00    +0.000 C 
ATOM     43  C   UNL     1      -1.509  45.746  26.264  0.00  0.00    +0.000 C 
ATOM     44  C   UNL     1      -2.744  45.001  26.740  0.00  0.00    +0.000 C 
ENDBRANCH  33  39
ENDBRANCH  30  38
ENDBRANCH  20  30
TORSDOF 6
ENDMDL
MODEL 5
REMARK VINA RESULT:      -7.7      4.022     12.277
REMARK  Name = 
REMARK  8 active torsions:
REMARK  status: ('A' for Active; 'I' for Inactive)
REMARK    1  A    between atoms: O_1  and  C_21
REMARK    2  A    between atoms: O_1  and  C_38
REMARK    3  A    between atoms: O_4  and  C_26
REMARK    4  A    between atoms: N_7  and  C_11
REMARK    5  A    between atoms: C_26  and  C_33
REMARK    6  A    between atoms: C_29  and  C_37
REMARK    7  A    between atoms: C_33  and  C_42
REMARK    8  A    between atoms: C_37  and  C_43
REMARK                            x       y       z     vdW  Elec       q    Type
REMARK                         _______ _______ _______ _____ _____    ______ ____
ROOT
ATOM      1  O   UNL     1      -1.679  40.951  17.206  0.00  0.00    +0.000 OA
ATOM      2  O   UNL     1      -5.605  42.319  17.885  0.00  0.00    +0.000 OA
ATOM      3  O   UNL     1      -0.584  39.279  16.179  0.00  0.00    +0.000 OA
ATOM      4  N   UNL     1      -6.355  41.398  15.921  0.00  0.00    +0.000 N 
ATOM      5  N   UNL     1      -7.543  40.011  12.834  0.00  0.00    +0.000 NA
ATOM      6  C   UNL     1      -6.108  40.749  14.728  0.00  0.00    +0.000 A 
ATOM      7  C   UNL     1      -8.377  41.139  14.818  0.00  0.00    +0.000 A 
ATOM      8  C   UNL     1      -7.781  41.694  16.079  0.00  0.00    +0.000 C 
ATOM      9  C   UNL     1      -3.764  40.678  15.287  0.00  0.00    +0.000 A 
ATOM     10  C   UNL     1      -2.353  40.317  14.896  0.00  0.00    +0.000 C 
ATOM     11  C   UNL     1      -7.377  40.585  14.028  0.00  0.00    +0.000 A 
ATOM     12  C   UNL     1      -3.999  41.312  16.453  0.00  0.00    +0.000 A 
ATOM     13  C   UNL     1      -9.689  41.113  14.367  0.00  0.00    +0.000 A 
ATOM     14  C   UNL     1      -4.870  40.384  14.381  0.00  0.00    +0.000 A 
ATOM     15  C   UNL     1      -5.387  41.726  16.834  0.00  0.00    +0.000 A 
ATOM     16  C   UNL     1      -9.920  40.525  13.089  0.00  0.00    +0.000 A 
ATOM     17  C   UNL     1      -2.919  41.657  17.417  0.00  0.00    +0.000 C 
ATOM     18  C   UNL     1      -8.803  39.987  12.372  0.00  0.00    +0.000 A 
ATOM     19  C   UNL     1      -1.481  40.123  16.158  0.00  0.00    +0.000 C 
ATOM     20  C   UNL     1     -11.355  39.869  11.232  0.00  0.00    +0.000 A 
ATOM     21  C   UNL     1     -11.197  40.445  12.491  0.00  0.00    +0.000 A 
ATOM     22  C   UNL     1      -9.012  39.402  11.130  0.00  0.00    +0.000 A 
ATOM     23  C   UNL     1     -10.279  39.327  10.550  0.00  0.00    +0.000 A 
ENDROOT
BRANCH  10  24
ATOM     24  O   UNL     1      -2.378  39.080  14.170  0.00  0.00    +0.000 OA
ATOM     25  H   UNL     1      -1.520  39.020  13.704  0.00  0.00    +0.000 HD
ENDBRANCH  10  24
BRANCH  10  26
ATOM     26  C   UNL     1      -1.744  41.414  13.997  0.00  0.00    +0.000 C 
ATOM     27  C   UNL     1      -0.603  42.198  14.641  0.00  0.00    +0.000 C 
ENDBRANCH  10  26
BRANCH  13  28
ATOM     28  C   UNL     1     -10.784  41.723  15.208  0.00  0.00    +0.000 C 
ATOM     29  C   UNL     1     -11.395  40.718  16.172  0.00  0.00    +0.000 C 
ENDBRANCH  13  28
BRANCH  20  30
ATOM     30  O   UNL     1     -12.636  39.766  10.688  0.00  0.00    +0.000 OA
BRANCH  30  38
ATOM     31  O   UNL     1     -12.218  38.845   8.604  0.00  0.00    +0.000 OA
ATOM     32  N   UNL     1     -13.222  40.911   8.768  0.00  0.00    +0.000 N 
ATOM     33  C   UNL     1     -13.423  43.592   7.613  0.00  0.00    +0.000 C 
ATOM     34  C   UNL     1     -13.252  43.339   9.132  0.00  0.00    +0.000 C 
ATOM     35  C   UNL     1     -12.820  42.387   6.848  0.00  0.00    +0.000 C 
ATOM     36  C   UNL     1     -13.796  41.981   9.566  0.00  0.00    +0.000 C 
ATOM     37  C   UNL     1     -13.376  41.051   7.333  0.00  0.00    +0.000 C 
ATOM     38  C   UNL     1     -12.656  39.760   9.296  0.00  0.00    +0.000 C 
BRANCH  33  39
ATOM     39  N   UNL     1     -12.805  44.887   7.186  0.00  0.00    +0.000 NA
ATOM     40  C   UNL     1     -13.323  45.345   5.879  0.00  0.00    +0.000 C 
ATOM     41  C   UNL     1     -12.981  45.951   8.197  0.00  0.00    +0.000 C 
ATOM     42  C   UNL     1     -12.681  46.653   5.410  0.00  0.00    +0.000 C 
ATOM     43  C   UNL     1     -12.331  47.274   7.786  0.00  0.00    +0.000 C 
ATOM     44  C   UNL     1     -12.847  47.755   6.442  0.00  0.00    +0.000 C 
ENDBRANCH  33  39
ENDBRANCH  30  38
ENDBRANCH  20  30
TORSDOF 6
ENDMDL
MODEL 6
REMARK VINA RESULT:      -7.7     15.784     22.033
REMARK  Name = 
REMARK  8 active torsions:
REMARK  status: ('A' for Active; 'I' for Inactive)
REMARK    1  A    between atoms: O_1  and  C_21
REMARK    2  A    between atoms: O_1  and  C_38
REMARK    3  A    between atoms: O_4  and  C_26
REMARK    4  A    between atoms: N_7  and  C_11
REMARK    5  A    between atoms: C_26  and  C_33
REMARK    6  A    between atoms: C_29  and  C_37
REMARK    7  A    between atoms: C_33  and  C_42
REMARK    8  A    between atoms: C_37  and  C_43
REMARK                            x       y       z     vdW  Elec       q    Type
REMARK                         _______ _______ _______ _____ _____    ______ ____
ROOT
ATOM      1  O   UNL     1       7.489  62.070  18.559  0.00  0.00    +0.000 OA
ATOM      2  O   UNL     1       4.283  63.180  16.061  0.00  0.00    +0.000 OA
ATOM      3  O   UNL     1       7.890  60.938  20.458  0.00  0.00    +0.000 OA
ATOM      4  N   UNL     1       3.070  61.323  16.652  0.00  0.00    +0.000 N 
ATOM      5  N   UNL     1       1.174  58.404  17.519  0.00  0.00    +0.000 NA
ATOM      6  C   UNL     1       2.970  60.116  17.313  0.00  0.00    +0.000 A 
ATOM      7  C   UNL     1       0.958  60.460  16.242  0.00  0.00    +0.000 A 
ATOM      8  C   UNL     1       1.833  61.641  15.933  0.00  0.00    +0.000 C 
ATOM      9  C   UNL     1       5.222  60.404  18.120  0.00  0.00    +0.000 A 
ATOM     10  C   UNL     1       6.398  59.858  18.890  0.00  0.00    +0.000 C 
ATOM     11  C   UNL     1       1.643  59.567  17.058  0.00  0.00    +0.000 A 
ATOM     12  C   UNL     1       5.327  61.583  17.477  0.00  0.00    +0.000 A 
ATOM     13  C   UNL     1      -0.339  60.162  15.849  0.00  0.00    +0.000 A 
ATOM     14  C   UNL     1       3.986  59.633  18.033  0.00  0.00    +0.000 A 
ATOM     15  C   UNL     1       4.188  62.117  16.665  0.00  0.00    +0.000 A 
ATOM     16  C   UNL     1      -0.882  58.925  16.302  0.00  0.00    +0.000 A 
ATOM     17  C   UNL     1       6.561  62.415  17.509  0.00  0.00    +0.000 C 
ATOM     18  C   UNL     1      -0.074  58.090  17.140  0.00  0.00    +0.000 A 
ATOM     19  C   UNL     1       7.302  61.013  19.378  0.00  0.00    +0.000 C 
ATOM     20  C   UNL     1      -2.647  57.250  16.431  0.00  0.00    +0.000 A 
ATOM     21  C   UNL     1      -2.178  58.477  15.966  0.00  0.00    +0.000 A 
ATOM     22  C   UNL     1      -0.591  56.885  17.597  0.00  0.00    +0.000 A 
ATOM     23  C   UNL     1      -1.874  56.454  17.260  0.00  0.00    +0.000 A 
ENDROOT
BRANCH  10  24
ATOM     24  O   UNL     1       5.910  59.150  20.038  0.00  0.00    +0.000 OA
ATOM     25  H   UNL     1       4.936  59.123  19.948  0.00  0.00    +0.000 HD
ENDBRANCH  10  24
BRANCH  10  26
ATOM     26  C   UNL     1       7.214  58.885  18.011  0.00  0.00    +0.000 C 
ATOM     27  C   UNL     1       8.205  58.017  18.781  0.00  0.00    +0.000 C 
ENDBRANCH  10  26
BRANCH  13  28
ATOM     28  C   UNL     1      -1.089  61.118  14.953  0.00  0.00    +0.000 C 
ATOM     29  C   UNL     1      -1.854  62.167  15.746  0.00  0.00    +0.000 C 
ENDBRANCH  13  28
BRANCH  20  30
ATOM     30  O   UNL     1      -3.948  56.856  16.118  0.00  0.00    +0.000 OA
BRANCH  30  38
ATOM     31  O   UNL     1      -3.864  55.422  14.300  0.00  0.00    +0.000 OA
ATOM     32  N   UNL     1      -4.633  57.576  14.032  0.00  0.00    +0.000 N 
ATOM     33  C   UNL     1      -4.698  59.911  12.269  0.00  0.00    +0.000 C 
ATOM     34  C   UNL     1      -4.381  60.006  13.782  0.00  0.00    +0.000 C 
ATOM     35  C   UNL     1      -4.309  58.493  11.778  0.00  0.00    +0.000 C 
ATOM     36  C   UNL     1      -5.004  58.867  14.585  0.00  0.00    +0.000 C 
ATOM     37  C   UNL     1      -4.935  57.390  12.625  0.00  0.00    +0.000 C 
ATOM     38  C   UNL     1      -4.128  56.522  14.778  0.00  0.00    +0.000 C 
BRANCH  33  39
ATOM     39  N   UNL     1      -4.008  60.981  11.481  0.00  0.00    +0.000 NA
ATOM     40  C   UNL     1      -3.529  62.082  12.343  0.00  0.00    +0.000 C 
ATOM     41  C   UNL     1      -2.888  60.449  10.677  0.00  0.00    +0.000 C 
ATOM     42  C   UNL     1      -2.847  63.202  11.553  0.00  0.00    +0.000 C 
ATOM     43  C   UNL     1      -2.189  61.527   9.845  0.00  0.00    +0.000 C 
ATOM     44  C   UNL     1      -1.697  62.671  10.715  0.00  0.00    +0.000 C 
ENDBRANCH  33  39
ENDBRANCH  30  38
ENDBRANCH  20  30
TORSDOF 6
ENDMDL
MODEL 7
REMARK VINA RESULT:      -7.5     24.156     27.424
REMARK  Name = 
REMARK  8 active torsions:
REMARK  status: ('A' for Active; 'I' for Inactive)
REMARK    1  A    between atoms: O_1  and  C_21
REMARK    2  A    between atoms: O_1  and  C_38
REMARK    3  A    between atoms: O_4  and  C_26
REMARK    4  A    between atoms: N_7  and  C_11
REMARK    5  A    between atoms: C_26  and  C_33
REMARK    6  A    between atoms: C_29  and  C_37
REMARK    7  A    between atoms: C_33  and  C_42
REMARK    8  A    between atoms: C_37  and  C_43
REMARK                            x       y       z     vdW  Elec       q    Type
REMARK                         _______ _______ _______ _____ _____    ______ ____
ROOT
ATOM      1  O   UNL     1       0.120  63.815  10.286  0.00  0.00    +0.000 OA
ATOM      2  O   UNL     1       0.550  64.939   6.248  0.00  0.00    +0.000 OA
ATOM      3  O   UNL     1      -1.407  63.838  11.934  0.00  0.00    +0.000 OA
ATOM      4  N   UNL     1      -1.688  64.636   5.839  0.00  0.00    +0.000 N 
ATOM      5  N   UNL     1      -5.173  64.125   5.159  0.00  0.00    +0.000 NA
ATOM      6  C   UNL     1      -2.939  64.224   6.252  0.00  0.00    +0.000 A 
ATOM      7  C   UNL     1      -3.160  64.952   4.077  0.00  0.00    +0.000 A 
ATOM      8  C   UNL     1      -1.718  65.124   4.458  0.00  0.00    +0.000 C 
ATOM      9  C   UNL     1      -2.010  63.657   8.402  0.00  0.00    +0.000 A 
ATOM     10  C   UNL     1      -2.201  63.075   9.780  0.00  0.00    +0.000 C 
ATOM     11  C   UNL     1      -3.870  64.418   5.146  0.00  0.00    +0.000 A 
ATOM     12  C   UNL     1      -0.786  64.058   8.005  0.00  0.00    +0.000 A 
ATOM     13  C   UNL     1      -3.827  65.227   2.891  0.00  0.00    +0.000 A 
ATOM     14  C   UNL     1      -3.139  63.743   7.483  0.00  0.00    +0.000 A 
ATOM     15  C   UNL     1      -0.565  64.590   6.623  0.00  0.00    +0.000 A 
ATOM     16  C   UNL     1      -5.217  64.918   2.846  0.00  0.00    +0.000 A 
ATOM     17  C   UNL     1       0.414  63.985   8.884  0.00  0.00    +0.000 C 
ATOM     18  C   UNL     1      -5.834  64.371   4.018  0.00  0.00    +0.000 A 
ATOM     19  C   UNL     1      -1.135  63.631  10.750  0.00  0.00    +0.000 C 
ATOM     20  C   UNL     1      -7.374  64.787   1.719  0.00  0.00    +0.000 A 
ATOM     21  C   UNL     1      -6.022  65.122   1.704  0.00  0.00    +0.000 A 
ATOM     22  C   UNL     1      -7.191  64.072   3.994  0.00  0.00    +0.000 A 
ATOM     23  C   UNL     1      -7.975  64.281   2.859  0.00  0.00    +0.000 A 
ENDROOT
BRANCH  10  24
ATOM     24  O   UNL     1      -3.496  63.456  10.265  0.00  0.00    +0.000 OA
ATOM     25  H   UNL     1      -3.560  63.107  11.177  0.00  0.00    +0.000 HD
ENDBRANCH  10  24
BRANCH  10  26
ATOM     26  C   UNL     1      -2.118  61.534   9.732  0.00  0.00    +0.000 C 
ATOM     27  C   UNL     1      -2.844  60.825  10.872  0.00  0.00    +0.000 C 
ENDBRANCH  10  26
BRANCH  13  28
ATOM     28  C   UNL     1      -3.066  65.794   1.718  0.00  0.00    +0.000 C 
ATOM     29  C   UNL     1      -2.508  64.705   0.815  0.00  0.00    +0.000 C 
ENDBRANCH  13  28
BRANCH  20  30
ATOM     30  O   UNL     1      -8.151  65.042   0.589  0.00  0.00    +0.000 OA
BRANCH  30  38
ATOM     31  O   UNL     1      -8.654  62.963  -0.301  0.00  0.00    +0.000 OA
ATOM     32  N   UNL     1      -7.272  64.403  -1.451  0.00  0.00    +0.000 N 
ATOM     33  C   UNL     1      -4.898  64.626  -3.147  0.00  0.00    +0.000 C 
ATOM     34  C   UNL     1      -5.143  65.535  -1.917  0.00  0.00    +0.000 C 
ATOM     35  C   UNL     1      -5.655  63.292  -2.926  0.00  0.00    +0.000 C 
ATOM     36  C   UNL     1      -6.626  65.696  -1.592  0.00  0.00    +0.000 C 
ATOM     37  C   UNL     1      -7.125  63.505  -2.580  0.00  0.00    +0.000 C 
ATOM     38  C   UNL     1      -8.078  64.045  -0.380  0.00  0.00    +0.000 C 
BRANCH  33  39
ATOM     39  N   UNL     1      -3.440  64.404  -3.400  0.00  0.00    +0.000 NA
ATOM     40  C   UNL     1      -2.611  65.512  -2.881  0.00  0.00    +0.000 C 
ATOM     41  C   UNL     1      -2.966  63.119  -2.845  0.00  0.00    +0.000 C 
ATOM     42  C   UNL     1      -1.118  65.318  -3.157  0.00  0.00    +0.000 C 
ATOM     43  C   UNL     1      -1.482  62.864  -3.119  0.00  0.00    +0.000 C 
ATOM     44  C   UNL     1      -0.616  63.997  -2.598  0.00  0.00    +0.000 C 
ENDBRANCH  33  39
ENDBRANCH  30  38
ENDBRANCH  20  30
TORSDOF 6
ENDMDL
MODEL 8
REMARK VINA RESULT:      -7.4     18.574     23.576
REMARK  Name = 
REMARK  8 active torsions:
REMARK  status: ('A' for Active; 'I' for Inactive)
REMARK    1  A    between atoms: O_1  and  C_21
REMARK    2  A    between atoms: O_1  and  C_38
REMARK    3  A    between atoms: O_4  and  C_26
REMARK    4  A    between atoms: N_7  and  C_11
REMARK    5  A    between atoms: C_26  and  C_33
REMARK    6  A    between atoms: C_29  and  C_37
REMARK    7  A    between atoms: C_33  and  C_42
REMARK    8  A    between atoms: C_37  and  C_43
REMARK                            x       y       z     vdW  Elec       q    Type
REMARK                         _______ _______ _______ _____ _____    ______ ____
ROOT
ATOM      1  O   UNL     1       9.500  60.424  19.036  0.00  0.00    +0.000 OA
ATOM      2  O   UNL     1       7.363  62.864  16.348  0.00  0.00    +0.000 OA
ATOM      3  O   UNL     1       9.171  59.183  20.880  0.00  0.00    +0.000 OA
ATOM      4  N   UNL     1       5.421  61.692  16.697  0.00  0.00    +0.000 N 
ATOM      5  N   UNL     1       2.384  59.847  17.186  0.00  0.00    +0.000 NA
ATOM      6  C   UNL     1       4.746  60.628  17.260  0.00  0.00    +0.000 A 
ATOM      7  C   UNL     1       3.202  61.829  16.042  0.00  0.00    +0.000 A 
ATOM      8  C   UNL     1       4.522  62.527  15.895  0.00  0.00    +0.000 C 
ATOM      9  C   UNL     1       6.803  59.902  18.283  0.00  0.00    +0.000 A 
ATOM     10  C   UNL     1       7.545  58.886  19.113  0.00  0.00    +0.000 C 
ATOM     11  C   UNL     1       3.348  60.708  16.850  0.00  0.00    +0.000 A 
ATOM     12  C   UNL     1       7.469  60.939  17.735  0.00  0.00    +0.000 A 
ATOM     13  C   UNL     1       1.953  62.126  15.515  0.00  0.00    +0.000 A 
ATOM     14  C   UNL     1       5.376  59.738  18.033  0.00  0.00    +0.000 A 
ATOM     15  C   UNL     1       6.760  61.929  16.864  0.00  0.00    +0.000 A 
ATOM     16  C   UNL     1       0.890  61.230  15.830  0.00  0.00    +0.000 A 
ATOM     17  C   UNL     1       8.927  61.160  17.935  0.00  0.00    +0.000 C 
ATOM     18  C   UNL     1       1.170  60.108  16.676  0.00  0.00    +0.000 A 
ATOM     19  C   UNL     1       8.794  59.529  19.759  0.00  0.00    +0.000 C 
ATOM     20  C   UNL     1      -1.421  60.471  15.685  0.00  0.00    +0.000 A 
ATOM     21  C   UNL     1      -0.428  61.390  15.350  0.00  0.00    +0.000 A 
ATOM     22  C   UNL     1       0.144  59.230  17.001  0.00  0.00    +0.000 A 
ATOM     23  C   UNL     1      -1.155  59.400  16.522  0.00  0.00    +0.000 A 
ENDROOT
BRANCH  10  24
ATOM     24  O   UNL     1       6.680  58.427  20.161  0.00  0.00    +0.000 OA
ATOM     25  H   UNL     1       5.768  58.500  19.814  0.00  0.00    +0.000 HD
ENDBRANCH  10  24
BRANCH  10  26
ATOM     26  C   UNL     1       7.964  57.680  18.245  0.00  0.00    +0.000 C 
ATOM     27  C   UNL     1       8.545  56.507  19.029  0.00  0.00    +0.000 C 
ENDBRANCH  10  26
BRANCH  13  28
ATOM     28  C   UNL     1       1.782  63.333  14.625  0.00  0.00    +0.000 C 
ATOM     29  C   UNL     1       1.397  64.576  15.412  0.00  0.00    +0.000 C 
ENDBRANCH  13  28
BRANCH  20  30
ATOM     30  O   UNL     1      -2.723  60.681  15.230  0.00  0.00    +0.000 OA
BRANCH  30  38
ATOM     31  O   UNL     1      -3.242  58.625  14.298  0.00  0.00    +0.000 OA
ATOM     32  N   UNL     1      -3.284  60.522  12.994  0.00  0.00    +0.000 N 
ATOM     33  C   UNL     1      -2.710  61.647  10.354  0.00  0.00    +0.000 C 
ATOM     34  C   UNL     1      -2.272  62.329  11.674  0.00  0.00    +0.000 C 
ATOM     35  C   UNL     1      -2.841  60.124  10.613  0.00  0.00    +0.000 C 
ATOM     36  C   UNL     1      -3.172  61.964  12.851  0.00  0.00    +0.000 C 
ATOM     37  C   UNL     1      -3.730  59.810  11.812  0.00  0.00    +0.000 C 
ATOM     38  C   UNL     1      -3.097  59.839  14.187  0.00  0.00    +0.000 C 
BRANCH  33  39
ATOM     39  N   UNL     1      -1.767  61.941   9.229  0.00  0.00    +0.000 NA
ATOM     40  C   UNL     1      -2.419  61.806   7.909  0.00  0.00    +0.000 C 
ATOM     41  C   UNL     1      -1.151  63.278   9.352  0.00  0.00    +0.000 C 
ATOM     42  C   UNL     1      -1.462  62.073   6.744  0.00  0.00    +0.000 C 
ATOM     43  C   UNL     1      -0.163  63.583   8.223  0.00  0.00    +0.000 C 
ATOM     44  C   UNL     1      -0.815  63.442   6.859  0.00  0.00    +0.000 C 
ENDBRANCH  33  39
ENDBRANCH  30  38
ENDBRANCH  20  30
TORSDOF 6
ENDMDL
MODEL 9
REMARK VINA RESULT:      -7.2      6.343      9.142
REMARK  Name = 
REMARK  8 active torsions:
REMARK  status: ('A' for Active; 'I' for Inactive)
REMARK    1  A    between atoms: O_1  and  C_21
REMARK    2  A    between atoms: O_1  and  C_38
REMARK    3  A    between atoms: O_4  and  C_26
REMARK    4  A    between atoms: N_7  and  C_11
REMARK    5  A    between atoms: C_26  and  C_33
REMARK    6  A    between atoms: C_29  and  C_37
REMARK    7  A    between atoms: C_33  and  C_42
REMARK    8  A    between atoms: C_37  and  C_43
REMARK                            x       y       z     vdW  Elec       q    Type
REMARK                         _______ _______ _______ _____ _____    ______ ____
ROOT
ATOM      1  O   UNL     1      -9.766  39.022  10.409  0.00  0.00    +0.000 OA
ATOM      2  O   UNL     1      -6.850  40.268  13.184  0.00  0.00    +0.000 OA
ATOM      3  O   UNL     1     -11.836  38.150  10.351  0.00  0.00    +0.000 OA
ATOM      4  N   UNL     1      -8.445  40.810  14.742  0.00  0.00    +0.000 N 
ATOM      5  N   UNL     1     -10.918  41.713  17.179  0.00  0.00    +0.000 NA
ATOM      6  C   UNL     1      -9.768  40.968  15.101  0.00  0.00    +0.000 A 
ATOM      7  C   UNL     1      -8.505  41.550  16.938  0.00  0.00    +0.000 A 
ATOM      8  C   UNL     1      -7.549  41.155  15.850  0.00  0.00    +0.000 C 
ATOM      9  C   UNL     1     -10.420  40.244  12.897  0.00  0.00    +0.000 A 
ATOM     10  C   UNL     1     -11.515  39.987  11.892  0.00  0.00    +0.000 C 
ATOM     11  C   UNL     1      -9.813  41.435  16.482  0.00  0.00    +0.000 A 
ATOM     12  C   UNL     1      -9.130  40.088  12.540  0.00  0.00    +0.000 A 
ATOM     13  C   UNL     1      -8.276  41.985  18.236  0.00  0.00    +0.000 A 
ATOM     14  C   UNL     1     -10.756  40.707  14.239  0.00  0.00    +0.000 A 
ATOM     15  C   UNL     1      -8.027  40.389  13.507  0.00  0.00    +0.000 A 
ATOM     16  C   UNL     1      -9.422  42.310  19.019  0.00  0.00    +0.000 A 
ATOM     17  C   UNL     1      -8.714  39.635  11.185  0.00  0.00    +0.000 C 
ATOM     18  C   UNL     1     -10.719  42.148  18.432  0.00  0.00    +0.000 A 
ATOM     19  C   UNL     1     -11.045  38.960  10.837  0.00  0.00    +0.000 C 
ATOM     20  C   UNL     1     -10.504  43.097  21.056  0.00  0.00    +0.000 A 
ATOM     21  C   UNL     1      -9.346  42.785  20.347  0.00  0.00    +0.000 A 
ATOM     22  C   UNL     1     -11.847  42.451  19.185  0.00  0.00    +0.000 A 
ATOM     23  C   UNL     1     -11.758  42.918  20.496  0.00  0.00    +0.000 A 
ENDROOT
BRANCH  10  24
ATOM     24  O   UNL     1     -12.651  39.441  12.578  0.00  0.00    +0.000 OA
ATOM     25  H   UNL     1     -12.362  39.279  13.499  0.00  0.00    +0.000 HD
ENDBRANCH  10  24
BRANCH  10  26
ATOM     26  C   UNL     1     -11.933  41.301  11.199  0.00  0.00    +0.000 C 
ATOM     27  C   UNL     1     -13.290  41.844  11.637  0.00  0.00    +0.000 C 
ENDBRANCH  10  26
BRANCH  13  28
ATOM     28  C   UNL     1      -6.861  42.127  18.741  0.00  0.00    +0.000 C 
ATOM     29  C   UNL     1      -6.286  43.506  18.457  0.00  0.00    +0.000 C 
ENDBRANCH  13  28
BRANCH  20  30
ATOM     30  O   UNL     1     -10.397  43.523  22.380  0.00  0.00    +0.000 OA
BRANCH  30  38
ATOM     31  O   UNL     1      -8.578  44.947  22.548  0.00  0.00    +0.000 OA
ATOM     32  N   UNL     1     -10.716  45.796  22.643  0.00  0.00    +0.000 N 
ATOM     33  C   UNL     1     -12.468  47.783  23.887  0.00  0.00    +0.000 C 
ATOM     34  C   UNL     1     -12.859  46.291  23.735  0.00  0.00    +0.000 C 
ATOM     35  C   UNL     1     -10.922  47.880  23.924  0.00  0.00    +0.000 C 
ATOM     36  C   UNL     1     -12.155  45.616  22.561  0.00  0.00    +0.000 C 
ATOM     37  C   UNL     1     -10.264  47.170  22.745  0.00  0.00    +0.000 C 
ATOM     38  C   UNL     1      -9.792  44.769  22.523  0.00  0.00    +0.000 C 
BRANCH  33  39
ATOM     39  N   UNL     1     -13.094  48.409  25.094  0.00  0.00    +0.000 NA
ATOM     40  C   UNL     1     -13.754  47.407  25.959  0.00  0.00    +0.000 C 
ATOM     41  C   UNL     1     -12.123  49.194  25.884  0.00  0.00    +0.000 C 
ATOM     42  C   UNL     1     -14.427  48.031  27.184  0.00  0.00    +0.000 C 
ATOM     43  C   UNL     1     -12.754  49.862  27.108  0.00  0.00    +0.000 C 
ATOM     44  C   UNL     1     -13.443  48.848  28.004  0.00  0.00    +0.000 C 
ENDBRANCH  33  39
ENDBRANCH  30  38
ENDBRANCH  20  30
TORSDOF 6
ENDMDL
