MODEL 1
REMARK VINA RESULT:      -7.8      0.000      0.000
REMARK  Name = 
REMARK  8 active torsions:
REMARK  status: ('A' for Active; 'I' for Inactive)
REMARK    1  A    between atoms: O_1  and  C_21
REMARK    2  A    between atoms: O_1  and  C_38
REMARK    3  A    between atoms: O_4  and  C_26
REMARK    4  A    between atoms: N_7  and  C_11
REMARK    5  A    between atoms: C_26  and  C_33
REMARK    6  A    between atoms: C_29  and  C_37
REMARK    7  A    between atoms: C_33  and  C_42
REMARK    8  A    between atoms: C_37  and  C_43
REMARK                            x       y       z     vdW  Elec       q    Type
REMARK                         _______ _______ _______ _____ _____    ______ ____
ROOT
ATOM      1  O   UNL     1      -4.017  43.707  21.263  0.00  0.00    +0.000 OA
ATOM      2  O   UNL     1      -7.781  42.130  20.219  0.00  0.00    +0.000 OA
ATOM      3  O   UNL     1      -1.877  43.673  20.577  0.00  0.00    +0.000 OA
ATOM      4  N   UNL     1      -7.216  42.029  17.996  0.00  0.00    +0.000 N 
ATOM      5  N   UNL     1      -6.377  41.908  14.511  0.00  0.00    +0.000 NA
ATOM      6  C   UNL     1      -6.335  42.298  16.969  0.00  0.00    +0.000 A 
ATOM      7  C   UNL     1      -8.163  41.259  16.026  0.00  0.00    +0.000 A 
ATOM      8  C   UNL     1      -8.423  41.362  17.501  0.00  0.00    +0.000 C 
ATOM      9  C   UNL     1      -4.821  43.283  18.564  0.00  0.00    +0.000 A 
ATOM     10  C   UNL     1      -3.529  44.010  18.841  0.00  0.00    +0.000 C 
ATOM     11  C   UNL     1      -6.926  41.817  15.725  0.00  0.00    +0.000 A 
ATOM     12  C   UNL     1      -5.677  43.025  19.572  0.00  0.00    +0.000 A 
ATOM     13  C   UNL     1      -8.934  40.729  15.001  0.00  0.00    +0.000 A 
ATOM     14  C   UNL     1      -5.166  42.904  17.198  0.00  0.00    +0.000 A 
ATOM     15  C   UNL     1      -6.989  42.352  19.309  0.00  0.00    +0.000 A 
ATOM     16  C   UNL     1      -8.401  40.813  13.683  0.00  0.00    +0.000 A 
ATOM     17  C   UNL     1      -5.398  43.397  20.986  0.00  0.00    +0.000 C 
ATOM     18  C   UNL     1      -7.112  41.413  13.504  0.00  0.00    +0.000 A 
ATOM     19  C   UNL     1      -3.074  43.758  20.297  0.00  0.00    +0.000 C 
ATOM     20  C   UNL     1      -8.509  40.461  11.274  0.00  0.00    +0.000 A 
ATOM     21  C   UNL     1      -9.079  40.337  12.539  0.00  0.00    +0.000 A 
ATOM     22  C   UNL     1      -6.574  41.495  12.226  0.00  0.00    +0.000 A 
ATOM     23  C   UNL     1      -7.253  41.019  11.104  0.00  0.00    +0.000 A 
ENDROOT
BRANCH  10  24
ATOM     24  O   UNL     1      -2.518  43.504  17.958  0.00  0.00    +0.000 OA
ATOM     25  H   UNL     1      -2.965  43.319  17.108  0.00  0.00    +0.000 HD
ENDBRANCH  10  24
BRANCH  10  26
ATOM     26  C   UNL     1      -3.696  45.524  18.596  0.00  0.00    +0.000 C 
ATOM     27  C   UNL     1      -2.462  46.213  18.020  0.00  0.00    +0.000 C 
ENDBRANCH  10  26
BRANCH  13  28
ATOM     28  C   UNL     1     -10.285  40.132  15.312  0.00  0.00    +0.000 C 
ATOM     29  C   UNL     1     -11.390  41.177  15.305  0.00  0.00    +0.000 C 
ENDBRANCH  13  28
BRANCH  20  30
ATOM     30  O   UNL     1      -9.185  39.941  10.169  0.00  0.00    +0.000 OA
BRANCH  30  38
ATOM     31  O   UNL     1     -10.221  41.841   9.343  0.00  0.00    +0.000 OA
ATOM     32  N   UNL     1     -11.484  40.012   9.944  0.00  0.00    +0.000 N 
ATOM     33  C   UNL     1     -13.982  39.103  11.168  0.00  0.00    +0.000 C 
ATOM     34  C   UNL     1     -12.598  38.514  11.539  0.00  0.00    +0.000 C 
ATOM     35  C   UNL     1     -13.772  40.549  10.651  0.00  0.00    +0.000 C 
ATOM     36  C   UNL     1     -11.583  38.638  10.406  0.00  0.00    +0.000 C 
ATOM     37  C   UNL     1     -12.733  40.626   9.537  0.00  0.00    +0.000 C 
ATOM     38  C   UNL     1     -10.288  40.695   9.779  0.00  0.00    +0.000 C 
BRANCH  33  39
ATOM     39  N   UNL     1     -14.940  39.057  12.317  0.00  0.00    +0.000 NA
ATOM     40  C   UNL     1     -14.452  39.833  13.478  0.00  0.00    +0.000 C 
ATOM     41  C   UNL     1     -16.291  39.519  11.938  0.00  0.00    +0.000 C 
ATOM     42  C   UNL     1     -15.403  39.772  14.675  0.00  0.00    +0.000 C 
ATOM     43  C   UNL     1     -17.290  39.452  13.096  0.00  0.00    +0.000 C 
ATOM     44  C   UNL     1     -16.800  40.237  14.300  0.00  0.00    +0.000 C 
ENDBRANCH  33  39
ENDBRANCH  30  38
ENDBRANCH  20  30
TORSDOF 6
ENDMDL
MODEL 2
REMARK VINA RESULT:      -7.4     29.238     32.294
REMARK  Name = 
REMARK  8 active torsions:
REMARK  status: ('A' for Active; 'I' for Inactive)
REMARK    1  A    between atoms: O_1  and  C_21
REMARK    2  A    between atoms: O_1  and  C_38
REMARK    3  A    between atoms: O_4  and  C_26
REMARK    4  A    between atoms: N_7  and  C_11
REMARK    5  A    between atoms: C_26  and  C_33
REMARK    6  A    between atoms: C_29  and  C_37
REMARK    7  A    between atoms: C_33  and  C_42
REMARK    8  A    between atoms: C_37  and  C_43
REMARK                            x       y       z     vdW  Elec       q    Type
REMARK                         _______ _______ _______ _____ _____    ______ ____
ROOT
ATOM      1  O   UNL     1      -4.056  60.546  -6.240  0.00  0.00    +0.000 OA
ATOM      2  O   UNL     1      -1.747  57.246  -7.479  0.00  0.00    +0.000 OA
ATOM      3  O   UNL     1      -3.976  62.269  -4.800  0.00  0.00    +0.000 OA
ATOM      4  N   UNL     1       0.215  58.326  -6.979  0.00  0.00    +0.000 N 
ATOM      5  N   UNL     1       3.299  60.007  -6.253  0.00  0.00    +0.000 NA
ATOM      6  C   UNL     1       0.894  59.460  -6.581  0.00  0.00    +0.000 A 
ATOM      7  C   UNL     1       2.480  57.834  -6.965  0.00  0.00    +0.000 A 
ATOM      8  C   UNL     1       1.139  57.221  -7.249  0.00  0.00    +0.000 C 
ATOM      9  C   UNL     1      -1.212  60.613  -6.378  0.00  0.00    +0.000 A 
ATOM     10  C   UNL     1      -1.966  61.887  -6.090  0.00  0.00    +0.000 C 
ATOM     11  C   UNL     1       2.321  59.157  -6.573  0.00  0.00    +0.000 A 
ATOM     12  C   UNL     1      -1.881  59.509  -6.766  0.00  0.00    +0.000 A 
ATOM     13  C   UNL     1       3.759  57.299  -7.043  0.00  0.00    +0.000 A 
ATOM     14  C   UNL     1       0.243  60.588  -6.282  0.00  0.00    +0.000 A 
ATOM     15  C   UNL     1      -1.147  58.249  -7.107  0.00  0.00    +0.000 A 
ATOM     16  C   UNL     1       4.842  58.170  -6.726  0.00  0.00    +0.000 A 
ATOM     17  C   UNL     1      -3.363  59.466  -6.900  0.00  0.00    +0.000 C 
ATOM     18  C   UNL     1       4.545  59.515  -6.333  0.00  0.00    +0.000 A 
ATOM     19  C   UNL     1      -3.409  61.567  -5.639  0.00  0.00    +0.000 C 
ATOM     20  C   UNL     1       7.211  58.678  -6.470  0.00  0.00    +0.000 A 
ATOM     21  C   UNL     1       6.196  57.775  -6.780  0.00  0.00    +0.000 A 
ATOM     22  C   UNL     1       5.589  60.374  -6.012  0.00  0.00    +0.000 A 
ATOM     23  C   UNL     1       6.923  59.971  -6.068  0.00  0.00    +0.000 A 
ENDROOT
BRANCH  10  24
ATOM     24  O   UNL     1      -1.303  62.584  -5.026  0.00  0.00    +0.000 OA
ATOM     25  H   UNL     1      -1.334  63.533  -5.259  0.00  0.00    +0.000 HD
ENDBRANCH  10  24
BRANCH  10  26
ATOM     26  C   UNL     1      -1.993  62.793  -7.340  0.00  0.00    +0.000 C 
ATOM     27  C   UNL     1      -1.451  64.201  -7.114  0.00  0.00    +0.000 C 
ENDBRANCH  10  26
BRANCH  13  28
ATOM     28  C   UNL     1       3.948  55.867  -7.481  0.00  0.00    +0.000 C 
ATOM     29  C   UNL     1       4.058  55.739  -8.993  0.00  0.00    +0.000 C 
ENDBRANCH  13  28
BRANCH  20  30
ATOM     30  O   UNL     1       8.537  58.244  -6.491  0.00  0.00    +0.000 OA
BRANCH  30  38
ATOM     31  O   UNL     1       9.431  59.759  -7.998  0.00  0.00    +0.000 OA
ATOM     32  N   UNL     1       9.659  57.498  -8.369  0.00  0.00    +0.000 N 
ATOM     33  C   UNL     1       9.692  55.376 -10.384  0.00  0.00    +0.000 C 
ATOM     34  C   UNL     1       8.882  55.276  -9.067  0.00  0.00    +0.000 C 
ATOM     35  C   UNL     1       9.868  56.876 -10.734  0.00  0.00    +0.000 C 
ATOM     36  C   UNL     1       9.478  56.120  -7.944  0.00  0.00    +0.000 C 
ATOM     37  C   UNL     1      10.444  57.682  -9.574  0.00  0.00    +0.000 C 
ATOM     38  C   UNL     1       9.227  58.601  -7.646  0.00  0.00    +0.000 C 
BRANCH  33  39
ATOM     39  N   UNL     1       9.047  54.616 -11.500  0.00  0.00    +0.000 NA
ATOM     40  C   UNL     1       9.288  53.162 -11.394  0.00  0.00    +0.000 C 
ATOM     41  C   UNL     1       7.596  54.880 -11.591  0.00  0.00    +0.000 C 
ATOM     42  C   UNL     1       8.662  52.369 -12.544  0.00  0.00    +0.000 C 
ATOM     43  C   UNL     1       6.926  54.130 -12.745  0.00  0.00    +0.000 C 
ATOM     44  C   UNL     1       7.171  52.634 -12.655  0.00  0.00    +0.000 C 
ENDBRANCH  33  39
ENDBRANCH  30  38
ENDBRANCH  20  30
TORSDOF 6
ENDMDL
MODEL 3
REMARK VINA RESULT:      -7.4      3.152      4.206
REMARK  Name = 
REMARK  8 active torsions:
REMARK  status: ('A' for Active; 'I' for Inactive)
REMARK    1  A    between atoms: O_1  and  C_21
REMARK    2  A    between atoms: O_1  and  C_38
REMARK    3  A    between atoms: O_4  and  C_26
REMARK    4  A    between atoms: N_7  and  C_11
REMARK    5  A    between atoms: C_26  and  C_33
REMARK    6  A    between atoms: C_29  and  C_37
REMARK    7  A    between atoms: C_33  and  C_42
REMARK    8  A    between atoms: C_37  and  C_43
REMARK                            x       y       z     vdW  Elec       q    Type
REMARK                         _______ _______ _______ _____ _____    ______ ____
ROOT
ATOM      1  O   UNL     1      -6.878  42.442  20.666  0.00  0.00    +0.000 OA
ATOM      2  O   UNL     1     -10.815  42.200  19.185  0.00  0.00    +0.000 OA
ATOM      3  O   UNL     1      -4.854  41.519  20.352  0.00  0.00    +0.000 OA
ATOM      4  N   UNL     1     -10.084  41.542  17.112  0.00  0.00    +0.000 N 
ATOM      5  N   UNL     1      -8.967  40.560  13.848  0.00  0.00    +0.000 NA
ATOM      6  C   UNL     1      -9.057  41.300  16.222  0.00  0.00    +0.000 A 
ATOM      7  C   UNL     1     -11.024  40.862  15.105  0.00  0.00    +0.000 A 
ATOM      8  C   UNL     1     -11.390  41.289  16.497  0.00  0.00    +0.000 C 
ATOM      9  C   UNL     1      -7.472  41.910  17.932  0.00  0.00    +0.000 A 
ATOM     10  C   UNL     1      -6.041  42.149  18.341  0.00  0.00    +0.000 C 
ATOM     11  C   UNL     1      -9.643  40.873  14.956  0.00  0.00    +0.000 A 
ATOM     12  C   UNL     1      -8.470  42.148  18.806  0.00  0.00    +0.000 A 
ATOM     13  C   UNL     1     -11.819  40.491  14.029  0.00  0.00    +0.000 A 
ATOM     14  C   UNL     1      -7.779  41.467  16.576  0.00  0.00    +0.000 A 
ATOM     15  C   UNL     1      -9.901  41.967  18.401  0.00  0.00    +0.000 A 
ATOM     16  C   UNL     1     -11.149  40.160  12.816  0.00  0.00    +0.000 A 
ATOM     17  C   UNL     1      -8.232  42.616  20.198  0.00  0.00    +0.000 C 
ATOM     18  C   UNL     1      -9.717  40.211  12.791  0.00  0.00    +0.000 A 
ATOM     19  C   UNL     1      -5.886  41.988  19.870  0.00  0.00    +0.000 C 
ATOM     20  C   UNL     1     -11.110  39.487  10.475  0.00  0.00    +0.000 A 
ATOM     21  C   UNL     1     -11.823  39.786  11.633  0.00  0.00    +0.000 A 
ATOM     22  C   UNL     1      -9.047  39.883  11.619  0.00  0.00    +0.000 A 
ATOM     23  C   UNL     1      -9.725  39.512  10.457  0.00  0.00    +0.000 A 
ENDROOT
BRANCH  10  24
ATOM     24  O   UNL     1      -5.209  41.174  17.697  0.00  0.00    +0.000 OA
ATOM     25  H   UNL     1      -5.787  40.409  17.501  0.00  0.00    +0.000 HD
ENDBRANCH  10  24
BRANCH  10  26
ATOM     26  C   UNL     1      -5.584  43.559  17.911  0.00  0.00    +0.000 C 
ATOM     27  C   UNL     1      -4.505  43.573  16.832  0.00  0.00    +0.000 C 
ENDBRANCH  10  26
BRANCH  13  28
ATOM     28  C   UNL     1     -13.322  40.486  14.173  0.00  0.00    +0.000 C 
ATOM     29  C   UNL     1     -13.851  39.135  14.628  0.00  0.00    +0.000 C 
ENDBRANCH  13  28
BRANCH  20  30
ATOM     30  O   UNL     1     -11.804  39.078   9.335  0.00  0.00    +0.000 OA
BRANCH  30  38
ATOM     31  O   UNL     1     -11.914  41.297   8.681  0.00  0.00    +0.000 OA
ATOM     32  N   UNL     1     -13.215  39.720   7.622  0.00  0.00    +0.000 N 
ATOM     33  C   UNL     1     -15.818  39.165   6.405  0.00  0.00    +0.000 C 
ATOM     34  C   UNL     1     -15.140  38.208   7.417  0.00  0.00    +0.000 C 
ATOM     35  C   UNL     1     -15.299  40.601   6.669  0.00  0.00    +0.000 C 
ATOM     36  C   UNL     1     -13.619  38.339   7.420  0.00  0.00    +0.000 C 
ATOM     37  C   UNL     1     -13.775  40.677   6.687  0.00  0.00    +0.000 C 
ATOM     38  C   UNL     1     -12.276  40.131   8.557  0.00  0.00    +0.000 C 
BRANCH  33  39
ATOM     39  N   UNL     1     -17.311  39.092   6.475  0.00  0.00    +0.000 NA
ATOM     40  C   UNL     1     -17.917  38.814   5.155  0.00  0.00    +0.000 C 
ATOM     41  C   UNL     1     -17.776  38.093   7.461  0.00  0.00    +0.000 C 
ATOM     42  C   UNL     1     -19.446  38.766   5.201  0.00  0.00    +0.000 C 
ATOM     43  C   UNL     1     -19.302  38.025   7.564  0.00  0.00    +0.000 C 
ATOM     44  C   UNL     1     -19.940  37.748   6.215  0.00  0.00    +0.000 C 
ENDBRANCH  33  39
ENDBRANCH  30  38
ENDBRANCH  20  30
TORSDOF 6
ENDMDL
MODEL 4
REMARK VINA RESULT:      -7.4      1.827      2.448
REMARK  Name = 
REMARK  8 active torsions:
REMARK  status: ('A' for Active; 'I' for Inactive)
REMARK    1  A    between atoms: O_1  and  C_21
REMARK    2  A    between atoms: O_1  and  C_38
REMARK    3  A    between atoms: O_4  and  C_26
REMARK    4  A    between atoms: N_7  and  C_11
REMARK    5  A    between atoms: C_26  and  C_33
REMARK    6  A    between atoms: C_29  and  C_37
REMARK    7  A    between atoms: C_33  and  C_42
REMARK    8  A    between atoms: C_37  and  C_43
REMARK                            x       y       z     vdW  Elec       q    Type
REMARK                         _______ _______ _______ _____ _____    ______ ____
ROOT
ATOM      1  O   UNL     1      -5.192  42.272  20.655  0.00  0.00    +0.000 OA
ATOM      2  O   UNL     1      -9.284  42.119  19.666  0.00  0.00    +0.000 OA
ATOM      3  O   UNL     1      -3.240  41.310  20.094  0.00  0.00    +0.000 OA
ATOM      4  N   UNL     1      -8.825  41.458  17.516  0.00  0.00    +0.000 N 
ATOM      5  N   UNL     1      -8.136  40.471  14.137  0.00  0.00    +0.000 NA
ATOM      6  C   UNL     1      -7.920  41.200  16.507  0.00  0.00    +0.000 A 
ATOM      7  C   UNL     1     -10.017  40.808  15.637  0.00  0.00    +0.000 A 
ATOM      8  C   UNL     1     -10.202  41.236  17.065  0.00  0.00    +0.000 C 
ATOM      9  C   UNL     1      -6.126  41.768  18.013  0.00  0.00    +0.000 A 
ATOM     10  C   UNL     1      -4.650  41.975  18.245  0.00  0.00    +0.000 C 
ATOM     11  C   UNL     1      -8.664  40.792  15.321  0.00  0.00    +0.000 A 
ATOM     12  C   UNL     1      -7.005  42.022  19.002  0.00  0.00    +0.000 A 
ATOM     13  C   UNL     1     -10.945  40.460  14.666  0.00  0.00    +0.000 A 
ATOM     14  C   UNL     1      -6.605  41.338  16.703  0.00  0.00    +0.000 A 
ATOM     15  C   UNL     1      -8.477  41.872  18.775  0.00  0.00    +0.000 A 
ATOM     16  C   UNL     1     -10.434  40.122  13.379  0.00  0.00    +0.000 A 
ATOM     17  C   UNL     1      -6.588  42.477  20.357  0.00  0.00    +0.000 C 
ATOM     18  C   UNL     1      -9.016  40.143  13.179  0.00  0.00    +0.000 A 
ATOM     19  C   UNL     1      -4.313  41.803  19.743  0.00  0.00    +0.000 C 
ATOM     20  C   UNL     1     -10.695  39.460  11.048  0.00  0.00    +0.000 A 
ATOM     21  C   UNL     1     -11.256  39.768  12.286  0.00  0.00    +0.000 A 
ATOM     22  C   UNL     1      -8.501  39.808  11.933  0.00  0.00    +0.000 A 
ATOM     23  C   UNL     1      -9.323  39.458  10.862  0.00  0.00    +0.000 A 
ENDROOT
BRANCH  10  24
ATOM     24  O   UNL     1      -3.923  40.987  17.502  0.00  0.00    +0.000 OA
ATOM     25  H   UNL     1      -4.551  40.622  16.846  0.00  0.00    +0.000 HD
ENDBRANCH  10  24
BRANCH  10  26
ATOM     26  C   UNL     1      -4.220  43.379  17.766  0.00  0.00    +0.000 C 
ATOM     27  C   UNL     1      -5.368  44.369  17.596  0.00  0.00    +0.000 C 
ENDBRANCH  10  26
BRANCH  13  28
ATOM     28  C   UNL     1     -12.418  40.485  14.991  0.00  0.00    +0.000 C 
ATOM     29  C   UNL     1     -13.030  41.862  14.778  0.00  0.00    +0.000 C 
ENDBRANCH  13  28
BRANCH  20  30
ATOM     30  O   UNL     1     -11.532  39.072  10.000  0.00  0.00    +0.000 OA
BRANCH  30  38
ATOM     31  O   UNL     1     -11.538  40.929   8.615  0.00  0.00    +0.000 OA
ATOM     32  N   UNL     1     -13.498  40.216   9.593  0.00  0.00    +0.000 N 
ATOM     33  C   UNL     1     -16.018  41.047  10.825  0.00  0.00    +0.000 C 
ATOM     34  C   UNL     1     -15.091  39.972  11.446  0.00  0.00    +0.000 C 
ATOM     35  C   UNL     1     -15.153  41.992   9.953  0.00  0.00    +0.000 C 
ATOM     36  C   UNL     1     -14.236  39.260  10.401  0.00  0.00    +0.000 C 
ATOM     37  C   UNL     1     -14.299  41.234   8.942  0.00  0.00    +0.000 C 
ATOM     38  C   UNL     1     -12.136  40.137   9.339  0.00  0.00    +0.000 C 
BRANCH  33  39
ATOM     39  N   UNL     1     -16.784  41.799  11.869  0.00  0.00    +0.000 NA
ATOM     40  C   UNL     1     -17.471  40.892  12.814  0.00  0.00    +0.000 C 
ATOM     41  C   UNL     1     -15.930  42.748  12.614  0.00  0.00    +0.000 C 
ATOM     42  C   UNL     1     -18.285  41.642  13.871  0.00  0.00    +0.000 C 
ATOM     43  C   UNL     1     -16.705  43.544  13.667  0.00  0.00    +0.000 C 
ATOM     44  C   UNL     1     -17.423  42.627  14.642  0.00  0.00    +0.000 C 
ENDBRANCH  33  39
ENDBRANCH  30  38
ENDBRANCH  20  30
TORSDOF 6
ENDMDL
MODEL 5
REMARK VINA RESULT:      -7.3     18.252     21.780
REMARK  Name = 
REMARK  8 active torsions:
REMARK  status: ('A' for Active; 'I' for Inactive)
REMARK    1  A    between atoms: O_1  and  C_21
REMARK    2  A    between atoms: O_1  and  C_38
REMARK    3  A    between atoms: O_4  and  C_26
REMARK    4  A    between atoms: N_7  and  C_11
REMARK    5  A    between atoms: C_26  and  C_33
REMARK    6  A    between atoms: C_29  and  C_37
REMARK    7  A    between atoms: C_33  and  C_42
REMARK    8  A    between atoms: C_37  and  C_43
REMARK                            x       y       z     vdW  Elec       q    Type
REMARK                         _______ _______ _______ _____ _____    ______ ____
ROOT
ATOM      1  O   UNL     1       9.422  33.147  29.623  0.00  0.00    +0.000 OA
ATOM      2  O   UNL     1      10.405  35.588  26.333  0.00  0.00    +0.000 OA
ATOM      3  O   UNL     1       8.274  31.276  30.106  0.00  0.00    +0.000 OA
ATOM      4  N   UNL     1      10.295  33.816  24.879  0.00  0.00    +0.000 N 
ATOM      5  N   UNL     1      10.180  31.056  22.591  0.00  0.00    +0.000 NA
ATOM      6  C   UNL     1      10.151  32.464  24.643  0.00  0.00    +0.000 A 
ATOM      7  C   UNL     1      10.463  33.470  22.593  0.00  0.00    +0.000 A 
ATOM      8  C   UNL     1      10.500  34.555  23.629  0.00  0.00    +0.000 C 
ATOM      9  C   UNL     1       9.887  32.110  27.012  0.00  0.00    +0.000 A 
ATOM     10  C   UNL     1       9.711  31.152  28.163  0.00  0.00    +0.000 C 
ATOM     11  C   UNL     1      10.257  32.239  23.206  0.00  0.00    +0.000 A 
ATOM     12  C   UNL     1      10.028  33.429  27.249  0.00  0.00    +0.000 A 
ATOM     13  C   UNL     1      10.602  33.525  21.213  0.00  0.00    +0.000 A 
ATOM     14  C   UNL     1       9.953  31.603  25.645  0.00  0.00    +0.000 A 
ATOM     15  C   UNL     1      10.257  34.389  26.123  0.00  0.00    +0.000 A 
ATOM     16  C   UNL     1      10.543  32.287  20.509  0.00  0.00    +0.000 A 
ATOM     17  C   UNL     1       9.987  34.013  28.617  0.00  0.00    +0.000 C 
ATOM     18  C   UNL     1      10.325  31.085  21.257  0.00  0.00    +0.000 A 
ATOM     19  C   UNL     1       9.058  31.872  29.365  0.00  0.00    +0.000 C 
ATOM     20  C   UNL     1      10.634  30.941  18.480  0.00  0.00    +0.000 A 
ATOM     21  C   UNL     1      10.689  32.183  19.109  0.00  0.00    +0.000 A 
ATOM     22  C   UNL     1      10.256  29.871  20.585  0.00  0.00    +0.000 A 
ATOM     23  C   UNL     1      10.400  29.782  19.201  0.00  0.00    +0.000 A 
ENDROOT
BRANCH  10  24
ATOM     24  O   UNL     1       8.843  30.087  27.749  0.00  0.00    +0.000 OA
ATOM     25  H   UNL     1       8.226  29.933  28.492  0.00  0.00    +0.000 HD
ENDBRANCH  10  24
BRANCH  10  26
ATOM     26  C   UNL     1      11.071  30.555  28.583  0.00  0.00    +0.000 C 
ATOM     27  C   UNL     1      11.167  29.038  28.444  0.00  0.00    +0.000 C 
ENDBRANCH  10  26
BRANCH  13  28
ATOM     28  C   UNL     1      10.840  34.852  20.536  0.00  0.00    +0.000 C 
ATOM     29  C   UNL     1       9.547  35.485  20.044  0.00  0.00    +0.000 C 
ENDBRANCH  13  28
BRANCH  20  30
ATOM     30  O   UNL     1      10.739  30.877  17.090  0.00  0.00    +0.000 OA
BRANCH  30  38
ATOM     31  O   UNL     1       9.725  32.878  16.513  0.00  0.00    +0.000 OA
ATOM     32  N   UNL     1       8.947  30.898  15.631  0.00  0.00    +0.000 N 
ATOM     33  C   UNL     1       6.577  29.387  14.816  0.00  0.00    +0.000 C 
ATOM     34  C   UNL     1       7.704  28.780  15.689  0.00  0.00    +0.000 C 
ATOM     35  C   UNL     1       6.567  30.922  15.031  0.00  0.00    +0.000 C 
ATOM     36  C   UNL     1       9.052  29.458  15.461  0.00  0.00    +0.000 C 
ATOM     37  C   UNL     1       7.940  31.550  14.816  0.00  0.00    +0.000 C 
ATOM     38  C   UNL     1       9.800  31.656  16.419  0.00  0.00    +0.000 C 
BRANCH  33  39
ATOM     39  N   UNL     1       5.244  28.775  15.115  0.00  0.00    +0.000 NA
ATOM     40  C   UNL     1       4.251  29.786  15.536  0.00  0.00    +0.000 C 
ATOM     41  C   UNL     1       4.717  27.999  13.973  0.00  0.00    +0.000 C 
ATOM     42  C   UNL     1       2.889  29.176  15.876  0.00  0.00    +0.000 C 
ATOM     43  C   UNL     1       3.366  27.344  14.272  0.00  0.00    +0.000 C 
ATOM     44  C   UNL     1       2.336  28.369  14.714  0.00  0.00    +0.000 C 
ENDBRANCH  33  39
ENDBRANCH  30  38
ENDBRANCH  20  30
TORSDOF 6
ENDMDL
MODEL 6
REMARK VINA RESULT:      -7.2     17.339     22.472
REMARK  Name = 
REMARK  8 active torsions:
REMARK  status: ('A' for Active; 'I' for Inactive)
REMARK    1  A    between atoms: O_1  and  C_21
REMARK    2  A    between atoms: O_1  and  C_38
REMARK    3  A    between atoms: O_4  and  C_26
REMARK    4  A    between atoms: N_7  and  C_11
REMARK    5  A    between atoms: C_26  and  C_33
REMARK    6  A    between atoms: C_29  and  C_37
REMARK    7  A    between atoms: C_33  and  C_42
REMARK    8  A    between atoms: C_37  and  C_43
REMARK                            x       y       z     vdW  Elec       q    Type
REMARK                         _______ _______ _______ _____ _____    ______ ____
ROOT
ATOM      1  O   UNL     1       0.619  66.170   6.645  0.00  0.00    +0.000 OA
ATOM      2  O   UNL     1       0.701  65.953  10.852  0.00  0.00    +0.000 OA
ATOM      3  O   UNL     1       0.437  64.834   4.848  0.00  0.00    +0.000 OA
ATOM      4  N   UNL     1      -0.609  64.068  10.863  0.00  0.00    +0.000 N 
ATOM      5  N   UNL     1      -2.694  61.150  10.913  0.00  0.00    +0.000 NA
ATOM      6  C   UNL     1      -1.381  63.139  10.196  0.00  0.00    +0.000 A 
ATOM      7  C   UNL     1      -1.420  62.561  12.426  0.00  0.00    +0.000 A 
ATOM      8  C   UNL     1      -0.566  63.789  12.301  0.00  0.00    +0.000 C 
ATOM      9  C   UNL     1      -0.912  64.280   8.126  0.00  0.00    +0.000 A 
ATOM     10  C   UNL     1      -1.131  64.401   6.639  0.00  0.00    +0.000 C 
ATOM     11  C   UNL     1      -1.896  62.188  11.175  0.00  0.00    +0.000 A 
ATOM     12  C   UNL     1      -0.157  65.190   8.771  0.00  0.00    +0.000 A 
ATOM     13  C   UNL     1      -1.776  61.810  13.538  0.00  0.00    +0.000 A 
ATOM     14  C   UNL     1      -1.555  63.204   8.872  0.00  0.00    +0.000 A 
ATOM     15  C   UNL     1       0.030  65.117  10.255  0.00  0.00    +0.000 A 
ATOM     16  C   UNL     1      -2.639  60.698  13.315  0.00  0.00    +0.000 A 
ATOM     17  C   UNL     1       0.517  66.321   8.076  0.00  0.00    +0.000 C 
ATOM     18  C   UNL     1      -3.061  60.418  11.975  0.00  0.00    +0.000 A 
ATOM     19  C   UNL     1       0.057  65.138   5.980  0.00  0.00    +0.000 C 
ATOM     20  C   UNL     1      -3.956  58.791  14.069  0.00  0.00    +0.000 A 
ATOM     21  C   UNL     1      -3.103  59.856  14.350  0.00  0.00    +0.000 A 
ATOM     22  C   UNL     1      -3.895  59.332  11.740  0.00  0.00    +0.000 A 
ATOM     23  C   UNL     1      -4.345  58.506  12.771  0.00  0.00    +0.000 A 
ENDROOT
BRANCH  10  24
ATOM     24  O   UNL     1      -1.214  63.084   6.076  0.00  0.00    +0.000 OA
ATOM     25  H   UNL     1      -0.932  63.168   5.143  0.00  0.00    +0.000 HD
ENDBRANCH  10  24
BRANCH  10  26
ATOM     26  C   UNL     1      -2.446  65.155   6.346  0.00  0.00    +0.000 C 
ATOM     27  C   UNL     1      -3.531  64.304   5.690  0.00  0.00    +0.000 C 
ENDBRANCH  10  26
BRANCH  13  28
ATOM     28  C   UNL     1      -1.277  62.211  14.905  0.00  0.00    +0.000 C 
ATOM     29  C   UNL     1       0.165  61.787  15.136  0.00  0.00    +0.000 C 
ENDBRANCH  13  28
BRANCH  20  30
ATOM     30  O   UNL     1      -4.361  57.952  15.107  0.00  0.00    +0.000 OA
BRANCH  30  38
ATOM     31  O   UNL     1      -3.146  56.015  14.737  0.00  0.00    +0.000 OA
ATOM     32  N   UNL     1      -2.835  57.216  16.678  0.00  0.00    +0.000 N 
ATOM     33  C   UNL     1      -2.333  57.057  19.556  0.00  0.00    +0.000 C 
ATOM     34  C   UNL     1      -3.426  57.966  18.940  0.00  0.00    +0.000 C 
ATOM     35  C   UNL     1      -2.083  55.872  18.589  0.00  0.00    +0.000 C 
ATOM     36  C   UNL     1      -3.106  58.378  17.506  0.00  0.00    +0.000 C 
ATOM     37  C   UNL     1      -1.792  56.332  17.165  0.00  0.00    +0.000 C 
ATOM     38  C   UNL     1      -3.423  56.980  15.444  0.00  0.00    +0.000 C 
BRANCH  33  39
ATOM     39  N   UNL     1      -2.701  56.587  20.929  0.00  0.00    +0.000 NA
ATOM     40  C   UNL     1      -4.101  56.916  21.271  0.00  0.00    +0.000 C 
ATOM     41  C   UNL     1      -2.467  55.139  21.105  0.00  0.00    +0.000 C 
ATOM     42  C   UNL     1      -4.488  56.470  22.684  0.00  0.00    +0.000 C 
ATOM     43  C   UNL     1      -2.813  54.648  22.513  0.00  0.00    +0.000 C 
ATOM     44  C   UNL     1      -4.247  54.984  22.884  0.00  0.00    +0.000 C 
ENDBRANCH  33  39
ENDBRANCH  30  38
ENDBRANCH  20  30
TORSDOF 6
ENDMDL
MODEL 7
REMARK VINA RESULT:      -6.9      6.048     10.384
REMARK  Name = 
REMARK  8 active torsions:
REMARK  status: ('A' for Active; 'I' for Inactive)
REMARK    1  A    between atoms: O_1  and  C_21
REMARK    2  A    between atoms: O_1  and  C_38
REMARK    3  A    between atoms: O_4  and  C_26
REMARK    4  A    between atoms: N_7  and  C_11
REMARK    5  A    between atoms: C_26  and  C_33
REMARK    6  A    between atoms: C_29  and  C_37
REMARK    7  A    between atoms: C_33  and  C_42
REMARK    8  A    between atoms: C_37  and  C_43
REMARK                            x       y       z     vdW  Elec       q    Type
REMARK                         _______ _______ _______ _____ _____    ______ ____
ROOT
ATOM      1  O   UNL     1      -9.307  40.320  13.402  0.00  0.00    +0.000 OA
ATOM      2  O   UNL     1     -13.357  39.530  14.249  0.00  0.00    +0.000 OA
ATOM      3  O   UNL     1      -7.765  39.932  11.814  0.00  0.00    +0.000 OA
ATOM      4  N   UNL     1     -13.897  39.460  12.020  0.00  0.00    +0.000 N 
ATOM      5  N   UNL     1     -14.777  39.395   8.543  0.00  0.00    +0.000 NA
ATOM      6  C   UNL     1     -13.547  39.622  10.695  0.00  0.00    +0.000 A 
ATOM      7  C   UNL     1     -15.765  38.997  10.727  0.00  0.00    +0.000 A 
ATOM      8  C   UNL     1     -15.300  39.058  12.154  0.00  0.00    +0.000 C 
ATOM      9  C   UNL     1     -11.316  40.214  11.387  0.00  0.00    +0.000 A 
ATOM     10  C   UNL     1      -9.927  40.671  11.018  0.00  0.00    +0.000 C 
ATOM     11  C   UNL     1     -14.719  39.334   9.876  0.00  0.00    +0.000 A 
ATOM     12  C   UNL     1     -11.651  40.058  12.683  0.00  0.00    +0.000 A 
ATOM     13  C   UNL     1     -17.003  38.681  10.188  0.00  0.00    +0.000 A 
ATOM     14  C   UNL     1     -12.310  39.988  10.343  0.00  0.00    +0.000 A 
ATOM     15  C   UNL     1     -13.040  39.656  13.071  0.00  0.00    +0.000 A 
ATOM     16  C   UNL     1     -17.124  38.744   8.769  0.00  0.00    +0.000 A 
ATOM     17  C   UNL     1     -10.693  40.287  13.799  0.00  0.00    +0.000 C 
ATOM     18  C   UNL     1     -15.970  39.105   8.001  0.00  0.00    +0.000 A 
ATOM     19  C   UNL     1      -8.917  40.254  12.111  0.00  0.00    +0.000 C 
ATOM     20  C   UNL     1     -18.382  38.563   6.690  0.00  0.00    +0.000 A 
ATOM     21  C   UNL     1     -18.325  38.471   8.079  0.00  0.00    +0.000 A 
ATOM     22  C   UNL     1     -16.068  39.163   6.616  0.00  0.00    +0.000 A 
ATOM     23  C   UNL     1     -17.260  38.888   5.946  0.00  0.00    +0.000 A 
ENDROOT
BRANCH  10  24
ATOM     24  O   UNL     1      -9.547  40.042   9.786  0.00  0.00    +0.000 OA
ATOM     25  H   UNL     1      -8.642  39.695   9.925  0.00  0.00    +0.000 HD
ENDBRANCH  10  24
BRANCH  10  26
ATOM     26  C   UNL     1      -9.894  42.203  10.828  0.00  0.00    +0.000 C 
ATOM     27  C   UNL     1      -8.503  42.823  10.920  0.00  0.00    +0.000 C 
ENDBRANCH  10  26
BRANCH  13  28
ATOM     28  C   UNL     1     -18.151  38.326  11.101  0.00  0.00    +0.000 C 
ATOM     29  C   UNL     1     -18.257  36.826  11.334  0.00  0.00    +0.000 C 
ENDBRANCH  13  28
BRANCH  20  30
ATOM     30  O   UNL     1     -19.572  38.244   6.035  0.00  0.00    +0.000 OA
BRANCH  30  38
ATOM     31  O   UNL     1     -20.999  37.125   7.477  0.00  0.00    +0.000 OA
ATOM     32  N   UNL     1     -19.837  35.954   5.870  0.00  0.00    +0.000 N 
ATOM     33  C   UNL     1     -18.411  33.474   5.252  0.00  0.00    +0.000 C 
ATOM     34  C   UNL     1     -17.847  34.877   4.915  0.00  0.00    +0.000 C 
ATOM     35  C   UNL     1     -19.379  33.615   6.454  0.00  0.00    +0.000 C 
ATOM     36  C   UNL     1     -18.943  35.921   4.724  0.00  0.00    +0.000 C 
ATOM     37  C   UNL     1     -20.441  34.685   6.227  0.00  0.00    +0.000 C 
ATOM     38  C   UNL     1     -20.205  37.111   6.539  0.00  0.00    +0.000 C 
BRANCH  33  39
ATOM     39  N   UNL     1     -17.325  32.482   5.526  0.00  0.00    +0.000 NA
ATOM     40  C   UNL     1     -17.177  31.503   4.427  0.00  0.00    +0.000 C 
ATOM     41  C   UNL     1     -16.026  33.134   5.795  0.00  0.00    +0.000 C 
ATOM     42  C   UNL     1     -16.091  30.460   4.702  0.00  0.00    +0.000 C 
ATOM     43  C   UNL     1     -14.910  32.133   6.103  0.00  0.00    +0.000 C 
ATOM     44  C   UNL     1     -14.751  31.115   4.987  0.00  0.00    +0.000 C 
ENDBRANCH  33  39
ENDBRANCH  30  38
ENDBRANCH  20  30
TORSDOF 6
ENDMDL
MODEL 8
REMARK VINA RESULT:      -6.4     25.708     28.271
REMARK  Name = 
REMARK  8 active torsions:
REMARK  status: ('A' for Active; 'I' for Inactive)
REMARK    1  A    between atoms: O_1  and  C_21
REMARK    2  A    between atoms: O_1  and  C_38
REMARK    3  A    between atoms: O_4  and  C_26
REMARK    4  A    between atoms: N_7  and  C_11
REMARK    5  A    between atoms: C_26  and  C_33
REMARK    6  A    between atoms: C_29  and  C_37
REMARK    7  A    between atoms: C_33  and  C_42
REMARK    8  A    between atoms: C_37  and  C_43
REMARK                            x       y       z     vdW  Elec       q    Type
REMARK                         _______ _______ _______ _____ _____    ______ ____
ROOT
ATOM      1  O   UNL     1       2.954  13.550  11.853  0.00  0.00    +0.000 OA
ATOM      2  O   UNL     1       4.670  17.342  11.199  0.00  0.00    +0.000 OA
ATOM      3  O   UNL     1       1.180  12.323  11.223  0.00  0.00    +0.000 OA
ATOM      4  N   UNL     1       3.794  17.466   9.081  0.00  0.00    +0.000 N 
ATOM      5  N   UNL     1       2.478  17.664   5.750  0.00  0.00    +0.000 NA
ATOM      6  C   UNL     1       3.111  16.890   8.029  0.00  0.00    +0.000 A 
ATOM      7  C   UNL     1       3.699  19.014   7.359  0.00  0.00    +0.000 A 
ATOM      8  C   UNL     1       4.215  18.831   8.757  0.00  0.00    +0.000 C 
ATOM      9  C   UNL     1       2.841  14.886   9.340  0.00  0.00    +0.000 A 
ATOM     10  C   UNL     1       2.353  13.462   9.440  0.00  0.00    +0.000 C 
ATOM     11  C   UNL     1       3.050  17.859   6.941  0.00  0.00    +0.000 A 
ATOM     12  C   UNL     1       3.508  15.442  10.371  0.00  0.00    +0.000 A 
ATOM     13  C   UNL     1       3.783  20.096   6.493  0.00  0.00    +0.000 A 
ATOM     14  C   UNL     1       2.634  15.644   8.111  0.00  0.00    +0.000 A 
ATOM     15  C   UNL     1       4.046  16.836  10.272  0.00  0.00    +0.000 A 
ATOM     16  C   UNL     1       3.202  19.935   5.202  0.00  0.00    +0.000 A 
ATOM     17  C   UNL     1       3.769  14.723  11.648  0.00  0.00    +0.000 C 
ATOM     18  C   UNL     1       2.559  18.692   4.892  0.00  0.00    +0.000 A 
ATOM     19  C   UNL     1       2.100  13.085  10.917  0.00  0.00    +0.000 C 
ATOM     20  C   UNL     1       2.651  20.714   2.960  0.00  0.00    +0.000 A 
ATOM     21  C   UNL     1       3.227  20.938   4.209  0.00  0.00    +0.000 A 
ATOM     22  C   UNL     1       1.979  18.522   3.641  0.00  0.00    +0.000 A 
ATOM     23  C   UNL     1       2.009  19.522   2.669  0.00  0.00    +0.000 A 
ENDROOT
BRANCH  10  24
ATOM     24  O   UNL     1       1.115  13.349   8.725  0.00  0.00    +0.000 OA
ATOM     25  H   UNL     1       1.282  12.731   7.985  0.00  0.00    +0.000 HD
ENDBRANCH  10  24
BRANCH  10  26
ATOM     26  C   UNL     1       3.381  12.494   8.817  0.00  0.00    +0.000 C 
ATOM     27  C   UNL     1       3.246  12.311   7.308  0.00  0.00    +0.000 C 
ENDBRANCH  10  26
BRANCH  13  28
ATOM     28  C   UNL     1       4.497  21.352   6.929  0.00  0.00    +0.000 C 
ATOM     29  C   UNL     1       3.533  22.414   7.435  0.00  0.00    +0.000 C 
ENDBRANCH  13  28
BRANCH  20  30
ATOM     30  O   UNL     1       2.655  21.741   2.015  0.00  0.00    +0.000 OA
BRANCH  30  38
ATOM     31  O   UNL     1       4.776  21.188   1.267  0.00  0.00    +0.000 OA
ATOM     32  N   UNL     1       3.215  22.015  -0.210  0.00  0.00    +0.000 N 
ATOM     33  C   UNL     1       2.770  23.729  -2.539  0.00  0.00    +0.000 C 
ATOM     34  C   UNL     1       1.884  23.786  -1.269  0.00  0.00    +0.000 C 
ATOM     35  C   UNL     1       4.170  23.204  -2.133  0.00  0.00    +0.000 C 
ATOM     36  C   UNL     1       1.865  22.464  -0.507  0.00  0.00    +0.000 C 
ATOM     37  C   UNL     1       4.099  21.895  -1.353  0.00  0.00    +0.000 C 
ATOM     38  C   UNL     1       3.644  21.609   1.045  0.00  0.00    +0.000 C 
BRANCH  33  39
ATOM     39  N   UNL     1       2.852  25.057  -3.227  0.00  0.00    +0.000 NA
ATOM     40  C   UNL     1       2.525  24.957  -4.665  0.00  0.00    +0.000 C 
ATOM     41  C   UNL     1       1.992  26.073  -2.586  0.00  0.00    +0.000 C 
ATOM     42  C   UNL     1       2.633  26.299  -5.394  0.00  0.00    +0.000 C 
ATOM     43  C   UNL     1       2.085  27.443  -3.262  0.00  0.00    +0.000 C 
ATOM     44  C   UNL     1       1.760  27.357  -4.742  0.00  0.00    +0.000 C 
ENDBRANCH  33  39
ENDBRANCH  30  38
ENDBRANCH  20  30
TORSDOF 6
ENDMDL
MODEL 9
REMARK VINA RESULT:      -6.3     28.854     30.921
REMARK  Name = 
REMARK  8 active torsions:
REMARK  status: ('A' for Active; 'I' for Inactive)
REMARK    1  A    between atoms: O_1  and  C_21
REMARK    2  A    between atoms: O_1  and  C_38
REMARK    3  A    between atoms: O_4  and  C_26
REMARK    4  A    between atoms: N_7  and  C_11
REMARK    5  A    between atoms: C_26  and  C_33
REMARK    6  A    between atoms: C_29  and  C_37
REMARK    7  A    between atoms: C_33  and  C_42
REMARK    8  A    between atoms: C_37  and  C_43
REMARK                            x       y       z     vdW  Elec       q    Type
REMARK                         _______ _______ _______ _____ _____    ______ ____
ROOT
ATOM      1  O   UNL     1      -9.938  63.598  -4.017  0.00  0.00    +0.000 OA
ATOM      2  O   UNL     1      -8.333  61.716  -7.428  0.00  0.00    +0.000 OA
ATOM      3  O   UNL     1      -9.617  63.718  -1.796  0.00  0.00    +0.000 OA
ATOM      4  N   UNL     1      -6.240  61.621  -6.493  0.00  0.00    +0.000 N 
ATOM      5  N   UNL     1      -2.947  61.503  -5.075  0.00  0.00    +0.000 NA
ATOM      6  C   UNL     1      -5.365  61.938  -5.474  0.00  0.00    +0.000 A 
ATOM      7  C   UNL     1      -4.164  60.745  -7.037  0.00  0.00    +0.000 A 
ATOM      8  C   UNL     1      -5.572  60.853  -7.547  0.00  0.00    +0.000 C 
ATOM      9  C   UNL     1      -7.158  63.066  -4.325  0.00  0.00    +0.000 A 
ATOM     10  C   UNL     1      -7.623  63.895  -3.154  0.00  0.00    +0.000 C 
ATOM     11  C   UNL     1      -4.055  61.391  -5.812  0.00  0.00    +0.000 A 
ATOM     12  C   UNL     1      -8.018  62.760  -5.316  0.00  0.00    +0.000 A 
ATOM     13  C   UNL     1      -3.042  60.138  -7.585  0.00  0.00    +0.000 A 
ATOM     14  C   UNL     1      -5.766  62.637  -4.408  0.00  0.00    +0.000 A 
ATOM     15  C   UNL     1      -7.561  61.983  -6.513  0.00  0.00    +0.000 A 
ATOM     16  C   UNL     1      -1.828  60.241  -6.846  0.00  0.00    +0.000 A 
ATOM     17  C   UNL     1      -9.446  63.177  -5.306  0.00  0.00    +0.000 C 
ATOM     18  C   UNL     1      -1.847  60.935  -5.593  0.00  0.00    +0.000 A 
ATOM     19  C   UNL     1      -9.141  63.705  -2.932  0.00  0.00    +0.000 C 
ATOM     20  C   UNL     1       0.554  59.838  -6.523  0.00  0.00    +0.000 A 
ATOM     21  C   UNL     1      -0.603  59.693  -7.287  0.00  0.00    +0.000 A 
ATOM     22  C   UNL     1      -0.674  61.035  -4.856  0.00  0.00    +0.000 A 
ATOM     23  C   UNL     1       0.530  60.488  -5.301  0.00  0.00    +0.000 A 
ENDROOT
BRANCH  10  24
ATOM     24  O   UNL     1      -6.936  63.453  -1.975  0.00  0.00    +0.000 OA
ATOM     25  H   UNL     1      -6.072  63.913  -1.975  0.00  0.00    +0.000 HD
ENDBRANCH  10  24
BRANCH  10  26
ATOM     26  C   UNL     1      -7.308  65.388  -3.389  0.00  0.00    +0.000 C 
ATOM     27  C   UNL     1      -6.213  65.952  -2.488  0.00  0.00    +0.000 C 
ENDBRANCH  10  26
BRANCH  13  28
ATOM     28  C   UNL     1      -3.143  59.444  -8.922  0.00  0.00    +0.000 C 
ATOM     29  C   UNL     1      -2.912  60.399 -10.083  0.00  0.00    +0.000 C 
ENDBRANCH  13  28
BRANCH  20  30
ATOM     30  O   UNL     1       1.738  59.249  -6.965  0.00  0.00    +0.000 OA
BRANCH  30  38
ATOM     31  O   UNL     1       0.990  57.217  -6.142  0.00  0.00    +0.000 OA
ATOM     32  N   UNL     1       2.717  57.276  -7.664  0.00  0.00    +0.000 N 
ATOM     33  C   UNL     1       5.269  56.086  -8.462  0.00  0.00    +0.000 C 
ATOM     34  C   UNL     1       5.047  57.616  -8.362  0.00  0.00    +0.000 C 
ATOM     35  C   UNL     1       4.275  55.386  -7.501  0.00  0.00    +0.000 C 
ATOM     36  C   UNL     1       3.587  58.012  -8.565  0.00  0.00    +0.000 C 
ATOM     37  C   UNL     1       2.834  55.831  -7.725  0.00  0.00    +0.000 C 
ATOM     38  C   UNL     1       1.748  57.860  -6.863  0.00  0.00    +0.000 C 
BRANCH  33  39
ATOM     39  N   UNL     1       6.687  55.703  -8.172  0.00  0.00    +0.000 NA
ATOM     40  C   UNL     1       7.545  55.800  -9.372  0.00  0.00    +0.000 C 
ATOM     41  C   UNL     1       7.268  56.503  -7.073  0.00  0.00    +0.000 C 
ATOM     42  C   UNL     1       8.993  55.383  -9.103  0.00  0.00    +0.000 C 
ATOM     43  C   UNL     1       8.709  56.105  -6.747  0.00  0.00    +0.000 C 
ATOM     44  C   UNL     1       9.603  56.191  -7.971  0.00  0.00    +0.000 C 
ENDBRANCH  33  39
ENDBRANCH  30  38
ENDBRANCH  20  30
TORSDOF 6
ENDMDL
