MODEL 1
REMARK VINA RESULT:      -6.0      0.000      0.000
REMARK  Name = 
REMARK  4 active torsions:
REMARK  status: ('A' for Active; 'I' for Inactive)
REMARK    1  A    between atoms: C_1  and  C_6
REMARK    2  A    between atoms: C_1  and  C_7
REMARK    3  A    between atoms: C_9  and  C_14
REMARK    4  A    between atoms: C_11  and  C_15
REMARK                            x       y       z     vdW  Elec       q    Type
REMARK                         _______ _______ _______ _____ _____    ______ ____
ROOT
ATOM      1  C   UNL     1       8.793  38.268  15.443  0.00  0.00    +0.000 C 
ATOM      2  C   UNL     1       9.409  37.448  16.572  0.00  0.00    +0.000 C 
ATOM      3  C   UNL     1      10.301  38.119  15.558  0.00  0.00    +0.000 C 
ATOM      4  C   UNL     1       9.215  36.001  16.619  0.00  0.00    +0.000 C 
ATOM      5  C   UNL     1      11.151  37.319  14.623  0.00  0.00    +0.000 C 
ATOM      6  C   UNL     1       8.052  37.600  14.308  0.00  0.00    +0.000 C 
ATOM      7  C   UNL     1       8.208  39.611  15.811  0.00  0.00    +0.000 C 
ATOM      8  C   UNL     1      10.033  34.989  16.269  0.00  0.00    +0.000 C 
ATOM      9  C   UNL     1       7.892  35.476  17.141  0.00  0.00    +0.000 C 
ATOM     10  C   UNL     1      12.065  36.379  15.409  0.00  0.00    +0.000 C 
ATOM     11  C   UNL     1      11.433  35.004  15.701  0.00  0.00    +0.000 C 
ATOM     12  C   UNL     1       9.351  33.659  16.469  0.00  0.00    +0.000 C 
ATOM     13  C   UNL     1       7.883  34.040  16.615  0.00  0.00    +0.000 C 
ATOM     14  C   UNL     1       7.809  35.532  18.665  0.00  0.00    +0.000 C 
ATOM     15  C   UNL     1      12.392  34.209  16.598  0.00  0.00    +0.000 C 
ENDROOT
TORSDOF 0
ENDMDL
MODEL 2
REMARK VINA RESULT:      -5.9     24.444     26.963
REMARK  Name = 
REMARK  4 active torsions:
REMARK  status: ('A' for Active; 'I' for Inactive)
REMARK    1  A    between atoms: C_1  and  C_6
REMARK    2  A    between atoms: C_1  and  C_7
REMARK    3  A    between atoms: C_9  and  C_14
REMARK    4  A    between atoms: C_11  and  C_15
REMARK                            x       y       z     vdW  Elec       q    Type
REMARK                         _______ _______ _______ _____ _____    ______ ____
ROOT
ATOM      1  C   UNL     1     -13.843  34.169  25.447  0.00  0.00    +0.000 C 
ATOM      2  C   UNL     1     -15.195  33.549  25.109  0.00  0.00    +0.000 C 
ATOM      3  C   UNL     1     -14.942  34.092  26.493  0.00  0.00    +0.000 C 
ATOM      4  C   UNL     1     -15.297  32.118  24.828  0.00  0.00    +0.000 C 
ATOM      5  C   UNL     1     -14.920  33.191  27.687  0.00  0.00    +0.000 C 
ATOM      6  C   UNL     1     -12.605  33.314  25.588  0.00  0.00    +0.000 C 
ATOM      7  C   UNL     1     -13.548  35.530  24.863  0.00  0.00    +0.000 C 
ATOM      8  C   UNL     1     -15.714  31.095  25.598  0.00  0.00    +0.000 C 
ATOM      9  C   UNL     1     -14.881  31.631  23.454  0.00  0.00    +0.000 C 
ATOM     10  C   UNL     1     -16.231  32.412  27.789  0.00  0.00    +0.000 C 
ATOM     11  C   UNL     1     -16.215  31.074  27.024  0.00  0.00    +0.000 C 
ATOM     12  C   UNL     1     -15.591  29.787  24.860  0.00  0.00    +0.000 C 
ATOM     13  C   UNL     1     -14.680  30.134  23.689  0.00  0.00    +0.000 C 
ATOM     14  C   UNL     1     -15.946  31.910  22.396  0.00  0.00    +0.000 C 
ATOM     15  C   UNL     1     -17.618  30.456  27.098  0.00  0.00    +0.000 C 
ENDROOT
TORSDOF 0
ENDMDL
MODEL 3
REMARK VINA RESULT:      -5.6      1.300      3.839
REMARK  Name = 
REMARK  4 active torsions:
REMARK  status: ('A' for Active; 'I' for Inactive)
REMARK    1  A    between atoms: C_1  and  C_6
REMARK    2  A    between atoms: C_1  and  C_7
REMARK    3  A    between atoms: C_9  and  C_14
REMARK    4  A    between atoms: C_11  and  C_15
REMARK                            x       y       z     vdW  Elec       q    Type
REMARK                         _______ _______ _______ _____ _____    ______ ____
ROOT
ATOM      1  C   UNL     1      12.524  36.694  16.341  0.00  0.00    +0.000 C 
ATOM      2  C   UNL     1      11.497  36.356  15.264  0.00  0.00    +0.000 C 
ATOM      3  C   UNL     1      11.749  37.795  15.636  0.00  0.00    +0.000 C 
ATOM      4  C   UNL     1      10.266  35.652  15.619  0.00  0.00    +0.000 C 
ATOM      5  C   UNL     1      10.684  38.629  16.275  0.00  0.00    +0.000 C 
ATOM      6  C   UNL     1      12.256  36.394  17.797  0.00  0.00    +0.000 C 
ATOM      7  C   UNL     1      13.980  36.539  15.971  0.00  0.00    +0.000 C 
ATOM      8  C   UNL     1       9.011  36.105  15.803  0.00  0.00    +0.000 C 
ATOM      9  C   UNL     1      10.340  34.152  15.830  0.00  0.00    +0.000 C 
ATOM     10  C   UNL     1       9.429  38.649  15.402  0.00  0.00    +0.000 C 
ATOM     11  C   UNL     1       8.444  37.503  15.710  0.00  0.00    +0.000 C 
ATOM     12  C   UNL     1       8.091  34.981  16.203  0.00  0.00    +0.000 C 
ATOM     13  C   UNL     1       9.054  33.872  16.609  0.00  0.00    +0.000 C 
ATOM     14  C   UNL     1      10.393  33.385  14.511  0.00  0.00    +0.000 C 
ATOM     15  C   UNL     1       7.300  37.559  14.689  0.00  0.00    +0.000 C 
ENDROOT
TORSDOF 0
ENDMDL
MODEL 4
REMARK VINA RESULT:      -5.6     24.762     27.348
REMARK  Name = 
REMARK  4 active torsions:
REMARK  status: ('A' for Active; 'I' for Inactive)
REMARK    1  A    between atoms: C_1  and  C_6
REMARK    2  A    between atoms: C_1  and  C_7
REMARK    3  A    between atoms: C_9  and  C_14
REMARK    4  A    between atoms: C_11  and  C_15
REMARK                            x       y       z     vdW  Elec       q    Type
REMARK                         _______ _______ _______ _____ _____    ______ ____
ROOT
ATOM      1  C   UNL     1     -16.303  32.790  23.237  0.00  0.00    +0.000 C 
ATOM      2  C   UNL     1     -15.972  33.098  24.694  0.00  0.00    +0.000 C 
ATOM      3  C   UNL     1     -17.408  33.092  24.236  0.00  0.00    +0.000 C 
ATOM      4  C   UNL     1     -15.258  34.325  25.042  0.00  0.00    +0.000 C 
ATOM      5  C   UNL     1     -18.230  34.341  24.245  0.00  0.00    +0.000 C 
ATOM      6  C   UNL     1     -15.987  33.779  22.139  0.00  0.00    +0.000 C 
ATOM      7  C   UNL     1     -16.158  31.356  22.790  0.00  0.00    +0.000 C 
ATOM      8  C   UNL     1     -15.704  35.495  25.540  0.00  0.00    +0.000 C 
ATOM      9  C   UNL     1     -13.757  34.360  24.833  0.00  0.00    +0.000 C 
ATOM     10  C   UNL     1     -18.253  34.952  25.645  0.00  0.00    +0.000 C 
ATOM     11  C   UNL     1     -17.101  35.942  25.906  0.00  0.00    +0.000 C 
ATOM     12  C   UNL     1     -14.571  36.478  25.689  0.00  0.00    +0.000 C 
ATOM     13  C   UNL     1     -13.463  35.860  24.845  0.00  0.00    +0.000 C 
ATOM     14  C   UNL     1     -13.004  33.616  25.933  0.00  0.00    +0.000 C 
ATOM     15  C   UNL     1     -17.162  36.382  27.376  0.00  0.00    +0.000 C 
ENDROOT
TORSDOF 0
ENDMDL
MODEL 5
REMARK VINA RESULT:      -5.5     18.466     19.730
REMARK  Name = 
REMARK  4 active torsions:
REMARK  status: ('A' for Active; 'I' for Inactive)
REMARK    1  A    between atoms: C_1  and  C_6
REMARK    2  A    between atoms: C_1  and  C_7
REMARK    3  A    between atoms: C_9  and  C_14
REMARK    4  A    between atoms: C_11  and  C_15
REMARK                            x       y       z     vdW  Elec       q    Type
REMARK                         _______ _______ _______ _____ _____    ______ ____
ROOT
ATOM      1  C   UNL     1      -0.830  27.722  30.490  0.00  0.00    +0.000 C 
ATOM      2  C   UNL     1      -0.738  26.206  30.633  0.00  0.00    +0.000 C 
ATOM      3  C   UNL     1       0.304  27.086  31.277  0.00  0.00    +0.000 C 
ATOM      4  C   UNL     1      -0.457  25.374  29.465  0.00  0.00    +0.000 C 
ATOM      5  C   UNL     1       1.732  27.049  30.833  0.00  0.00    +0.000 C 
ATOM      6  C   UNL     1      -0.546  28.401  29.170  0.00  0.00    +0.000 C 
ATOM      7  C   UNL     1      -1.906  28.421  31.286  0.00  0.00    +0.000 C 
ATOM      8  C   UNL     1       0.682  24.786  29.053  0.00  0.00    +0.000 C 
ATOM      9  C   UNL     1      -1.598  25.080  28.509  0.00  0.00    +0.000 C 
ATOM     10  C   UNL     1       2.283  25.626  30.933  0.00  0.00    +0.000 C 
ATOM     11  C   UNL     1       2.068  24.789  29.657  0.00  0.00    +0.000 C 
ATOM     12  C   UNL     1       0.467  24.060  27.750  0.00  0.00    +0.000 C 
ATOM     13  C   UNL     1      -0.857  24.626  27.252  0.00  0.00    +0.000 C 
ATOM     14  C   UNL     1      -2.537  24.003  29.046  0.00  0.00    +0.000 C 
ATOM     15  C   UNL     1       2.545  23.356  29.930  0.00  0.00    +0.000 C 
ENDROOT
TORSDOF 0
ENDMDL
MODEL 6
REMARK VINA RESULT:      -5.4     28.528     30.131
REMARK  Name = 
REMARK  4 active torsions:
REMARK  status: ('A' for Active; 'I' for Inactive)
REMARK    1  A    between atoms: C_1  and  C_6
REMARK    2  A    between atoms: C_1  and  C_7
REMARK    3  A    between atoms: C_9  and  C_14
REMARK    4  A    between atoms: C_11  and  C_15
REMARK                            x       y       z     vdW  Elec       q    Type
REMARK                         _______ _______ _______ _____ _____    ______ ____
ROOT
ATOM      1  C   UNL     1       1.397  65.407   9.185  0.00  0.00    +0.000 C 
ATOM      2  C   UNL     1       1.099  63.977   9.629  0.00  0.00    +0.000 C 
ATOM      3  C   UNL     1       1.133  64.316   8.160  0.00  0.00    +0.000 C 
ATOM      4  C   UNL     1      -0.140  63.673  10.341  0.00  0.00    +0.000 C 
ATOM      5  C   UNL     1      -0.097  64.223   7.314  0.00  0.00    +0.000 C 
ATOM      6  C   UNL     1       0.388  66.513   9.388  0.00  0.00    +0.000 C 
ATOM      7  C   UNL     1       2.823  65.884   9.325  0.00  0.00    +0.000 C 
ATOM      8  C   UNL     1      -1.293  63.124   9.912  0.00  0.00    +0.000 C 
ATOM      9  C   UNL     1      -0.212  64.004  11.819  0.00  0.00    +0.000 C 
ATOM     10  C   UNL     1      -0.690  62.817   7.392  0.00  0.00    +0.000 C 
ATOM     11  C   UNL     1      -1.703  62.638   8.540  0.00  0.00    +0.000 C 
ATOM     12  C   UNL     1      -2.300  63.054  11.031  0.00  0.00    +0.000 C 
ATOM     13  C   UNL     1      -1.719  63.995  12.079  0.00  0.00    +0.000 C 
ATOM     14  C   UNL     1       0.527  62.979  12.676  0.00  0.00    +0.000 C 
ATOM     15  C   UNL     1      -2.124  61.162   8.590  0.00  0.00    +0.000 C 
ENDROOT
TORSDOF 0
ENDMDL
MODEL 7
REMARK VINA RESULT:      -5.3     28.483     30.213
REMARK  Name = 
REMARK  4 active torsions:
REMARK  status: ('A' for Active; 'I' for Inactive)
REMARK    1  A    between atoms: C_1  and  C_6
REMARK    2  A    between atoms: C_1  and  C_7
REMARK    3  A    between atoms: C_9  and  C_14
REMARK    4  A    between atoms: C_11  and  C_15
REMARK                            x       y       z     vdW  Elec       q    Type
REMARK                         _______ _______ _______ _____ _____    ______ ____
ROOT
ATOM      1  C   UNL     1       0.180  65.160   9.077  0.00  0.00    +0.000 C 
ATOM      2  C   UNL     1      -1.263  64.677   9.184  0.00  0.00    +0.000 C 
ATOM      3  C   UNL     1      -0.410  64.774  10.423  0.00  0.00    +0.000 C 
ATOM      4  C   UNL     1      -1.655  63.399   8.593  0.00  0.00    +0.000 C 
ATOM      5  C   UNL     1      -0.030  63.554  11.201  0.00  0.00    +0.000 C 
ATOM      6  C   UNL     1       1.247  64.298   8.445  0.00  0.00    +0.000 C 
ATOM      7  C   UNL     1       0.391  66.633   8.820  0.00  0.00    +0.000 C 
ATOM      8  C   UNL     1      -1.859  62.192   9.155  0.00  0.00    +0.000 C 
ATOM      9  C   UNL     1      -1.891  63.349   7.096  0.00  0.00    +0.000 C 
ATOM     10  C   UNL     1      -1.280  62.786  11.628  0.00  0.00    +0.000 C 
ATOM     11  C   UNL     1      -1.746  61.742  10.593  0.00  0.00    +0.000 C 
ATOM     12  C   UNL     1      -2.214  61.168   8.107  0.00  0.00    +0.000 C 
ATOM     13  C   UNL     1      -1.809  61.850   6.806  0.00  0.00    +0.000 C 
ATOM     14  C   UNL     1      -3.243  63.939   6.704  0.00  0.00    +0.000 C 
ATOM     15  C   UNL     1      -3.071  61.136  11.079  0.00  0.00    +0.000 C 
ENDROOT
TORSDOF 0
ENDMDL
MODEL 8
REMARK VINA RESULT:      -5.3     23.120     25.323
REMARK  Name = 
REMARK  4 active torsions:
REMARK  status: ('A' for Active; 'I' for Inactive)
REMARK    1  A    between atoms: C_1  and  C_6
REMARK    2  A    between atoms: C_1  and  C_7
REMARK    3  A    between atoms: C_9  and  C_14
REMARK    4  A    between atoms: C_11  and  C_15
REMARK                            x       y       z     vdW  Elec       q    Type
REMARK                         _______ _______ _______ _____ _____    ______ ____
ROOT
ATOM      1  C   UNL     1      19.507  41.777  -8.400  0.00  0.00    +0.000 C 
ATOM      2  C   UNL     1      19.272  42.950  -7.454  0.00  0.00    +0.000 C 
ATOM      3  C   UNL     1      20.679  42.528  -7.792  0.00  0.00    +0.000 C 
ATOM      4  C   UNL     1      18.674  42.725  -6.139  0.00  0.00    +0.000 C 
ATOM      5  C   UNL     1      21.596  41.975  -6.747  0.00  0.00    +0.000 C 
ATOM      6  C   UNL     1      19.215  40.357  -7.971  0.00  0.00    +0.000 C 
ATOM      7  C   UNL     1      19.229  42.012  -9.865  0.00  0.00    +0.000 C 
ATOM      8  C   UNL     1      19.233  42.650  -4.916  0.00  0.00    +0.000 C 
ATOM      9  C   UNL     1      17.171  42.537  -6.063  0.00  0.00    +0.000 C 
ATOM     10  C   UNL     1      21.735  42.961  -5.588  0.00  0.00    +0.000 C 
ATOM     11  C   UNL     1      20.677  42.768  -4.483  0.00  0.00    +0.000 C 
ATOM     12  C   UNL     1      18.189  42.360  -3.869  0.00  0.00    +0.000 C 
ATOM     13  C   UNL     1      16.996  41.887  -4.691  0.00  0.00    +0.000 C 
ATOM     14  C   UNL     1      16.418  43.860  -6.175  0.00  0.00    +0.000 C 
ATOM     15  C   UNL     1      20.844  43.890  -3.449  0.00  0.00    +0.000 C 
ENDROOT
TORSDOF 0
ENDMDL
MODEL 9
REMARK VINA RESULT:      -5.2     28.212     30.210
REMARK  Name = 
REMARK  4 active torsions:
REMARK  status: ('A' for Active; 'I' for Inactive)
REMARK    1  A    between atoms: C_1  and  C_6
REMARK    2  A    between atoms: C_1  and  C_7
REMARK    3  A    between atoms: C_9  and  C_14
REMARK    4  A    between atoms: C_11  and  C_15
REMARK                            x       y       z     vdW  Elec       q    Type
REMARK                         _______ _______ _______ _____ _____    ______ ____
ROOT
ATOM      1  C   UNL     1      -3.295  62.140  10.014  0.00  0.00    +0.000 C 
ATOM      2  C   UNL     1      -2.705  63.468   9.550  0.00  0.00    +0.000 C 
ATOM      3  C   UNL     1      -3.289  62.512   8.541  0.00  0.00    +0.000 C 
ATOM      4  C   UNL     1      -1.269  63.714   9.667  0.00  0.00    +0.000 C 
ATOM      5  C   UNL     1      -2.431  61.861   7.502  0.00  0.00    +0.000 C 
ATOM      6  C   UNL     1      -2.408  61.025  10.516  0.00  0.00    +0.000 C 
ATOM      7  C   UNL     1      -4.625  62.194  10.728  0.00  0.00    +0.000 C 
ATOM      8  C   UNL     1      -0.287  63.662   8.747  0.00  0.00    +0.000 C 
ATOM      9  C   UNL     1      -0.721  64.100  11.027  0.00  0.00    +0.000 C 
ATOM     10  C   UNL     1      -1.696  62.920   6.681  0.00  0.00    +0.000 C 
ATOM     11  C   UNL     1      -0.332  63.325   7.274  0.00  0.00    +0.000 C 
ATOM     12  C   UNL     1       1.050  63.962   9.376  0.00  0.00    +0.000 C 
ATOM     13  C   UNL     1       0.773  63.815  10.866  0.00  0.00    +0.000 C 
ATOM     14  C   UNL     1      -0.995  65.564  11.366  0.00  0.00    +0.000 C 
ATOM     15  C   UNL     1       0.240  64.476   6.435  0.00  0.00    +0.000 C 
ENDROOT
TORSDOF 0
ENDMDL
