REMARK  Name = JAK3_Inhibitor.pdbqt.pdb
REMARK  1 active torsions:
REMARK  status: ('A' for Active; 'I' for Inactive)
REMARK    1  A    between atoms: C_7  and  C_20
REMARK                            x       y       z     vdW  Elec       q    Type
REMARK                         _______ _______ _______ _____ _____    ______ ____
ROOT
ATOM      1  O   UNL     1       4.191  -0.944   0.369  0.00  0.00    +0.000 OA
ATOM      2  N   UNL     1       2.355  -2.391   0.223  0.00  0.00    +0.000 N 
ATOM      3  C   UNL     1       0.634  -0.878   0.109  0.00  0.00    +0.000 A 
ATOM      4  C   UNL     1       0.972  -2.233   0.123  0.00  0.00    +0.000 A 
ATOM      5  C   UNL     1       1.892  -0.157   0.207  0.00  0.00    +0.000 C 
ATOM      6  C   UNL     1      -0.683  -0.474   0.017  0.00  0.00    +0.000 A 
ATOM      7  C   UNL     1      -1.690  -1.451  -0.065  0.00  0.00    +0.000 A 
ATOM      8  C   UNL     1       2.998  -1.160   0.280  0.00  0.00    +0.000 C 
ATOM      9  C   UNL     1       0.022  -3.227   0.045  0.00  0.00    +0.000 A 
ATOM     10  C   UNL     1       2.073   1.125   0.232  0.00  0.00    +0.000 C 
ATOM     11  C   UNL     1      -1.309  -2.814  -0.049  0.00  0.00    +0.000 A 
ATOM     12  H   UNL     1       2.848  -3.272   0.251  0.00  0.00    +0.000 HD
ATOM     13  N   UNL     1       3.576   3.069   0.360  0.00  0.00    +0.000 N 
ATOM     14  C   UNL     1       2.324   2.520   0.262  0.00  0.00    +0.000 C 
ATOM     15  C   UNL     1       1.414   3.550   0.202  0.00  0.00    +0.000 C 
ATOM     16  C   UNL     1       3.475   4.435   0.364  0.00  0.00    +0.000 C 
ATOM     17  C   UNL     1       2.142   4.761   0.267  0.00  0.00    +0.000 C 
ATOM     18  H   UNL     1       4.439   2.545   0.420  0.00  0.00    +0.000 HD
ENDROOT
BRANCH   7  20
ATOM     19  N   UNL     1      -5.443  -1.729  -0.341  0.00  0.00    +0.000 NA
ATOM     20  C   UNL     1      -3.103  -1.068  -0.165  0.00  0.00    +0.000 A 
ATOM     21  C   UNL     1      -3.512   0.267  -0.184  0.00  0.00    +0.000 A 
ATOM     22  C   UNL     1      -4.124  -2.010  -0.247  0.00  0.00    +0.000 A 
ATOM     23  C   UNL     1      -4.856   0.610  -0.279  0.00  0.00    +0.000 A 
ATOM     24  C   UNL     1      -5.775  -0.421  -0.354  0.00  0.00    +0.000 A 
ENDBRANCH   7  20
TORSDOF 1
