MODEL 1
REMARK VINA RESULT:      -9.7      0.000      0.000
REMARK  Name = JAK3_Inhibitor.pdbqt.pdb
REMARK  1 active torsions:
REMARK  status: ('A' for Active; 'I' for Inactive)
REMARK    1  A    between atoms: C_7  and  C_20
REMARK                            x       y       z     vdW  Elec       q    Type
REMARK                         _______ _______ _______ _____ _____    ______ ____
ROOT
ATOM      1  O   UNL     1       7.979  28.296  14.664  0.00  0.00    +0.000 OA
ATOM      2  N   UNL     1       5.752  27.622  14.394  0.00  0.00    +0.000 N 
ATOM      3  C   UNL     1       4.653  29.520  15.068  0.00  0.00    +0.000 A 
ATOM      4  C   UNL     1       4.504  28.215  14.594  0.00  0.00    +0.000 A 
ATOM      5  C   UNL     1       6.085  29.743  15.166  0.00  0.00    +0.000 C 
ATOM      6  C   UNL     1       3.552  30.307  15.342  0.00  0.00    +0.000 A 
ATOM      7  C   UNL     1       2.267  29.776  15.134  0.00  0.00    +0.000 A 
ATOM      8  C   UNL     1       6.781  28.497  14.722  0.00  0.00    +0.000 C 
ATOM      9  C   UNL     1       3.267  27.650  14.375  0.00  0.00    +0.000 A 
ATOM     10  C   UNL     1       6.697  30.814  15.562  0.00  0.00    +0.000 C 
ATOM     11  C   UNL     1       2.157  28.450  14.652  0.00  0.00    +0.000 A 
ATOM     12  H   UNL     1       5.913  26.685  14.055  0.00  0.00    +0.000 HD
ATOM     13  N   UNL     1       8.782  32.034  16.030  0.00  0.00    +0.000 N 
ATOM     14  C   UNL     1       7.414  31.961  15.986  0.00  0.00    +0.000 C 
ATOM     15  C   UNL     1       6.912  33.167  16.416  0.00  0.00    +0.000 C 
ATOM     16  C   UNL     1       9.157  33.271  16.483  0.00  0.00    +0.000 C 
ATOM     17  C   UNL     1       8.014  33.996  16.730  0.00  0.00    +0.000 C 
ATOM     18  H   UNL     1       9.414  31.289  15.769  0.00  0.00    +0.000 HD
ENDROOT
BRANCH   7  20
ATOM     19  N   UNL     1      -0.603  32.175  14.642  0.00  0.00    +0.000 NA
ATOM     20  C   UNL     1       1.069  30.576  15.411  0.00  0.00    +0.000 A 
ATOM     21  C   UNL     1       0.426  30.549  16.650  0.00  0.00    +0.000 A 
ATOM     22  C   UNL     1       0.497  31.412  14.456  0.00  0.00    +0.000 A 
ATOM     23  C   UNL     1      -0.709  31.314  16.893  0.00  0.00    +0.000 A 
ATOM     24  C   UNL     1      -1.179  32.105  15.860  0.00  0.00    +0.000 A 
ENDBRANCH   7  20
TORSDOF 1
ENDMDL
MODEL 2
REMARK VINA RESULT:      -7.2     31.804     33.833
REMARK  Name = JAK3_Inhibitor.pdbqt.pdb
REMARK  1 active torsions:
REMARK  status: ('A' for Active; 'I' for Inactive)
REMARK    1  A    between atoms: C_7  and  C_20
REMARK                            x       y       z     vdW  Elec       q    Type
REMARK                         _______ _______ _______ _____ _____    ______ ____
ROOT
ATOM      1  O   UNL     1       0.884  65.325   6.043  0.00  0.00    +0.000 OA
ATOM      2  N   UNL     1      -0.626  63.547   6.249  0.00  0.00    +0.000 N 
ATOM      3  C   UNL     1      -0.703  63.320   8.530  0.00  0.00    +0.000 A 
ATOM      4  C   UNL     1      -1.182  62.834   7.312  0.00  0.00    +0.000 A 
ATOM      5  C   UNL     1       0.206  64.403   8.193  0.00  0.00    +0.000 C 
ATOM      6  C   UNL     1      -1.112  62.768   9.728  0.00  0.00    +0.000 A 
ATOM      7  C   UNL     1      -2.026  61.701   9.707  0.00  0.00    +0.000 A 
ATOM      8  C   UNL     1       0.241  64.533   6.704  0.00  0.00    +0.000 C 
ATOM      9  C   UNL     1      -2.078  61.791   7.240  0.00  0.00    +0.000 A 
ATOM     10  C   UNL     1       0.889  65.149   9.002  0.00  0.00    +0.000 C 
ATOM     11  C   UNL     1      -2.490  61.236   8.453  0.00  0.00    +0.000 A 
ATOM     12  H   UNL     1      -0.815  63.388   5.269  0.00  0.00    +0.000 HD
ATOM     13  N   UNL     1       2.482  66.984   9.387  0.00  0.00    +0.000 N 
ATOM     14  C   UNL     1       1.655  65.992   9.846  0.00  0.00    +0.000 C 
ATOM     15  C   UNL     1       1.721  65.989  11.220  0.00  0.00    +0.000 C 
ATOM     16  C   UNL     1       3.074  67.611  10.451  0.00  0.00    +0.000 C 
ATOM     17  C   UNL     1       2.619  67.012  11.602  0.00  0.00    +0.000 C 
ATOM     18  H   UNL     1       2.630  67.215   8.413  0.00  0.00    +0.000 HD
ENDROOT
BRANCH   7  20
ATOM     19  N   UNL     1      -3.699  59.289  12.078  0.00  0.00    +0.000 NA
ATOM     20  C   UNL     1      -2.490  61.083  10.954  0.00  0.00    +0.000 A 
ATOM     21  C   UNL     1      -2.206  61.632  12.206  0.00  0.00    +0.000 A 
ATOM     22  C   UNL     1      -3.240  59.911  10.969  0.00  0.00    +0.000 A 
ATOM     23  C   UNL     1      -2.654  61.032  13.378  0.00  0.00    +0.000 A 
ATOM     24  C   UNL     1      -3.392  59.868  13.258  0.00  0.00    +0.000 A 
ENDBRANCH   7  20
TORSDOF 1
ENDMDL
MODEL 3
REMARK VINA RESULT:      -7.1     16.777     19.364
REMARK  Name = JAK3_Inhibitor.pdbqt.pdb
REMARK  1 active torsions:
REMARK  status: ('A' for Active; 'I' for Inactive)
REMARK    1  A    between atoms: C_7  and  C_20
REMARK                            x       y       z     vdW  Elec       q    Type
REMARK                         _______ _______ _______ _____ _____    ______ ____
ROOT
ATOM      1  O   UNL     1      -7.142  41.843  19.419  0.00  0.00    +0.000 OA
ATOM      2  N   UNL     1      -7.720  40.934  17.339  0.00  0.00    +0.000 N 
ATOM      3  C   UNL     1      -9.989  41.278  17.345  0.00  0.00    +0.000 A 
ATOM      4  C   UNL     1      -8.907  40.770  16.623  0.00  0.00    +0.000 A 
ATOM      5  C   UNL     1      -9.430  41.788  18.586  0.00  0.00    +0.000 C 
ATOM      6  C   UNL     1     -11.271  41.226  16.837  0.00  0.00    +0.000 A 
ATOM      7  C   UNL     1     -11.478  40.652  15.571  0.00  0.00    +0.000 A 
ATOM      8  C   UNL     1      -7.954  41.554  18.561  0.00  0.00    +0.000 C 
ATOM      9  C   UNL     1      -9.059  40.198  15.379  0.00  0.00    +0.000 A 
ATOM     10  C   UNL     1     -10.058  42.351  19.568  0.00  0.00    +0.000 C 
ATOM     11  C   UNL     1     -10.358  40.148  14.868  0.00  0.00    +0.000 A 
ATOM     12  H   UNL     1      -6.801  40.650  17.032  0.00  0.00    +0.000 HD
ATOM     13  N   UNL     1     -10.042  43.409  21.790  0.00  0.00    +0.000 N 
ATOM     14  C   UNL     1     -10.699  42.973  20.669  0.00  0.00    +0.000 C 
ATOM     15  C   UNL     1     -12.037  43.252  20.828  0.00  0.00    +0.000 C 
ATOM     16  C   UNL     1     -10.943  43.961  22.661  0.00  0.00    +0.000 C 
ATOM     17  C   UNL     1     -12.191  43.876  22.088  0.00  0.00    +0.000 C 
ATOM     18  H   UNL     1      -9.046  43.333  21.947  0.00  0.00    +0.000 HD
ENDROOT
BRANCH   7  20
ATOM     19  N   UNL     1     -14.776  41.714  14.075  0.00  0.00    +0.000 NA
ATOM     20  C   UNL     1     -12.824  40.576  14.991  0.00  0.00    +0.000 A 
ATOM     21  C   UNL     1     -13.475  39.358  14.780  0.00  0.00    +0.000 A 
ATOM     22  C   UNL     1     -13.536  41.710  14.614  0.00  0.00    +0.000 A 
ATOM     23  C   UNL     1     -14.750  39.307  14.228  0.00  0.00    +0.000 A 
ATOM     24  C   UNL     1     -15.352  40.507  13.895  0.00  0.00    +0.000 A 
ENDBRANCH   7  20
TORSDOF 1
ENDMDL
MODEL 4
REMARK VINA RESULT:      -6.3     16.947     17.649
REMARK  Name = JAK3_Inhibitor.pdbqt.pdb
REMARK  1 active torsions:
REMARK  status: ('A' for Active; 'I' for Inactive)
REMARK    1  A    between atoms: C_7  and  C_20
REMARK                            x       y       z     vdW  Elec       q    Type
REMARK                         _______ _______ _______ _____ _____    ______ ____
ROOT
ATOM      1  O   UNL     1      -1.170  14.912   6.366  0.00  0.00    +0.000 OA
ATOM      2  N   UNL     1      -1.917  14.100   8.432  0.00  0.00    +0.000 N 
ATOM      3  C   UNL     1      -3.336  15.789   9.062  0.00  0.00    +0.000 A 
ATOM      4  C   UNL     1      -2.792  14.554   9.420  0.00  0.00    +0.000 A 
ATOM      5  C   UNL     1      -2.757  16.115   7.769  0.00  0.00    +0.000 C 
ATOM      6  C   UNL     1      -4.232  16.439   9.887  0.00  0.00    +0.000 A 
ATOM      7  C   UNL     1      -4.596  15.836  11.104  0.00  0.00    +0.000 A 
ATOM      8  C   UNL     1      -1.837  15.003   7.379  0.00  0.00    +0.000 C 
ATOM      9  C   UNL     1      -3.117  13.924  10.601  0.00  0.00    +0.000 A 
ATOM     10  C   UNL     1      -2.967  17.168   7.047  0.00  0.00    +0.000 C 
ATOM     11  C   UNL     1      -4.024  14.584  11.433  0.00  0.00    +0.000 A 
ATOM     12  H   UNL     1      -1.399  13.233   8.456  0.00  0.00    +0.000 HD
ATOM     13  N   UNL     1      -2.545  18.483   5.010  0.00  0.00    +0.000 N 
ATOM     14  C   UNL     1      -3.165  18.302   6.219  0.00  0.00    +0.000 C 
ATOM     15  C   UNL     1      -3.974  19.391   6.446  0.00  0.00    +0.000 C 
ATOM     16  C   UNL     1      -2.948  19.673   4.465  0.00  0.00    +0.000 C 
ATOM     17  C   UNL     1      -3.837  20.258   5.337  0.00  0.00    +0.000 C 
ATOM     18  H   UNL     1      -1.891  17.837   4.588  0.00  0.00    +0.000 HD
ENDROOT
BRANCH   7  20
ATOM     19  N   UNL     1      -7.773  17.395  12.413  0.00  0.00    +0.000 NA
ATOM     20  C   UNL     1      -5.545  16.490  12.012  0.00  0.00    +0.000 A 
ATOM     21  C   UNL     1      -5.200  16.847  13.317  0.00  0.00    +0.000 A 
ATOM     22  C   UNL     1      -6.848  16.795  11.631  0.00  0.00    +0.000 A 
ATOM     23  C   UNL     1      -6.114  17.465  14.163  0.00  0.00    +0.000 A 
ATOM     24  C   UNL     1      -7.379  17.714  13.664  0.00  0.00    +0.000 A 
ENDBRANCH   7  20
TORSDOF 1
ENDMDL
MODEL 5
REMARK VINA RESULT:      -6.3     33.348     35.680
REMARK  Name = JAK3_Inhibitor.pdbqt.pdb
REMARK  1 active torsions:
REMARK  status: ('A' for Active; 'I' for Inactive)
REMARK    1  A    between atoms: C_7  and  C_20
REMARK                            x       y       z     vdW  Elec       q    Type
REMARK                         _______ _______ _______ _____ _____    ______ ____
ROOT
ATOM      1  O   UNL     1      -1.680  66.055   3.029  0.00  0.00    +0.000 OA
ATOM      2  N   UNL     1      -0.287  65.374   4.785  0.00  0.00    +0.000 N 
ATOM      3  C   UNL     1      -1.806  64.318   6.143  0.00  0.00    +0.000 A 
ATOM      4  C   UNL     1      -0.466  64.679   5.982  0.00  0.00    +0.000 A 
ATOM      5  C   UNL     1      -2.494  64.825   4.967  0.00  0.00    +0.000 C 
ATOM      6  C   UNL     1      -2.226  63.621   7.258  0.00  0.00    +0.000 A 
ATOM      7  C   UNL     1      -1.282  63.274   8.239  0.00  0.00    +0.000 A 
ATOM      8  C   UNL     1      -1.488  65.507   4.098  0.00  0.00    +0.000 C 
ATOM      9  C   UNL     1       0.496  64.362   6.914  0.00  0.00    +0.000 A 
ATOM     10  C   UNL     1      -3.753  64.728   4.681  0.00  0.00    +0.000 C 
ATOM     11  C   UNL     1       0.067  63.656   8.041  0.00  0.00    +0.000 A 
ATOM     12  H   UNL     1       0.589  65.740   4.440  0.00  0.00    +0.000 HD
ATOM     13  N   UNL     1      -5.642  65.178   3.169  0.00  0.00    +0.000 N 
ATOM     14  C   UNL     1      -5.122  64.648   4.321  0.00  0.00    +0.000 C 
ATOM     15  C   UNL     1      -6.151  64.055   5.015  0.00  0.00    +0.000 C 
ATOM     16  C   UNL     1      -6.988  64.931   3.121  0.00  0.00    +0.000 C 
ATOM     17  C   UNL     1      -7.332  64.235   4.257  0.00  0.00    +0.000 C 
ATOM     18  H   UNL     1      -5.111  65.674   2.465  0.00  0.00    +0.000 HD
ENDROOT
BRANCH   7  20
ATOM     19  N   UNL     1      -1.696  62.334  11.870  0.00  0.00    +0.000 NA
ATOM     20  C   UNL     1      -1.683  62.532   9.440  0.00  0.00    +0.000 A 
ATOM     21  C   UNL     1      -2.414  61.345   9.371  0.00  0.00    +0.000 A 
ATOM     22  C   UNL     1      -1.360  62.966  10.722  0.00  0.00    +0.000 A 
ATOM     23  C   UNL     1      -2.785  60.657  10.521  0.00  0.00    +0.000 A 
ATOM     24  C   UNL     1      -2.403  61.192  11.738  0.00  0.00    +0.000 A 
ENDBRANCH   7  20
TORSDOF 1
ENDMDL
MODEL 6
REMARK VINA RESULT:      -6.3     30.223     32.396
REMARK  Name = JAK3_Inhibitor.pdbqt.pdb
REMARK  1 active torsions:
REMARK  status: ('A' for Active; 'I' for Inactive)
REMARK    1  A    between atoms: C_7  and  C_20
REMARK                            x       y       z     vdW  Elec       q    Type
REMARK                         _______ _______ _______ _____ _____    ______ ____
ROOT
ATOM      1  O   UNL     1       1.037  64.535  12.459  0.00  0.00    +0.000 OA
ATOM      2  N   UNL     1      -0.315  63.132  13.759  0.00  0.00    +0.000 N 
ATOM      3  C   UNL     1      -1.571  62.125  12.125  0.00  0.00    +0.000 A 
ATOM      4  C   UNL     1      -1.329  62.209  13.497  0.00  0.00    +0.000 A 
ATOM      5  C   UNL     1      -0.646  63.057  11.503  0.00  0.00    +0.000 C 
ATOM      6  C   UNL     1      -2.536  61.274  11.624  0.00  0.00    +0.000 A 
ATOM      7  C   UNL     1      -3.278  60.485  12.519  0.00  0.00    +0.000 A 
ATOM      8  C   UNL     1       0.161  63.701  12.584  0.00  0.00    +0.000 C 
ATOM      9  C   UNL     1      -2.029  61.457  14.414  0.00  0.00    +0.000 A 
ATOM     10  C   UNL     1      -0.509  63.319  10.242  0.00  0.00    +0.000 C 
ATOM     11  C   UNL     1      -3.003  60.597  13.903  0.00  0.00    +0.000 A 
ATOM     12  H   UNL     1       0.044  63.372  14.672  0.00  0.00    +0.000 HD
ATOM     13  N   UNL     1       0.599  64.551   8.423  0.00  0.00    +0.000 N 
ATOM     14  C   UNL     1      -0.320  63.640   8.874  0.00  0.00    +0.000 C 
ATOM     15  C   UNL     1      -0.983  63.131   7.781  0.00  0.00    +0.000 C 
ATOM     16  C   UNL     1       0.530  64.629   7.057  0.00  0.00    +0.000 C 
ATOM     17  C   UNL     1      -0.445  63.757   6.632  0.00  0.00    +0.000 C 
ATOM     18  H   UNL     1       1.229  65.082   9.009  0.00  0.00    +0.000 HD
ENDROOT
BRANCH   7  20
ATOM     19  N   UNL     1      -6.660  59.132  11.533  0.00  0.00    +0.000 NA
ATOM     20  C   UNL     1      -4.313  59.566  12.031  0.00  0.00    +0.000 A 
ATOM     21  C   UNL     1      -4.015  58.273  11.598  0.00  0.00    +0.000 A 
ATOM     22  C   UNL     1      -5.656  59.925  11.970  0.00  0.00    +0.000 A 
ATOM     23  C   UNL     1      -5.010  57.417  11.139  0.00  0.00    +0.000 A 
ATOM     24  C   UNL     1      -6.308  57.894  11.127  0.00  0.00    +0.000 A 
ENDBRANCH   7  20
TORSDOF 1
ENDMDL
MODEL 7
REMARK VINA RESULT:      -6.2     21.955     24.909
REMARK  Name = JAK3_Inhibitor.pdbqt.pdb
REMARK  1 active torsions:
REMARK  status: ('A' for Active; 'I' for Inactive)
REMARK    1  A    between atoms: C_7  and  C_20
REMARK                            x       y       z     vdW  Elec       q    Type
REMARK                         _______ _______ _______ _____ _____    ______ ____
ROOT
ATOM      1  O   UNL     1     -13.749  17.864  26.805  0.00  0.00    +0.000 OA
ATOM      2  N   UNL     1     -12.148  19.559  27.023  0.00  0.00    +0.000 N 
ATOM      3  C   UNL     1     -10.957  18.786  28.825  0.00  0.00    +0.000 A 
ATOM      4  C   UNL     1     -11.077  19.809  27.882  0.00  0.00    +0.000 A 
ATOM      5  C   UNL     1     -12.025  17.847  28.525  0.00  0.00    +0.000 C 
ATOM      6  C   UNL     1      -9.965  18.815  29.785  0.00  0.00    +0.000 A 
ATOM      7  C   UNL     1      -9.067  19.896  29.802  0.00  0.00    +0.000 A 
ATOM      8  C   UNL     1     -12.787  18.369  27.350  0.00  0.00    +0.000 C 
ATOM      9  C   UNL     1     -10.221  20.888  27.858  0.00  0.00    +0.000 A 
ATOM     10  C   UNL     1     -12.307  16.742  29.139  0.00  0.00    +0.000 C 
ATOM     11  C   UNL     1      -9.219  20.913  28.830  0.00  0.00    +0.000 A 
ATOM     12  H   UNL     1     -12.440  20.149  26.257  0.00  0.00    +0.000 HD
ATOM     13  N   UNL     1     -13.702  14.730  29.385  0.00  0.00    +0.000 N 
ATOM     14  C   UNL     1     -12.656  15.524  29.776  0.00  0.00    +0.000 C 
ATOM     15  C   UNL     1     -12.050  14.925  30.856  0.00  0.00    +0.000 C 
ATOM     16  C   UNL     1     -13.770  13.633  30.202  0.00  0.00    +0.000 C 
ATOM     17  C   UNL     1     -12.755  13.729  31.126  0.00  0.00    +0.000 C 
ATOM     18  H   UNL     1     -14.325  14.925  28.613  0.00  0.00    +0.000 HD
ENDROOT
BRANCH   7  20
ATOM     19  N   UNL     1      -6.286  18.839  32.124  0.00  0.00    +0.000 NA
ATOM     20  C   UNL     1      -7.997  19.968  30.804  0.00  0.00    +0.000 A 
ATOM     21  C   UNL     1      -7.629  21.169  31.413  0.00  0.00    +0.000 A 
ATOM     22  C   UNL     1      -7.282  18.845  31.209  0.00  0.00    +0.000 A 
ATOM     23  C   UNL     1      -6.612  21.218  32.360  0.00  0.00    +0.000 A 
ATOM     24  C   UNL     1      -5.976  20.031  32.677  0.00  0.00    +0.000 A 
ENDBRANCH   7  20
TORSDOF 1
ENDMDL
MODEL 8
REMARK VINA RESULT:      -6.1     12.414     15.154
REMARK  Name = JAK3_Inhibitor.pdbqt.pdb
REMARK  1 active torsions:
REMARK  status: ('A' for Active; 'I' for Inactive)
REMARK    1  A    between atoms: C_7  and  C_20
REMARK                            x       y       z     vdW  Elec       q    Type
REMARK                         _______ _______ _______ _____ _____    ______ ____
ROOT
ATOM      1  O   UNL     1       0.501  22.118   1.649  0.00  0.00    +0.000 OA
ATOM      2  N   UNL     1       2.493  21.636   2.782  0.00  0.00    +0.000 N 
ATOM      3  C   UNL     1       1.703  21.326   4.913  0.00  0.00    +0.000 A 
ATOM      4  C   UNL     1       2.838  21.334   4.100  0.00  0.00    +0.000 A 
ATOM      5  C   UNL     1       0.588  21.643   4.036  0.00  0.00    +0.000 C 
ATOM      6  C   UNL     1       1.796  21.052   6.263  0.00  0.00    +0.000 A 
ATOM      7  C   UNL     1       3.059  20.778   6.816  0.00  0.00    +0.000 A 
ATOM      8  C   UNL     1       1.124  21.840   2.655  0.00  0.00    +0.000 C 
ATOM      9  C   UNL     1       4.097  21.072   4.595  0.00  0.00    +0.000 A 
ATOM     10  C   UNL     1      -0.664  21.748   4.350  0.00  0.00    +0.000 C 
ATOM     11  C   UNL     1       4.187  20.795   5.961  0.00  0.00    +0.000 A 
ATOM     12  H   UNL     1       3.135  21.701   2.004  0.00  0.00    +0.000 HD
ATOM     13  N   UNL     1      -2.999  22.182   3.706  0.00  0.00    +0.000 N 
ATOM     14  C   UNL     1      -2.046  21.873   4.641  0.00  0.00    +0.000 C 
ATOM     15  C   UNL     1      -2.677  21.719   5.854  0.00  0.00    +0.000 C 
ATOM     16  C   UNL     1      -4.229  22.228   4.307  0.00  0.00    +0.000 C 
ATOM     17  C   UNL     1      -4.058  21.944   5.643  0.00  0.00    +0.000 C 
ATOM     18  H   UNL     1      -2.820  22.350   2.725  0.00  0.00    +0.000 HD
ENDROOT
BRANCH   7  20
ATOM     19  N   UNL     1       4.659  20.047  10.154  0.00  0.00    +0.000 NA
ATOM     20  C   UNL     1       3.206  20.482   8.246  0.00  0.00    +0.000 A 
ATOM     21  C   UNL     1       2.105  20.343   9.093  0.00  0.00    +0.000 A 
ATOM     22  C   UNL     1       4.451  20.321   8.847  0.00  0.00    +0.000 A 
ATOM     23  C   UNL     1       2.265  20.062  10.445  0.00  0.00    +0.000 A 
ATOM     24  C   UNL     1       3.556  19.925  10.922  0.00  0.00    +0.000 A 
ENDBRANCH   7  20
TORSDOF 1
ENDMDL
MODEL 9
REMARK VINA RESULT:      -6.1     16.165     17.932
REMARK  Name = JAK3_Inhibitor.pdbqt.pdb
REMARK  1 active torsions:
REMARK  status: ('A' for Active; 'I' for Inactive)
REMARK    1  A    between atoms: C_7  and  C_20
REMARK                            x       y       z     vdW  Elec       q    Type
REMARK                         _______ _______ _______ _____ _____    ______ ____
ROOT
ATOM      1  O   UNL     1      -3.047  12.820  11.056  0.00  0.00    +0.000 OA
ATOM      2  N   UNL     1      -2.183  13.581   9.016  0.00  0.00    +0.000 N 
ATOM      3  C   UNL     1      -3.082  15.691   8.939  0.00  0.00    +0.000 A 
ATOM      4  C   UNL     1      -2.276  14.762   8.277  0.00  0.00    +0.000 A 
ATOM      5  C   UNL     1      -3.513  15.038  10.164  0.00  0.00    +0.000 C 
ATOM      6  C   UNL     1      -3.322  16.938   8.398  0.00  0.00    +0.000 A 
ATOM      7  C   UNL     1      -2.739  17.267   7.162  0.00  0.00    +0.000 A 
ATOM      8  C   UNL     1      -2.917  13.667  10.193  0.00  0.00    +0.000 C 
ATOM      9  C   UNL     1      -1.683  15.037   7.065  0.00  0.00    +0.000 A 
ATOM     10  C   UNL     1      -4.277  15.516  11.093  0.00  0.00    +0.000 C 
ATOM     11  C   UNL     1      -1.927  16.300   6.522  0.00  0.00    +0.000 A 
ATOM     12  H   UNL     1      -1.659  12.760   8.752  0.00  0.00    +0.000 HD
ATOM     13  N   UNL     1      -5.438  15.262  13.248  0.00  0.00    +0.000 N 
ATOM     14  C   UNL     1      -5.108  15.995  12.137  0.00  0.00    +0.000 C 
ATOM     15  C   UNL     1      -5.718  17.223  12.245  0.00  0.00    +0.000 C 
ATOM     16  C   UNL     1      -6.251  16.007  14.060  0.00  0.00    +0.000 C 
ATOM     17  C   UNL     1      -6.442  17.230  13.460  0.00  0.00    +0.000 C 
ATOM     18  H   UNL     1      -5.128  14.317  13.436  0.00  0.00    +0.000 HD
ENDROOT
BRANCH   7  20
ATOM     19  N   UNL     1      -4.524  20.277   5.750  0.00  0.00    +0.000 NA
ATOM     20  C   UNL     1      -2.965  18.581   6.549  0.00  0.00    +0.000 A 
ATOM     21  C   UNL     1      -1.913  19.415   6.168  0.00  0.00    +0.000 A 
ATOM     22  C   UNL     1      -4.243  19.078   6.309  0.00  0.00    +0.000 A 
ATOM     23  C   UNL     1      -2.148  20.657   5.589  0.00  0.00    +0.000 A 
ATOM     24  C   UNL     1      -3.465  21.037   5.404  0.00  0.00    +0.000 A 
ENDBRANCH   7  20
TORSDOF 1
ENDMDL
