MODEL 1
REMARK VINA RESULT:      -7.6      0.000      0.000
REMARK  Name = Lobelin.pdbqt.pdb
REMARK  3 active torsions:
REMARK  status: ('A' for Active; 'I' for Inactive)
REMARK    1  A    between atoms: C_9  and  O_10
REMARK    2  A    between atoms: C_9  and  C_12
REMARK    3  A    between atoms: C_19  and  C_21
REMARK                            x       y       z     vdW  Elec       q    Type
REMARK                         _______ _______ _______ _____ _____    ______ ____
ROOT
ATOM      1  N   UNL     1       7.921  31.375  15.930  0.00  0.00    +0.000 N 
ATOM      2  C   UNL     1       6.985  32.439  16.274  0.00  0.00    +0.000 C 
ATOM      3  C   UNL     1       7.424  30.047  15.581  0.00  0.00    +0.000 C 
ATOM      4  C   UNL     1       5.606  32.073  16.195  0.00  0.00    +0.000 C 
ATOM      5  C   UNL     1       6.001  29.923  15.574  0.00  0.00    +0.000 C 
ATOM      6  C   UNL     1       4.814  30.825  15.853  0.00  0.00    +0.000 C 
ATOM      7  C   UNL     1       9.345  31.595  16.055  0.00  0.00    +0.000 C 
ATOM      8  C   UNL     1       7.411  33.743  16.648  0.00  0.00    +0.000 C 
ATOM      9  C   UNL     1       7.844  35.049  16.995  0.00  0.00    +0.000 C 
ATOM     10  C   UNL     1       8.292  28.971  15.264  0.00  0.00    +0.000 C 
ATOM     11  C   UNL     1       9.172  27.889  14.910  0.00  0.00    +0.000 C 
ATOM     12  O   UNL     1       8.987  27.288  13.861  0.00  0.00    +0.000 OA
ENDROOT
BRANCH   9  13
ATOM     13  C   UNL     1       8.580  35.938  16.096  0.00  0.00    +0.000 A 
ATOM     14  C   UNL     1       7.928  36.971  15.418  0.00  0.00    +0.000 A 
ATOM     15  C   UNL     1       8.629  37.819  14.562  0.00  0.00    +0.000 A 
ATOM     16  C   UNL     1       9.996  37.642  14.375  0.00  0.00    +0.000 A 
ATOM     17  C   UNL     1      10.660  36.617  15.042  0.00  0.00    +0.000 A 
ATOM     18  C   UNL     1       9.954  35.772  15.896  0.00  0.00    +0.000 A 
ENDBRANCH   9  13
BRANCH  11  19
ATOM     19  C   UNL     1      10.262  27.536  15.836  0.00  0.00    +0.000 A 
ATOM     20  C   UNL     1      11.171  26.524  15.531  0.00  0.00    +0.000 A 
ATOM     21  C   UNL     1      12.195  26.219  16.425  0.00  0.00    +0.000 A 
ATOM     22  C   UNL     1      12.310  26.925  17.620  0.00  0.00    +0.000 A 
ATOM     23  C   UNL     1      11.403  27.939  17.923  0.00  0.00    +0.000 A 
ATOM     24  C   UNL     1      10.379  28.246  17.031  0.00  0.00    +0.000 A 
ENDBRANCH  11  19
BRANCH   9  25
ATOM     25  O   UNL     1       7.557  35.533  18.251  0.00  0.00    +0.000 OA
ATOM     26  H   UNL     1       7.937  34.975  18.950  0.00  0.00    +0.000 HD
ENDBRANCH   9  25
TORSDOF 3
ENDMDL
MODEL 2
REMARK VINA RESULT:      -7.3     12.510     15.837
REMARK  Name = Lobelin.pdbqt.pdb
REMARK  3 active torsions:
REMARK  status: ('A' for Active; 'I' for Inactive)
REMARK    1  A    between atoms: C_9  and  O_10
REMARK    2  A    between atoms: C_9  and  C_12
REMARK    3  A    between atoms: C_19  and  C_21
REMARK                            x       y       z     vdW  Elec       q    Type
REMARK                         _______ _______ _______ _____ _____    ______ ____
ROOT
ATOM      1  N   UNL     1      -1.855  40.800  15.415  0.00  0.00    +0.000 N 
ATOM      2  C   UNL     1      -3.091  40.061  15.179  0.00  0.00    +0.000 C 
ATOM      3  C   UNL     1      -0.670  40.107  15.910  0.00  0.00    +0.000 C 
ATOM      4  C   UNL     1      -3.006  38.657  15.431  0.00  0.00    +0.000 C 
ATOM      5  C   UNL     1      -0.831  38.699  16.089  0.00  0.00    +0.000 C 
ATOM      6  C   UNL     1      -1.944  37.685  15.912  0.00  0.00    +0.000 C 
ATOM      7  C   UNL     1      -1.837  42.240  15.279  0.00  0.00    +0.000 C 
ATOM      8  C   UNL     1      -4.283  40.687  14.724  0.00  0.00    +0.000 C 
ATOM      9  C   UNL     1      -5.462  41.315  14.244  0.00  0.00    +0.000 C 
ATOM     10  C   UNL     1       0.547  40.783  16.180  0.00  0.00    +0.000 C 
ATOM     11  C   UNL     1       1.792  41.464  16.422  0.00  0.00    +0.000 C 
ATOM     12  O   UNL     1       2.815  41.037  15.908  0.00  0.00    +0.000 OA
ENDROOT
BRANCH   9  13
ATOM     13  C   UNL     1      -5.570  41.980  12.946  0.00  0.00    +0.000 A 
ATOM     14  C   UNL     1      -5.171  43.310  12.788  0.00  0.00    +0.000 A 
ATOM     15  C   UNL     1      -5.273  43.945  11.551  0.00  0.00    +0.000 A 
ATOM     16  C   UNL     1      -5.778  43.253  10.455  0.00  0.00    +0.000 A 
ATOM     17  C   UNL     1      -6.182  41.929  10.596  0.00  0.00    +0.000 A 
ATOM     18  C   UNL     1      -6.077  41.299  11.835  0.00  0.00    +0.000 A 
ENDBRANCH   9  13
BRANCH  11  19
ATOM     19  C   UNL     1       1.786  42.651  17.295  0.00  0.00    +0.000 A 
ATOM     20  C   UNL     1       1.033  42.682  18.469  0.00  0.00    +0.000 A 
ATOM     21  C   UNL     1       1.053  43.816  19.277  0.00  0.00    +0.000 A 
ATOM     22  C   UNL     1       1.827  44.916  18.913  0.00  0.00    +0.000 A 
ATOM     23  C   UNL     1       2.582  44.883  17.742  0.00  0.00    +0.000 A 
ATOM     24  C   UNL     1       2.564  43.750  16.933  0.00  0.00    +0.000 A 
ENDBRANCH  11  19
BRANCH   9  25
ATOM     25  O   UNL     1      -6.590  41.303  15.033  0.00  0.00    +0.000 OA
ATOM     26  H   UNL     1      -7.041  42.164  15.034  0.00  0.00    +0.000 HD
ENDBRANCH   9  25
TORSDOF 3
ENDMDL
MODEL 3
REMARK VINA RESULT:      -6.9     24.556     28.500
REMARK  Name = Lobelin.pdbqt.pdb
REMARK  3 active torsions:
REMARK  status: ('A' for Active; 'I' for Inactive)
REMARK    1  A    between atoms: C_9  and  O_10
REMARK    2  A    between atoms: C_9  and  C_12
REMARK    3  A    between atoms: C_19  and  C_21
REMARK                            x       y       z     vdW  Elec       q    Type
REMARK                         _______ _______ _______ _____ _____    ______ ____
ROOT
ATOM      1  N   UNL     1     -16.825  32.468  23.650  0.00  0.00    +0.000 N 
ATOM      2  C   UNL     1     -15.515  31.869  23.417  0.00  0.00    +0.000 C 
ATOM      3  C   UNL     1     -16.928  33.774  24.296  0.00  0.00    +0.000 C 
ATOM      4  C   UNL     1     -14.407  32.673  23.826  0.00  0.00    +0.000 C 
ATOM      5  C   UNL     1     -15.677  34.384  24.617  0.00  0.00    +0.000 C 
ATOM      6  C   UNL     1     -14.209  34.029  24.479  0.00  0.00    +0.000 C 
ATOM      7  C   UNL     1     -18.026  31.717  23.358  0.00  0.00    +0.000 C 
ATOM      8  C   UNL     1     -15.353  30.590  22.818  0.00  0.00    +0.000 C 
ATOM      9  C   UNL     1     -15.200  29.324  22.196  0.00  0.00    +0.000 C 
ATOM     10  C   UNL     1     -18.177  34.388  24.569  0.00  0.00    +0.000 C 
ATOM     11  C   UNL     1     -19.443  35.026  24.815  0.00  0.00    +0.000 C 
ATOM     12  O   UNL     1     -19.623  36.169  24.420  0.00  0.00    +0.000 OA
ENDROOT
BRANCH   9  13
ATOM     13  C   UNL     1     -15.622  29.022  20.828  0.00  0.00    +0.000 A 
ATOM     14  C   UNL     1     -16.827  28.358  20.581  0.00  0.00    +0.000 A 
ATOM     15  C   UNL     1     -17.230  28.070  19.278  0.00  0.00    +0.000 A 
ATOM     16  C   UNL     1     -16.428  28.446  18.204  0.00  0.00    +0.000 A 
ATOM     17  C   UNL     1     -15.225  29.106  18.433  0.00  0.00    +0.000 A 
ATOM     18  C   UNL     1     -14.827  29.390  19.738  0.00  0.00    +0.000 A 
ENDBRANCH   9  13
BRANCH  11  19
ATOM     19  C   UNL     1     -20.477  34.276  25.550  0.00  0.00    +0.000 A 
ATOM     20  C   UNL     1     -21.795  34.729  25.608  0.00  0.00    +0.000 A 
ATOM     21  C   UNL     1     -22.751  33.995  26.305  0.00  0.00    +0.000 A 
ATOM     22  C   UNL     1     -22.391  32.810  26.942  0.00  0.00    +0.000 A 
ATOM     23  C   UNL     1     -21.075  32.356  26.881  0.00  0.00    +0.000 A 
ATOM     24  C   UNL     1     -20.117  33.088  26.184  0.00  0.00    +0.000 A 
ENDBRANCH  11  19
BRANCH   9  25
ATOM     25  O   UNL     1     -14.612  28.301  22.905  0.00  0.00    +0.000 OA
ATOM     26  H   UNL     1     -14.458  28.545  23.834  0.00  0.00    +0.000 HD
ENDBRANCH   9  25
TORSDOF 3
ENDMDL
MODEL 4
REMARK VINA RESULT:      -6.9     14.686     18.202
REMARK  Name = Lobelin.pdbqt.pdb
REMARK  3 active torsions:
REMARK  status: ('A' for Active; 'I' for Inactive)
REMARK    1  A    between atoms: C_9  and  O_10
REMARK    2  A    between atoms: C_9  and  C_12
REMARK    3  A    between atoms: C_19  and  C_21
REMARK                            x       y       z     vdW  Elec       q    Type
REMARK                         _______ _______ _______ _____ _____    ______ ____
ROOT
ATOM      1  N   UNL     1       2.110  20.346   7.136  0.00  0.00    +0.000 N 
ATOM      2  C   UNL     1       3.262  20.361   8.031  0.00  0.00    +0.000 C 
ATOM      3  C   UNL     1       2.088  21.207   5.957  0.00  0.00    +0.000 C 
ATOM      4  C   UNL     1       4.323  21.229   7.628  0.00  0.00    +0.000 C 
ATOM      5  C   UNL     1       3.267  21.990   5.765  0.00  0.00    +0.000 C 
ATOM      6  C   UNL     1       4.586  22.192   6.485  0.00  0.00    +0.000 C 
ATOM      7  C   UNL     1       0.937  19.574   7.481  0.00  0.00    +0.000 C 
ATOM      8  C   UNL     1       3.329  19.566   9.207  0.00  0.00    +0.000 C 
ATOM      9  C   UNL     1       3.398  18.749  10.366  0.00  0.00    +0.000 C 
ATOM     10  C   UNL     1       0.982  21.250   5.070  0.00  0.00    +0.000 C 
ATOM     11  C   UNL     1      -0.126  21.267   4.151  0.00  0.00    +0.000 C 
ATOM     12  O   UNL     1       0.085  21.098   2.959  0.00  0.00    +0.000 OA
ENDROOT
BRANCH   9  13
ATOM     13  C   UNL     1       3.389  17.286  10.344  0.00  0.00    +0.000 A 
ATOM     14  C   UNL     1       3.113  16.590   9.164  0.00  0.00    +0.000 A 
ATOM     15  C   UNL     1       3.105  15.196   9.142  0.00  0.00    +0.000 A 
ATOM     16  C   UNL     1       3.374  14.481  10.305  0.00  0.00    +0.000 A 
ATOM     17  C   UNL     1       3.648  15.160  11.488  0.00  0.00    +0.000 A 
ATOM     18  C   UNL     1       3.655  16.553  11.504  0.00  0.00    +0.000 A 
ENDBRANCH   9  13
BRANCH  11  19
ATOM     19  C   UNL     1      -1.478  21.502   4.686  0.00  0.00    +0.000 A 
ATOM     20  C   UNL     1      -2.220  20.468   5.257  0.00  0.00    +0.000 A 
ATOM     21  C   UNL     1      -3.493  20.723   5.760  0.00  0.00    +0.000 A 
ATOM     22  C   UNL     1      -4.024  22.009   5.692  0.00  0.00    +0.000 A 
ATOM     23  C   UNL     1      -3.281  23.043   5.124  0.00  0.00    +0.000 A 
ATOM     24  C   UNL     1      -2.008  22.791   4.621  0.00  0.00    +0.000 A 
ENDBRANCH  11  19
BRANCH   9  25
ATOM     25  O   UNL     1       3.487  19.352  11.600  0.00  0.00    +0.000 OA
ATOM     26  H   UNL     1       4.097  20.108  11.591  0.00  0.00    +0.000 HD
ENDBRANCH   9  25
TORSDOF 3
ENDMDL
MODEL 5
REMARK VINA RESULT:      -6.8     15.537     18.247
REMARK  Name = Lobelin.pdbqt.pdb
REMARK  3 active torsions:
REMARK  status: ('A' for Active; 'I' for Inactive)
REMARK    1  A    between atoms: C_9  and  O_10
REMARK    2  A    between atoms: C_9  and  C_12
REMARK    3  A    between atoms: C_19  and  C_21
REMARK                            x       y       z     vdW  Elec       q    Type
REMARK                         _______ _______ _______ _____ _____    ______ ____
ROOT
ATOM      1  N   UNL     1      -5.039  42.697  12.868  0.00  0.00    +0.000 N 
ATOM      2  C   UNL     1      -5.858  43.196  11.769  0.00  0.00    +0.000 C 
ATOM      3  C   UNL     1      -5.367  41.426  13.508  0.00  0.00    +0.000 C 
ATOM      4  C   UNL     1      -6.928  42.334  11.381  0.00  0.00    +0.000 C 
ATOM      5  C   UNL     1      -6.488  40.744  12.944  0.00  0.00    +0.000 C 
ATOM      6  C   UNL     1      -7.482  40.993  11.826  0.00  0.00    +0.000 C 
ATOM      7  C   UNL     1      -3.978  43.517  13.410  0.00  0.00    +0.000 C 
ATOM      8  C   UNL     1      -5.603  44.438  11.127  0.00  0.00    +0.000 C 
ATOM      9  C   UNL     1      -5.327  45.667  10.474  0.00  0.00    +0.000 C 
ATOM     10  C   UNL     1      -4.619  40.909  14.596  0.00  0.00    +0.000 C 
ATOM     11  C   UNL     1      -3.839  40.369  15.679  0.00  0.00    +0.000 C 
ATOM     12  O   UNL     1      -3.410  39.228  15.593  0.00  0.00    +0.000 OA
ENDROOT
BRANCH   9  13
ATOM     13  C   UNL     1      -4.097  45.948   9.732  0.00  0.00    +0.000 A 
ATOM     14  C   UNL     1      -2.963  46.439  10.385  0.00  0.00    +0.000 A 
ATOM     15  C   UNL     1      -1.791  46.706   9.680  0.00  0.00    +0.000 A 
ATOM     16  C   UNL     1      -1.741  46.482   8.307  0.00  0.00    +0.000 A 
ATOM     17  C   UNL     1      -2.861  45.994   7.642  0.00  0.00    +0.000 A 
ATOM     18  C   UNL     1      -4.031  45.730   8.353  0.00  0.00    +0.000 A 
ENDBRANCH   9  13
BRANCH  11  19
ATOM     19  C   UNL     1      -3.597  41.214  16.861  0.00  0.00    +0.000 A 
ATOM     20  C   UNL     1      -2.383  41.168  17.546  0.00  0.00    +0.000 A 
ATOM     21  C   UNL     1      -2.182  41.984  18.657  0.00  0.00    +0.000 A 
ATOM     22  C   UNL     1      -3.192  42.845  19.081  0.00  0.00    +0.000 A 
ATOM     23  C   UNL     1      -4.404  42.893  18.394  0.00  0.00    +0.000 A 
ATOM     24  C   UNL     1      -4.607  42.078  17.283  0.00  0.00    +0.000 A 
ENDBRANCH  11  19
BRANCH   9  25
ATOM     25  O   UNL     1      -6.265  46.673  10.523  0.00  0.00    +0.000 OA
ATOM     26  H   UNL     1      -7.009  46.447  11.108  0.00  0.00    +0.000 HD
ENDBRANCH   9  25
TORSDOF 3
ENDMDL
MODEL 6
REMARK VINA RESULT:      -6.6     15.518     19.361
REMARK  Name = Lobelin.pdbqt.pdb
REMARK  3 active torsions:
REMARK  status: ('A' for Active; 'I' for Inactive)
REMARK    1  A    between atoms: C_9  and  O_10
REMARK    2  A    between atoms: C_9  and  C_12
REMARK    3  A    between atoms: C_19  and  C_21
REMARK                            x       y       z     vdW  Elec       q    Type
REMARK                         _______ _______ _______ _____ _____    ______ ____
ROOT
ATOM      1  N   UNL     1      13.676  49.188  11.300  0.00  0.00    +0.000 N 
ATOM      2  C   UNL     1      13.935  50.295  12.214  0.00  0.00    +0.000 C 
ATOM      3  C   UNL     1      12.678  48.177  11.638  0.00  0.00    +0.000 C 
ATOM      4  C   UNL     1      13.121  50.305  13.388  0.00  0.00    +0.000 C 
ATOM      5  C   UNL     1      11.994  48.400  12.872  0.00  0.00    +0.000 C 
ATOM      6  C   UNL     1      12.028  49.435  13.981  0.00  0.00    +0.000 C 
ATOM      7  C   UNL     1      14.492  49.020  10.118  0.00  0.00    +0.000 C 
ATOM      8  C   UNL     1      14.912  51.293  11.950  0.00  0.00    +0.000 C 
ATOM      9  C   UNL     1      15.871  52.300  11.668  0.00  0.00    +0.000 C 
ATOM     10  C   UNL     1      12.407  47.067  10.797  0.00  0.00    +0.000 C 
ATOM     11  C   UNL     1      12.109  45.960   9.928  0.00  0.00    +0.000 C 
ATOM     12  O   UNL     1      10.949  45.754   9.602  0.00  0.00    +0.000 OA
ENDROOT
BRANCH   9  13
ATOM     13  C   UNL     1      15.795  53.213  10.527  0.00  0.00    +0.000 A 
ATOM     14  C   UNL     1      14.948  54.324  10.554  0.00  0.00    +0.000 A 
ATOM     15  C   UNL     1      14.876  55.194   9.468  0.00  0.00    +0.000 A 
ATOM     16  C   UNL     1      15.653  54.961   8.338  0.00  0.00    +0.000 A 
ATOM     17  C   UNL     1      16.500  53.858   8.294  0.00  0.00    +0.000 A 
ATOM     18  C   UNL     1      16.568  52.991   9.383  0.00  0.00    +0.000 A 
ENDBRANCH   9  13
BRANCH  11  19
ATOM     19  C   UNL     1      13.218  45.105   9.471  0.00  0.00    +0.000 A 
ATOM     20  C   UNL     1      14.547  45.455   9.712  0.00  0.00    +0.000 A 
ATOM     21  C   UNL     1      15.574  44.623   9.273  0.00  0.00    +0.000 A 
ATOM     22  C   UNL     1      15.273  43.443   8.597  0.00  0.00    +0.000 A 
ATOM     23  C   UNL     1      13.945  43.092   8.360  0.00  0.00    +0.000 A 
ATOM     24  C   UNL     1      12.916  43.922   8.797  0.00  0.00    +0.000 A 
ENDBRANCH  11  19
BRANCH   9  25
ATOM     25  O   UNL     1      16.947  52.449  12.513  0.00  0.00    +0.000 OA
ATOM     26  H   UNL     1      16.696  52.877  13.349  0.00  0.00    +0.000 HD
ENDBRANCH   9  25
TORSDOF 3
ENDMDL
MODEL 7
REMARK VINA RESULT:      -6.6     14.749     17.863
REMARK  Name = Lobelin.pdbqt.pdb
REMARK  3 active torsions:
REMARK  status: ('A' for Active; 'I' for Inactive)
REMARK    1  A    between atoms: C_9  and  O_10
REMARK    2  A    between atoms: C_9  and  C_12
REMARK    3  A    between atoms: C_19  and  C_21
REMARK                            x       y       z     vdW  Elec       q    Type
REMARK                         _______ _______ _______ _____ _____    ______ ____
ROOT
ATOM      1  N   UNL     1       0.756  20.367   5.218  0.00  0.00    +0.000 N 
ATOM      2  C   UNL     1      -0.173  19.910   4.191  0.00  0.00    +0.000 C 
ATOM      3  C   UNL     1       2.193  20.172   5.046  0.00  0.00    +0.000 C 
ATOM      4  C   UNL     1       0.444  19.323   3.044  0.00  0.00    +0.000 C 
ATOM      5  C   UNL     1       2.570  19.557   3.813  0.00  0.00    +0.000 C 
ATOM      6  C   UNL     1       1.859  19.016   2.587  0.00  0.00    +0.000 C 
ATOM      7  C   UNL     1       0.251  20.900   6.464  0.00  0.00    +0.000 C 
ATOM      8  C   UNL     1      -1.582  20.048   4.316  0.00  0.00    +0.000 C 
ATOM      9  C   UNL     1      -2.986  20.213   4.437  0.00  0.00    +0.000 C 
ATOM     10  C   UNL     1       3.136  20.574   6.026  0.00  0.00    +0.000 C 
ATOM     11  C   UNL     1       4.095  21.012   7.005  0.00  0.00    +0.000 C 
ATOM     12  O   UNL     1       5.023  21.726   6.653  0.00  0.00    +0.000 OA
ENDROOT
BRANCH   9  13
ATOM     13  C   UNL     1      -3.659  21.510   4.519  0.00  0.00    +0.000 A 
ATOM     14  C   UNL     1      -2.972  22.647   4.954  0.00  0.00    +0.000 A 
ATOM     15  C   UNL     1      -3.611  23.883   5.032  0.00  0.00    +0.000 A 
ATOM     16  C   UNL     1      -4.951  23.995   4.673  0.00  0.00    +0.000 A 
ATOM     17  C   UNL     1      -5.650  22.873   4.239  0.00  0.00    +0.000 A 
ATOM     18  C   UNL     1      -5.005  21.640   4.163  0.00  0.00    +0.000 A 
ENDBRANCH   9  13
BRANCH  11  19
ATOM     19  C   UNL     1       3.926  20.572   8.401  0.00  0.00    +0.000 A 
ATOM     20  C   UNL     1       5.027  20.276   9.204  0.00  0.00    +0.000 A 
ATOM     21  C   UNL     1       4.836  19.868  10.522  0.00  0.00    +0.000 A 
ATOM     22  C   UNL     1       3.546  19.760  11.036  0.00  0.00    +0.000 A 
ATOM     23  C   UNL     1       2.446  20.060  10.235  0.00  0.00    +0.000 A 
ATOM     24  C   UNL     1       2.635  20.467   8.917  0.00  0.00    +0.000 A 
ENDBRANCH  11  19
BRANCH   9  25
ATOM     25  O   UNL     1      -3.787  19.094   4.475  0.00  0.00    +0.000 OA
ATOM     26  H   UNL     1      -4.729  19.319   4.388  0.00  0.00    +0.000 HD
ENDBRANCH   9  25
TORSDOF 3
ENDMDL
MODEL 8
REMARK VINA RESULT:      -6.6     22.440     25.281
REMARK  Name = Lobelin.pdbqt.pdb
REMARK  3 active torsions:
REMARK  status: ('A' for Active; 'I' for Inactive)
REMARK    1  A    between atoms: C_9  and  O_10
REMARK    2  A    between atoms: C_9  and  C_12
REMARK    3  A    between atoms: C_19  and  C_21
REMARK                            x       y       z     vdW  Elec       q    Type
REMARK                         _______ _______ _______ _____ _____    ______ ____
ROOT
ATOM      1  N   UNL     1     -13.192  40.714   8.540  0.00  0.00    +0.000 N 
ATOM      2  C   UNL     1     -14.232  40.782   7.519  0.00  0.00    +0.000 C 
ATOM      3  C   UNL     1     -12.577  39.433   8.875  0.00  0.00    +0.000 C 
ATOM      4  C   UNL     1     -14.534  39.536   6.888  0.00  0.00    +0.000 C 
ATOM      5  C   UNL     1     -13.048  38.324   8.108  0.00  0.00    +0.000 C 
ATOM      6  C   UNL     1     -14.063  38.098   7.004  0.00  0.00    +0.000 C 
ATOM      7  C   UNL     1     -12.858  41.891   9.311  0.00  0.00    +0.000 C 
ATOM      8  C   UNL     1     -14.885  41.995   7.171  0.00  0.00    +0.000 C 
ATOM      9  C   UNL     1     -15.515  43.215   6.811  0.00  0.00    +0.000 C 
ATOM     10  C   UNL     1     -11.581  39.309   9.877  0.00  0.00    +0.000 C 
ATOM     11  C   UNL     1     -10.547  39.188  10.871  0.00  0.00    +0.000 C 
ATOM     12  O   UNL     1      -9.497  38.636  10.575  0.00  0.00    +0.000 OA
ENDROOT
BRANCH   9  13
ATOM     13  C   UNL     1     -14.817  44.361   6.227  0.00  0.00    +0.000 A 
ATOM     14  C   UNL     1     -15.446  45.176   5.282  0.00  0.00    +0.000 A 
ATOM     15  C   UNL     1     -14.782  46.269   4.726  0.00  0.00    +0.000 A 
ATOM     16  C   UNL     1     -13.476  46.558   5.111  0.00  0.00    +0.000 A 
ATOM     17  C   UNL     1     -12.836  45.754   6.050  0.00  0.00    +0.000 A 
ATOM     18  C   UNL     1     -13.505  44.663   6.602  0.00  0.00    +0.000 A 
ENDBRANCH   9  13
BRANCH  11  19
ATOM     19  C   UNL     1     -10.799  39.729  12.218  0.00  0.00    +0.000 A 
ATOM     20  C   UNL     1      -9.787  40.351  12.949  0.00  0.00    +0.000 A 
ATOM     21  C   UNL     1     -10.059  40.858  14.217  0.00  0.00    +0.000 A 
ATOM     22  C   UNL     1     -11.340  40.745  14.753  0.00  0.00    +0.000 A 
ATOM     23  C   UNL     1     -12.352  40.126  14.021  0.00  0.00    +0.000 A 
ATOM     24  C   UNL     1     -12.083  39.619  12.752  0.00  0.00    +0.000 A 
ENDBRANCH  11  19
BRANCH   9  25
ATOM     25  O   UNL     1     -16.871  43.348   7.008  0.00  0.00    +0.000 OA
ATOM     26  H   UNL     1     -17.092  44.180   7.460  0.00  0.00    +0.000 HD
ENDBRANCH   9  25
TORSDOF 3
ENDMDL
MODEL 9
REMARK VINA RESULT:      -6.6      4.361      7.223
REMARK  Name = Lobelin.pdbqt.pdb
REMARK  3 active torsions:
REMARK  status: ('A' for Active; 'I' for Inactive)
REMARK    1  A    between atoms: C_9  and  O_10
REMARK    2  A    between atoms: C_9  and  C_12
REMARK    3  A    between atoms: C_19  and  C_21
REMARK                            x       y       z     vdW  Elec       q    Type
REMARK                         _______ _______ _______ _____ _____    ______ ____
ROOT
ATOM      1  N   UNL     1      10.892  29.479  17.447  0.00  0.00    +0.000 N 
ATOM      2  C   UNL     1      10.691  29.250  16.020  0.00  0.00    +0.000 C 
ATOM      3  C   UNL     1      12.114  30.123  17.920  0.00  0.00    +0.000 C 
ATOM      4  C   UNL     1      11.741  29.737  15.182  0.00  0.00    +0.000 C 
ATOM      5  C   UNL     1      13.020  30.519  16.889  0.00  0.00    +0.000 C 
ATOM      6  C   UNL     1      13.071  30.440  15.375  0.00  0.00    +0.000 C 
ATOM      7  C   UNL     1       9.942  28.957  18.404  0.00  0.00    +0.000 C 
ATOM      8  C   UNL     1       9.535  28.605  15.504  0.00  0.00    +0.000 C 
ATOM      9  C   UNL     1       8.366  27.982  14.994  0.00  0.00    +0.000 C 
ATOM     10  C   UNL     1      12.371  30.345  19.297  0.00  0.00    +0.000 C 
ATOM     11  C   UNL     1      12.615  30.600  20.692  0.00  0.00    +0.000 C 
ATOM     12  O   UNL     1      12.907  31.733  21.049  0.00  0.00    +0.000 OA
ENDROOT
BRANCH   9  13
ATOM     13  C   UNL     1       7.015  28.527  15.134  0.00  0.00    +0.000 A 
ATOM     14  C   UNL     1       6.798  29.741  15.791  0.00  0.00    +0.000 A 
ATOM     15  C   UNL     1       5.511  30.262  15.924  0.00  0.00    +0.000 A 
ATOM     16  C   UNL     1       4.425  29.569  15.399  0.00  0.00    +0.000 A 
ATOM     17  C   UNL     1       4.624  28.358  14.744  0.00  0.00    +0.000 A 
ATOM     18  C   UNL     1       5.913  27.843  14.614  0.00  0.00    +0.000 A 
ENDBRANCH   9  13
BRANCH  11  19
ATOM     19  C   UNL     1      12.514  29.478  21.641  0.00  0.00    +0.000 A 
ATOM     20  C   UNL     1      11.526  29.449  22.625  0.00  0.00    +0.000 A 
ATOM     21  C   UNL     1      11.452  28.371  23.503  0.00  0.00    +0.000 A 
ATOM     22  C   UNL     1      12.364  27.323  23.397  0.00  0.00    +0.000 A 
ATOM     23  C   UNL     1      13.349  27.350  22.411  0.00  0.00    +0.000 A 
ATOM     24  C   UNL     1      13.424  28.427  21.531  0.00  0.00    +0.000 A 
ENDBRANCH  11  19
BRANCH   9  25
ATOM     25  O   UNL     1       8.489  26.791  14.315  0.00  0.00    +0.000 OA
ATOM     26  H   UNL     1       8.643  26.929  13.365  0.00  0.00    +0.000 HD
ENDBRANCH   9  25
TORSDOF 3
ENDMDL
