MODEL 1
REMARK VINA RESULT:      -6.3      0.000      0.000
REMARK  Name = LUCANTHONE.pdbqt.pdb
REMARK  5 active torsions:
REMARK  status: ('A' for Active; 'I' for Inactive)
REMARK    1  A    between atoms: C_3  and  N_17
REMARK    2  A    between atoms: N_17  and  C_19
REMARK    3  A    between atoms: C_20  and  N_21
REMARK    4  A    between atoms: N_21  and  C_22
REMARK    5  A    between atoms: N_21  and  C_24
REMARK                            x       y       z     vdW  Elec       q    Type
REMARK                         _______ _______ _______ _____ _____    ______ ____
ROOT
ATOM      1  S   UNL     1      10.849  34.535  17.278  0.00  0.00    +0.000 S 
ATOM      2  O   UNL     1       6.696  34.804  16.061  0.00  0.00    +0.000 OA
ATOM      3  C   UNL     1       7.695  32.193  15.994  0.00  0.00    +0.000 A 
ATOM      4  C   UNL     1       8.503  33.318  16.320  0.00  0.00    +0.000 A 
ATOM      5  C   UNL     1       9.816  33.146  16.808  0.00  0.00    +0.000 A 
ATOM      6  C   UNL     1      10.308  31.827  16.954  0.00  0.00    +0.000 A 
ATOM      7  C   UNL     1       7.917  34.679  16.150  0.00  0.00    +0.000 A 
ATOM      8  C   UNL     1       8.242  30.912  16.132  0.00  0.00    +0.000 A 
ATOM      9  C   UNL     1       8.752  35.884  16.054  0.00  0.00    +0.000 A 
ATOM     10  C   UNL     1       9.525  30.727  16.618  0.00  0.00    +0.000 A 
ATOM     11  C   UNL     1      10.066  35.906  16.498  0.00  0.00    +0.000 A 
ATOM     12  C   UNL     1      11.694  31.503  17.466  0.00  0.00    +0.000 C 
ATOM     13  C   UNL     1       8.174  37.034  15.504  0.00  0.00    +0.000 A 
ATOM     14  C   UNL     1      10.799  37.089  16.380  0.00  0.00    +0.000 A 
ATOM     15  C   UNL     1       8.914  38.205  15.384  0.00  0.00    +0.000 A 
ATOM     16  C   UNL     1      10.233  38.233  15.821  0.00  0.00    +0.000 A 
ENDROOT
BRANCH   3  17
ATOM     17  N   UNL     1       6.422  32.337  15.384  0.00  0.00    +0.000 N 
ATOM     18  H   UNL     1       6.134  33.327  15.348  0.00  0.00    +0.000 HD
BRANCH  17  19
ATOM     19  C   UNL     1       5.376  31.370  15.670  0.00  0.00    +0.000 C 
ATOM     20  C   UNL     1       4.274  30.350  15.974  0.00  0.00    +0.000 C 
BRANCH  20  21
ATOM     21  N   UNL     1       3.231  29.383  16.274  0.00  0.00    +0.000 N 
BRANCH  21  22
ATOM     22  C   UNL     1       3.283  28.359  15.246  0.00  0.00    +0.000 C 
ATOM     23  C   UNL     1       3.351  27.273  14.168  0.00  0.00    +0.000 C 
ENDBRANCH  21  22
BRANCH  21  24
ATOM     24  C   UNL     1       1.959  30.062  16.112  0.00  0.00    +0.000 C 
ATOM     25  C   UNL     1       0.609  30.768  15.958  0.00  0.00    +0.000 C 
ENDBRANCH  21  24
ENDBRANCH  20  21
ENDBRANCH  17  19
ENDBRANCH   3  17
TORSDOF 5
ENDMDL
MODEL 2
REMARK VINA RESULT:      -6.2     23.257     26.002
REMARK  Name = LUCANTHONE.pdbqt.pdb
REMARK  5 active torsions:
REMARK  status: ('A' for Active; 'I' for Inactive)
REMARK    1  A    between atoms: C_3  and  N_17
REMARK    2  A    between atoms: N_17  and  C_19
REMARK    3  A    between atoms: C_20  and  N_21
REMARK    4  A    between atoms: N_21  and  C_22
REMARK    5  A    between atoms: N_21  and  C_24
REMARK                            x       y       z     vdW  Elec       q    Type
REMARK                         _______ _______ _______ _____ _____    ______ ____
ROOT
ATOM      1  S   UNL     1     -19.135  27.383  19.591  0.00  0.00    +0.000 S 
ATOM      2  O   UNL     1     -15.007  28.304  20.546  0.00  0.00    +0.000 OA
ATOM      3  C   UNL     1     -16.747  28.688  22.702  0.00  0.00    +0.000 A 
ATOM      4  C   UNL     1     -17.198  28.305  21.407  0.00  0.00    +0.000 A 
ATOM      5  C   UNL     1     -18.538  27.920  21.196  0.00  0.00    +0.000 A 
ATOM      6  C   UNL     1     -19.422  27.933  22.302  0.00  0.00    +0.000 A 
ATOM      7  C   UNL     1     -16.210  28.305  20.289  0.00  0.00    +0.000 A 
ATOM      8  C   UNL     1     -17.670  28.709  23.754  0.00  0.00    +0.000 A 
ATOM      9  C   UNL     1     -16.625  28.337  18.880  0.00  0.00    +0.000 A 
ATOM     10  C   UNL     1     -18.986  28.324  23.564  0.00  0.00    +0.000 A 
ATOM     11  C   UNL     1     -17.903  27.976  18.482  0.00  0.00    +0.000 A 
ATOM     12  C   UNL     1     -20.881  27.543  22.212  0.00  0.00    +0.000 C 
ATOM     13  C   UNL     1     -15.676  28.735  17.932  0.00  0.00    +0.000 A 
ATOM     14  C   UNL     1     -18.226  28.024  17.123  0.00  0.00    +0.000 A 
ATOM     15  C   UNL     1     -16.008  28.787  16.582  0.00  0.00    +0.000 A 
ATOM     16  C   UNL     1     -17.290  28.433  16.176  0.00  0.00    +0.000 A 
ENDROOT
BRANCH   3  17
ATOM     17  N   UNL     1     -15.441  29.199  22.919  0.00  0.00    +0.000 N 
ATOM     18  H   UNL     1     -14.872  28.548  23.480  0.00  0.00    +0.000 HD
BRANCH  17  19
ATOM     19  C   UNL     1     -15.263  30.615  23.194  0.00  0.00    +0.000 C 
ATOM     20  C   UNL     1     -15.077  32.108  23.485  0.00  0.00    +0.000 C 
BRANCH  20  21
ATOM     21  N   UNL     1     -14.912  33.526  23.761  0.00  0.00    +0.000 N 
BRANCH  21  22
ATOM     22  C   UNL     1     -13.951  33.646  24.842  0.00  0.00    +0.000 C 
ATOM     23  C   UNL     1     -12.945  33.786  25.987  0.00  0.00    +0.000 C 
ENDBRANCH  21  22
BRANCH  21  24
ATOM     24  C   UNL     1     -16.177  34.010  24.279  0.00  0.00    +0.000 C 
ATOM     25  C   UNL     1     -17.509  34.540  24.818  0.00  0.00    +0.000 C 
ENDBRANCH  21  24
ENDBRANCH  20  21
ENDBRANCH  17  19
ENDBRANCH   3  17
TORSDOF 5
ENDMDL
MODEL 3
REMARK VINA RESULT:      -5.8     22.900     25.167
REMARK  Name = LUCANTHONE.pdbqt.pdb
REMARK  5 active torsions:
REMARK  status: ('A' for Active; 'I' for Inactive)
REMARK    1  A    between atoms: C_3  and  N_17
REMARK    2  A    between atoms: N_17  and  C_19
REMARK    3  A    between atoms: C_20  and  N_21
REMARK    4  A    between atoms: N_21  and  C_22
REMARK    5  A    between atoms: N_21  and  C_24
REMARK                            x       y       z     vdW  Elec       q    Type
REMARK                         _______ _______ _______ _____ _____    ______ ____
ROOT
ATOM      1  S   UNL     1      18.407  41.784  -8.060  0.00  0.00    +0.000 S 
ATOM      2  O   UNL     1      18.847  42.307  -3.779  0.00  0.00    +0.000 OA
ATOM      3  C   UNL     1      19.984  39.931  -4.720  0.00  0.00    +0.000 A 
ATOM      4  C   UNL     1      19.268  40.828  -5.561  0.00  0.00    +0.000 A 
ATOM      5  C   UNL     1      19.256  40.648  -6.960  0.00  0.00    +0.000 A 
ATOM      6  C   UNL     1      19.965  39.550  -7.501  0.00  0.00    +0.000 A 
ATOM      7  C   UNL     1      18.550  41.970  -4.924  0.00  0.00    +0.000 A 
ATOM      8  C   UNL     1      20.646  38.846  -5.305  0.00  0.00    +0.000 A 
ATOM      9  C   UNL     1      17.471  42.695  -5.609  0.00  0.00    +0.000 A 
ATOM     10  C   UNL     1      20.650  38.662  -6.677  0.00  0.00    +0.000 A 
ATOM     11  C   UNL     1      17.312  42.648  -6.986  0.00  0.00    +0.000 A 
ATOM     12  C   UNL     1      20.033  39.244  -8.981  0.00  0.00    +0.000 C 
ATOM     13  C   UNL     1      16.600  43.458  -4.823  0.00  0.00    +0.000 A 
ATOM     14  C   UNL     1      16.267  43.367  -7.570  0.00  0.00    +0.000 A 
ATOM     15  C   UNL     1      15.558  44.166  -5.413  0.00  0.00    +0.000 A 
ATOM     16  C   UNL     1      15.388  44.118  -6.792  0.00  0.00    +0.000 A 
ENDROOT
BRANCH   3  17
ATOM     17  N   UNL     1      19.911  40.013  -3.304  0.00  0.00    +0.000 N 
ATOM     18  H   UNL     1      20.455  40.812  -2.946  0.00  0.00    +0.000 HD
BRANCH  17  19
ATOM     19  C   UNL     1      19.955  38.795  -2.513  0.00  0.00    +0.000 C 
ATOM     20  C   UNL     1      20.002  37.511  -1.678  0.00  0.00    +0.000 C 
BRANCH  20  21
ATOM     21  N   UNL     1      20.058  36.296  -0.882  0.00  0.00    +0.000 N 
BRANCH  21  22
ATOM     22  C   UNL     1      18.697  35.969  -0.497  0.00  0.00    +0.000 C 
ATOM     23  C   UNL     1      17.257  35.628  -0.106  0.00  0.00    +0.000 C 
ENDBRANCH  21  22
BRANCH  21  24
ATOM     24  C   UNL     1      20.764  36.620   0.343  0.00  0.00    +0.000 C 
ATOM     25  C   UNL     1      21.516  36.981   1.629  0.00  0.00    +0.000 C 
ENDBRANCH  21  24
ENDBRANCH  20  21
ENDBRANCH  17  19
ENDBRANCH   3  17
TORSDOF 5
ENDMDL
MODEL 4
REMARK VINA RESULT:      -5.7     30.929     33.560
REMARK  Name = LUCANTHONE.pdbqt.pdb
REMARK  5 active torsions:
REMARK  status: ('A' for Active; 'I' for Inactive)
REMARK    1  A    between atoms: C_3  and  N_17
REMARK    2  A    between atoms: N_17  and  C_19
REMARK    3  A    between atoms: C_20  and  N_21
REMARK    4  A    between atoms: N_21  and  C_22
REMARK    5  A    between atoms: N_21  and  C_24
REMARK                            x       y       z     vdW  Elec       q    Type
REMARK                         _______ _______ _______ _____ _____    ______ ____
ROOT
ATOM      1  S   UNL     1       0.453  63.609  10.830  0.00  0.00    +0.000 S 
ATOM      2  O   UNL     1      -2.056  61.262   8.185  0.00  0.00    +0.000 OA
ATOM      3  C   UNL     1      -0.891  63.470   6.924  0.00  0.00    +0.000 A 
ATOM      4  C   UNL     1      -0.730  63.203   8.313  0.00  0.00    +0.000 A 
ATOM      5  C   UNL     1       0.184  63.947   9.088  0.00  0.00    +0.000 A 
ATOM      6  C   UNL     1       0.928  64.968   8.450  0.00  0.00    +0.000 A 
ATOM      7  C   UNL     1      -1.540  62.106   8.917  0.00  0.00    +0.000 A 
ATOM      8  C   UNL     1      -0.150  64.510   6.350  0.00  0.00    +0.000 A 
ATOM      9  C   UNL     1      -1.770  62.010  10.365  0.00  0.00    +0.000 A 
ATOM     10  C   UNL     1       0.758  65.242   7.097  0.00  0.00    +0.000 A 
ATOM     11  C   UNL     1      -0.961  62.663  11.283  0.00  0.00    +0.000 A 
ATOM     12  C   UNL     1       1.939  65.838   9.165  0.00  0.00    +0.000 C 
ATOM     13  C   UNL     1      -2.838  61.220  10.802  0.00  0.00    +0.000 A 
ATOM     14  C   UNL     1      -1.236  62.523  12.645  0.00  0.00    +0.000 A 
ATOM     15  C   UNL     1      -3.109  61.091  12.161  0.00  0.00    +0.000 A 
ATOM     16  C   UNL     1      -2.306  61.748  13.087  0.00  0.00    +0.000 A 
ENDROOT
BRANCH   3  17
ATOM     17  N   UNL     1      -1.890  62.826   6.148  0.00  0.00    +0.000 N 
ATOM     18  H   UNL     1      -1.534  61.955   5.726  0.00  0.00    +0.000 HD
BRANCH  17  19
ATOM     19  C   UNL     1      -2.785  63.624   5.327  0.00  0.00    +0.000 C 
ATOM     20  C   UNL     1      -3.726  64.466   4.460  0.00  0.00    +0.000 C 
BRANCH  20  21
ATOM     21  N   UNL     1      -4.611  65.272   3.635  0.00  0.00    +0.000 N 
BRANCH  21  22
ATOM     22  C   UNL     1      -5.943  64.708   3.752  0.00  0.00    +0.000 C 
ATOM     23  C   UNL     1      -7.343  64.099   3.872  0.00  0.00    +0.000 C 
ENDBRANCH  21  22
BRANCH  21  24
ATOM     24  C   UNL     1      -4.203  65.080   2.257  0.00  0.00    +0.000 C 
ATOM     25  C   UNL     1      -3.777  64.857   0.802  0.00  0.00    +0.000 C 
ENDBRANCH  21  24
ENDBRANCH  20  21
ENDBRANCH  17  19
ENDBRANCH   3  17
TORSDOF 5
ENDMDL
MODEL 5
REMARK VINA RESULT:      -5.6     17.338     21.028
REMARK  Name = LUCANTHONE.pdbqt.pdb
REMARK  5 active torsions:
REMARK  status: ('A' for Active; 'I' for Inactive)
REMARK    1  A    between atoms: C_3  and  N_17
REMARK    2  A    between atoms: N_17  and  C_19
REMARK    3  A    between atoms: C_20  and  N_21
REMARK    4  A    between atoms: N_21  and  C_22
REMARK    5  A    between atoms: N_21  and  C_24
REMARK                            x       y       z     vdW  Elec       q    Type
REMARK                         _______ _______ _______ _____ _____    ______ ____
ROOT
ATOM      1  S   UNL     1      -9.168  41.374  13.771  0.00  0.00    +0.000 S 
ATOM      2  O   UNL     1      -9.950  40.349   9.631  0.00  0.00    +0.000 OA
ATOM      3  C   UNL     1     -11.853  39.312  11.400  0.00  0.00    +0.000 A 
ATOM      4  C   UNL     1     -10.707  40.034  11.838  0.00  0.00    +0.000 A 
ATOM      5  C   UNL     1     -10.572  40.421  13.188  0.00  0.00    +0.000 A 
ATOM      6  C   UNL     1     -11.600  40.065  14.092  0.00  0.00    +0.000 A 
ATOM      7  C   UNL     1      -9.666  40.383  10.828  0.00  0.00    +0.000 A 
ATOM      8  C   UNL     1     -12.826  38.963  12.342  0.00  0.00    +0.000 A 
ATOM      9  C   UNL     1      -8.294  40.742  11.211  0.00  0.00    +0.000 A 
ATOM     10  C   UNL     1     -12.712  39.345  13.669  0.00  0.00    +0.000 A 
ATOM     11  C   UNL     1      -7.975  41.161  12.494  0.00  0.00    +0.000 A 
ATOM     12  C   UNL     1     -11.580  40.418  15.564  0.00  0.00    +0.000 C 
ATOM     13  C   UNL     1      -7.302  40.660  10.227  0.00  0.00    +0.000 A 
ATOM     14  C   UNL     1      -6.649  41.491  12.786  0.00  0.00    +0.000 A 
ATOM     15  C   UNL     1      -5.983  40.984  10.529  0.00  0.00    +0.000 A 
ATOM     16  C   UNL     1      -5.654  41.399  11.815  0.00  0.00    +0.000 A 
ENDROOT
BRANCH   3  17
ATOM     17  N   UNL     1     -11.956  38.801  10.079  0.00  0.00    +0.000 N 
ATOM     18  H   UNL     1     -11.049  38.842   9.590  0.00  0.00    +0.000 HD
BRANCH  17  19
ATOM     19  C   UNL     1     -13.135  39.103   9.285  0.00  0.00    +0.000 C 
ATOM     20  C   UNL     1     -14.376  39.424   8.446  0.00  0.00    +0.000 C 
BRANCH  20  21
ATOM     21  N   UNL     1     -15.557  39.737   7.657  0.00  0.00    +0.000 N 
BRANCH  21  22
ATOM     22  C   UNL     1     -15.792  38.614   6.768  0.00  0.00    +0.000 C 
ATOM     23  C   UNL     1     -16.031  37.436   5.820  0.00  0.00    +0.000 C 
ENDBRANCH  21  22
BRANCH  21  24
ATOM     24  C   UNL     1     -15.217  40.866   6.812  0.00  0.00    +0.000 C 
ATOM     25  C   UNL     1     -14.843  42.048   5.912  0.00  0.00    +0.000 C 
ENDBRANCH  21  24
ENDBRANCH  20  21
ENDBRANCH  17  19
ENDBRANCH   3  17
TORSDOF 5
ENDMDL
MODEL 6
REMARK VINA RESULT:      -5.4     15.028     18.899
REMARK  Name = LUCANTHONE.pdbqt.pdb
REMARK  5 active torsions:
REMARK  status: ('A' for Active; 'I' for Inactive)
REMARK    1  A    between atoms: C_3  and  N_17
REMARK    2  A    between atoms: N_17  and  C_19
REMARK    3  A    between atoms: C_20  and  N_21
REMARK    4  A    between atoms: N_21  and  C_22
REMARK    5  A    between atoms: N_21  and  C_24
REMARK                            x       y       z     vdW  Elec       q    Type
REMARK                         _______ _______ _______ _____ _____    ______ ____
ROOT
ATOM      1  S   UNL     1      11.778  45.624   9.762  0.00  0.00    +0.000 S 
ATOM      2  O   UNL     1      14.964  48.541  10.133  0.00  0.00    +0.000 OA
ATOM      3  C   UNL     1      15.888  45.976   9.510  0.00  0.00    +0.000 A 
ATOM      4  C   UNL     1      14.515  46.261   9.755  0.00  0.00    +0.000 A 
ATOM      5  C   UNL     1      13.523  45.288   9.513  0.00  0.00    +0.000 A 
ATOM      6  C   UNL     1      13.930  44.022   9.030  0.00  0.00    +0.000 A 
ATOM      7  C   UNL     1      14.157  47.620  10.255  0.00  0.00    +0.000 A 
ATOM      8  C   UNL     1      16.237  44.698   9.059  0.00  0.00    +0.000 A 
ATOM      9  C   UNL     1      12.877  47.896  10.922  0.00  0.00    +0.000 A 
ATOM     10  C   UNL     1      15.273  43.736   8.808  0.00  0.00    +0.000 A 
ATOM     11  C   UNL     1      11.782  47.056  10.785  0.00  0.00    +0.000 A 
ATOM     12  C   UNL     1      12.969  42.892   8.730  0.00  0.00    +0.000 C 
ATOM     13  C   UNL     1      12.786  49.054  11.700  0.00  0.00    +0.000 A 
ATOM     14  C   UNL     1      10.594  47.384  11.443  0.00  0.00    +0.000 A 
ATOM     15  C   UNL     1      11.601  49.369  12.358  0.00  0.00    +0.000 A 
ATOM     16  C   UNL     1      10.500  48.529  12.231  0.00  0.00    +0.000 A 
ENDROOT
BRANCH   3  17
ATOM     17  N   UNL     1      16.917  46.888   9.863  0.00  0.00    +0.000 N 
ATOM     18  H   UNL     1      16.606  47.536  10.602  0.00  0.00    +0.000 HD
BRANCH  17  19
ATOM     19  C   UNL     1      17.763  47.450   8.824  0.00  0.00    +0.000 C 
ATOM     20  C   UNL     1      18.655  48.041   7.727  0.00  0.00    +0.000 C 
BRANCH  20  21
ATOM     21  N   UNL     1      19.508  48.593   6.687  0.00  0.00    +0.000 N 
BRANCH  21  22
ATOM     22  C   UNL     1      18.694  48.742   5.495  0.00  0.00    +0.000 C 
ATOM     23  C   UNL     1      17.846  48.896   4.229  0.00  0.00    +0.000 C 
ENDBRANCH  21  22
BRANCH  21  24
ATOM     24  C   UNL     1      20.508  47.588   6.378  0.00  0.00    +0.000 C 
ATOM     25  C   UNL     1      21.571  46.528   6.072  0.00  0.00    +0.000 C 
ENDBRANCH  21  24
ENDBRANCH  20  21
ENDBRANCH  17  19
ENDBRANCH   3  17
TORSDOF 5
ENDMDL
MODEL 7
REMARK VINA RESULT:      -5.3     13.377     17.424
REMARK  Name = LUCANTHONE.pdbqt.pdb
REMARK  5 active torsions:
REMARK  status: ('A' for Active; 'I' for Inactive)
REMARK    1  A    between atoms: C_3  and  N_17
REMARK    2  A    between atoms: N_17  and  C_19
REMARK    3  A    between atoms: C_20  and  N_21
REMARK    4  A    between atoms: N_21  and  C_22
REMARK    5  A    between atoms: N_21  and  C_24
REMARK                            x       y       z     vdW  Elec       q    Type
REMARK                         _______ _______ _______ _____ _____    ______ ____
ROOT
ATOM      1  S   UNL     1      -8.469  41.426  12.682  0.00  0.00    +0.000 S 
ATOM      2  O   UNL     1      -7.273  41.648  16.843  0.00  0.00    +0.000 OA
ATOM      3  C   UNL     1      -5.113  41.349  15.092  0.00  0.00    +0.000 A 
ATOM      4  C   UNL     1      -6.467  41.346  14.652  0.00  0.00    +0.000 A 
ATOM      5  C   UNL     1      -6.777  41.377  13.276  0.00  0.00    +0.000 A 
ATOM      6  C   UNL     1      -5.709  41.400  12.349  0.00  0.00    +0.000 A 
ATOM      7  C   UNL     1      -7.542  41.331  15.685  0.00  0.00    +0.000 A 
ATOM      8  C   UNL     1      -4.096  41.344  14.131  0.00  0.00    +0.000 A 
ATOM      9  C   UNL     1      -8.918  40.918  15.375  0.00  0.00    +0.000 A 
ATOM     10  C   UNL     1      -4.385  41.384  12.777  0.00  0.00    +0.000 A 
ATOM     11  C   UNL     1      -9.405  40.900  14.077  0.00  0.00    +0.000 A 
ATOM     12  C   UNL     1      -5.903  41.434  10.849  0.00  0.00    +0.000 C 
ATOM     13  C   UNL     1      -9.742  40.550  16.444  0.00  0.00    +0.000 A 
ATOM     14  C   UNL     1     -10.726  40.502  13.857  0.00  0.00    +0.000 A 
ATOM     15  C   UNL     1     -11.055  40.148  16.214  0.00  0.00    +0.000 A 
ATOM     16  C   UNL     1     -11.548  40.121  14.915  0.00  0.00    +0.000 A 
ENDROOT
BRANCH   3  17
ATOM     17  N   UNL     1      -4.770  41.191  16.460  0.00  0.00    +0.000 N 
ATOM     18  H   UNL     1      -5.547  41.475  17.076  0.00  0.00    +0.000 HD
BRANCH  17  19
ATOM     19  C   UNL     1      -3.431  41.535  16.907  0.00  0.00    +0.000 C 
ATOM     20  C   UNL     1      -2.018  41.897  17.377  0.00  0.00    +0.000 C 
BRANCH  20  21
ATOM     21  N   UNL     1      -0.674  42.230  17.820  0.00  0.00    +0.000 N 
BRANCH  21  22
ATOM     22  C   UNL     1      -0.450  43.629  17.505  0.00  0.00    +0.000 C 
ATOM     23  C   UNL     1      -0.210  45.101  17.160  0.00  0.00    +0.000 C 
ENDBRANCH  21  22
BRANCH  21  24
ATOM     24  C   UNL     1       0.247  41.471  16.995  0.00  0.00    +0.000 C 
ATOM     25  C   UNL     1       1.225  40.658  16.141  0.00  0.00    +0.000 C 
ENDBRANCH  21  24
ENDBRANCH  20  21
ENDBRANCH  17  19
ENDBRANCH   3  17
TORSDOF 5
ENDMDL
MODEL 8
REMARK VINA RESULT:      -5.2     14.203     18.247
REMARK  Name = LUCANTHONE.pdbqt.pdb
REMARK  5 active torsions:
REMARK  status: ('A' for Active; 'I' for Inactive)
REMARK    1  A    between atoms: C_3  and  N_17
REMARK    2  A    between atoms: N_17  and  C_19
REMARK    3  A    between atoms: C_20  and  N_21
REMARK    4  A    between atoms: N_21  and  C_22
REMARK    5  A    between atoms: N_21  and  C_24
REMARK                            x       y       z     vdW  Elec       q    Type
REMARK                         _______ _______ _______ _____ _____    ______ ____
ROOT
ATOM      1  S   UNL     1      -9.549  40.775  11.813  0.00  0.00    +0.000 S 
ATOM      2  O   UNL     1      -8.857  41.721  15.987  0.00  0.00    +0.000 OA
ATOM      3  C   UNL     1      -6.494  41.420  14.521  0.00  0.00    +0.000 A 
ATOM      4  C   UNL     1      -7.783  41.203  13.957  0.00  0.00    +0.000 A 
ATOM      5  C   UNL     1      -7.938  41.002  12.570  0.00  0.00    +0.000 A 
ATOM      6  C   UNL     1      -6.779  41.013  11.758  0.00  0.00    +0.000 A 
ATOM      7  C   UNL     1      -8.962  41.214  14.871  0.00  0.00    +0.000 A 
ATOM      8  C   UNL     1      -5.379  41.393  13.676  0.00  0.00    +0.000 A 
ATOM      9  C   UNL     1     -10.247  40.610  14.496  0.00  0.00    +0.000 A 
ATOM     10  C   UNL     1      -5.517  41.206  12.311  0.00  0.00    +0.000 A 
ATOM     11  C   UNL     1     -10.581  40.352  13.175  0.00  0.00    +0.000 A 
ATOM     12  C   UNL     1      -6.805  40.810  10.259  0.00  0.00    +0.000 C 
ATOM     13  C   UNL     1     -11.148  40.307  15.524  0.00  0.00    +0.000 A 
ATOM     14  C   UNL     1     -11.824  39.781  12.891  0.00  0.00    +0.000 A 
ATOM     15  C   UNL     1     -12.380  39.731  15.232  0.00  0.00    +0.000 A 
ATOM     16  C   UNL     1     -12.719  39.464  13.911  0.00  0.00    +0.000 A 
ENDROOT
BRANCH   3  17
ATOM     17  N   UNL     1      -6.294  41.499  15.925  0.00  0.00    +0.000 N 
ATOM     18  H   UNL     1      -7.088  41.963  16.391  0.00  0.00    +0.000 HD
BRANCH  17  19
ATOM     19  C   UNL     1      -4.972  41.803  16.444  0.00  0.00    +0.000 C 
ATOM     20  C   UNL     1      -3.578  42.125  16.992  0.00  0.00    +0.000 C 
BRANCH  20  21
ATOM     21  N   UNL     1      -2.257  42.442  17.511  0.00  0.00    +0.000 N 
BRANCH  21  22
ATOM     22  C   UNL     1      -1.340  41.441  16.998  0.00  0.00    +0.000 C 
ATOM     23  C   UNL     1      -0.379  40.375  16.466  0.00  0.00    +0.000 C 
ENDBRANCH  21  22
BRANCH  21  24
ATOM     24  C   UNL     1      -2.307  42.255  18.948  0.00  0.00    +0.000 C 
ATOM     25  C   UNL     1      -2.347  42.074  20.469  0.00  0.00    +0.000 C 
ENDBRANCH  21  24
ENDBRANCH  20  21
ENDBRANCH  17  19
ENDBRANCH   3  17
TORSDOF 5
ENDMDL
MODEL 9
REMARK VINA RESULT:      -5.1     25.400     27.602
REMARK  Name = LUCANTHONE.pdbqt.pdb
REMARK  5 active torsions:
REMARK  status: ('A' for Active; 'I' for Inactive)
REMARK    1  A    between atoms: C_3  and  N_17
REMARK    2  A    between atoms: N_17  and  C_19
REMARK    3  A    between atoms: C_20  and  N_21
REMARK    4  A    between atoms: N_21  and  C_22
REMARK    5  A    between atoms: N_21  and  C_24
REMARK                            x       y       z     vdW  Elec       q    Type
REMARK                         _______ _______ _______ _____ _____    ______ ____
ROOT
ATOM      1  S   UNL     1       4.711  59.161  18.712  0.00  0.00    +0.000 S 
ATOM      2  O   UNL     1       2.334  62.037  16.503  0.00  0.00    +0.000 OA
ATOM      3  C   UNL     1       0.992  59.628  16.971  0.00  0.00    +0.000 A 
ATOM      4  C   UNL     1       2.345  59.843  17.356  0.00  0.00    +0.000 A 
ATOM      5  C   UNL     1       3.022  58.905  18.164  0.00  0.00    +0.000 A 
ATOM      6  C   UNL     1       2.322  57.744  18.571  0.00  0.00    +0.000 A 
ATOM      7  C   UNL     1       3.018  61.093  16.898  0.00  0.00    +0.000 A 
ATOM      8  C   UNL     1       0.357  58.450  17.379  0.00  0.00    +0.000 A 
ATOM      9  C   UNL     1       4.480  61.230  16.874  0.00  0.00    +0.000 A 
ATOM     10  C   UNL     1       1.005  57.525  18.180  0.00  0.00    +0.000 A 
ATOM     11  C   UNL     1       5.309  60.404  17.618  0.00  0.00    +0.000 A 
ATOM     12  C   UNL     1       2.930  56.662  19.436  0.00  0.00    +0.000 C 
ATOM     13  C   UNL     1       5.025  62.242  16.076  0.00  0.00    +0.000 A 
ATOM     14  C   UNL     1       6.691  60.595  17.551  0.00  0.00    +0.000 A 
ATOM     15  C   UNL     1       6.403  62.421  16.009  0.00  0.00    +0.000 A 
ATOM     16  C   UNL     1       7.240  61.592  16.747  0.00  0.00    +0.000 A 
ENDROOT
BRANCH   3  17
ATOM     17  N   UNL     1       0.328  60.489  16.058  0.00  0.00    +0.000 N 
ATOM     18  H   UNL     1       0.477  61.480  16.302  0.00  0.00    +0.000 HD
BRANCH  17  19
ATOM     19  C   UNL     1      -0.995  60.134  15.572  0.00  0.00    +0.000 C 
ATOM     20  C   UNL     1      -2.388  59.760  15.057  0.00  0.00    +0.000 C 
BRANCH  20  21
ATOM     21  N   UNL     1      -3.709  59.411  14.559  0.00  0.00    +0.000 N 
BRANCH  21  22
ATOM     22  C   UNL     1      -3.918  58.002  14.840  0.00  0.00    +0.000 C 
ATOM     23  C   UNL     1      -4.147  56.519  15.146  0.00  0.00    +0.000 C 
ENDBRANCH  21  22
BRANCH  21  24
ATOM     24  C   UNL     1      -3.669  59.541  13.115  0.00  0.00    +0.000 C 
ATOM     25  C   UNL     1      -3.630  59.658  11.588  0.00  0.00    +0.000 C 
ENDBRANCH  21  24
ENDBRANCH  20  21
ENDBRANCH  17  19
ENDBRANCH   3  17
TORSDOF 5
ENDMDL
