MODEL 1
REMARK VINA RESULT:      -5.5      0.000      0.000
REMARK  Name = MeIQx.pdbqt.pdb
REMARK  0 active torsions:
REMARK  status: ('A' for Active; 'I' for Inactive)
REMARK                            x       y       z     vdW  Elec       q    Type
REMARK                         _______ _______ _______ _____ _____    ______ ____
ROOT
ATOM      1  N   UNL     1       8.437  38.229  15.173  0.00  0.00    +0.000 N 
ATOM      2  N   UNL     1       9.048  39.808  16.600  0.00  0.00    +0.000 NA
ATOM      3  N   UNL     1      11.831  40.180  17.460  0.00  0.00    +0.000 NA
ATOM      4  N   UNL     1      13.769  38.400  16.375  0.00  0.00    +0.000 NA
ATOM      5  C   UNL     1       9.790  38.067  15.310  0.00  0.00    +0.000 A 
ATOM      6  C   UNL     1      10.154  39.068  16.210  0.00  0.00    +0.000 A 
ATOM      7  C   UNL     1      11.517  39.191  16.581  0.00  0.00    +0.000 A 
ATOM      8  C   UNL     1      12.470  38.298  16.033  0.00  0.00    +0.000 A 
ATOM      9  C   UNL     1       8.021  39.284  15.969  0.00  0.00    +0.000 A 
ATOM     10  C   UNL     1      10.708  37.175  14.751  0.00  0.00    +0.000 A 
ATOM     11  C   UNL     1      12.042  37.324  15.142  0.00  0.00    +0.000 A 
ATOM     12  C   UNL     1       7.599  37.449  14.309  0.00  0.00    +0.000 C 
ATOM     13  C   UNL     1      13.136  40.265  17.789  0.00  0.00    +0.000 A 
ATOM     14  C   UNL     1      14.081  39.393  17.257  0.00  0.00    +0.000 A 
ATOM     15  C   UNL     1      13.566  41.335  18.753  0.00  0.00    +0.000 C 
ATOM     16  N   UNL     1       6.740  39.704  16.070  0.00  0.00    +0.000 N 
ATOM     17  H   UNL     1       6.562  40.601  16.513  0.00  0.00    +0.000 HD
ATOM     18  H   UNL     1       6.038  39.404  15.397  0.00  0.00    +0.000 HD
ENDROOT
TORSDOF 0
ENDMDL
MODEL 2
REMARK VINA RESULT:      -5.5      8.943     11.197
REMARK  Name = MeIQx.pdbqt.pdb
REMARK  0 active torsions:
REMARK  status: ('A' for Active; 'I' for Inactive)
REMARK                            x       y       z     vdW  Elec       q    Type
REMARK                         _______ _______ _______ _____ _____    ______ ____
ROOT
ATOM      1  N   UNL     1      -1.337  40.400  16.285  0.00  0.00    +0.000 N 
ATOM      2  N   UNL     1       0.713  40.631  15.480  0.00  0.00    +0.000 NA
ATOM      3  N   UNL     1       2.423  42.929  16.128  0.00  0.00    +0.000 NA
ATOM      4  N   UNL     1       1.335  44.901  17.868  0.00  0.00    +0.000 NA
ATOM      5  C   UNL     1      -0.888  41.579  16.815  0.00  0.00    +0.000 A 
ATOM      6  C   UNL     1       0.401  41.707  16.298  0.00  0.00    +0.000 A 
ATOM      7  C   UNL     1       1.172  42.842  16.653  0.00  0.00    +0.000 A 
ATOM      8  C   UNL     1       0.617  43.816  17.520  0.00  0.00    +0.000 A 
ATOM      9  C   UNL     1      -0.348  39.856  15.481  0.00  0.00    +0.000 A 
ATOM     10  C   UNL     1      -1.459  42.521  17.674  0.00  0.00    +0.000 A 
ATOM     11  C   UNL     1      -0.671  43.629  18.001  0.00  0.00    +0.000 A 
ATOM     12  C   UNL     1      -2.615  39.809  16.559  0.00  0.00    +0.000 C 
ATOM     13  C   UNL     1       3.125  44.022  16.489  0.00  0.00    +0.000 A 
ATOM     14  C   UNL     1       2.590  44.985  17.339  0.00  0.00    +0.000 A 
ATOM     15  C   UNL     1       4.519  44.190  15.954  0.00  0.00    +0.000 C 
ATOM     16  N   UNL     1      -0.471  38.694  14.802  0.00  0.00    +0.000 N 
ATOM     17  H   UNL     1       0.366  38.278  14.406  0.00  0.00    +0.000 HD
ATOM     18  H   UNL     1      -1.222  38.041  15.015  0.00  0.00    +0.000 HD
ENDROOT
TORSDOF 0
ENDMDL
MODEL 3
REMARK VINA RESULT:      -5.1     17.766     20.900
REMARK  Name = MeIQx.pdbqt.pdb
REMARK  0 active torsions:
REMARK  status: ('A' for Active; 'I' for Inactive)
REMARK                            x       y       z     vdW  Elec       q    Type
REMARK                         _______ _______ _______ _____ _____    ______ ____
ROOT
ATOM      1  N   UNL     1     -11.790  39.980  14.233  0.00  0.00    +0.000 N 
ATOM      2  N   UNL     1      -9.770  40.770  14.679  0.00  0.00    +0.000 NA
ATOM      3  N   UNL     1      -7.650  40.944  12.655  0.00  0.00    +0.000 NA
ATOM      4  N   UNL     1      -8.288  40.040  10.033  0.00  0.00    +0.000 NA
ATOM      5  C   UNL     1     -11.113  39.892  13.046  0.00  0.00    +0.000 A 
ATOM      6  C   UNL     1      -9.847  40.392  13.347  0.00  0.00    +0.000 A 
ATOM      7  C   UNL     1      -8.871  40.448  12.320  0.00  0.00    +0.000 A 
ATOM      8  C   UNL     1      -9.203  39.995  11.020  0.00  0.00    +0.000 A 
ATOM      9  C   UNL     1     -10.949  40.509  15.199  0.00  0.00    +0.000 A 
ATOM     10  C   UNL     1     -11.470  39.441  11.773  0.00  0.00    +0.000 A 
ATOM     11  C   UNL     1     -10.482  39.508  10.786  0.00  0.00    +0.000 A 
ATOM     12  C   UNL     1     -13.164  39.617  14.425  0.00  0.00    +0.000 C 
ATOM     13  C   UNL     1      -6.748  40.980  11.652  0.00  0.00    +0.000 A 
ATOM     14  C   UNL     1      -7.064  40.537  10.371  0.00  0.00    +0.000 A 
ATOM     15  C   UNL     1      -5.375  41.518  11.940  0.00  0.00    +0.000 C 
ATOM     16  N   UNL     1     -11.304  40.723  16.485  0.00  0.00    +0.000 N 
ATOM     17  H   UNL     1     -10.695  41.295  17.063  0.00  0.00    +0.000 HD
ATOM     18  H   UNL     1     -12.282  40.707  16.766  0.00  0.00    +0.000 HD
ENDROOT
TORSDOF 0
ENDMDL
MODEL 4
REMARK VINA RESULT:      -5.1     26.557     28.676
REMARK  Name = MeIQx.pdbqt.pdb
REMARK  0 active torsions:
REMARK  status: ('A' for Active; 'I' for Inactive)
REMARK                            x       y       z     vdW  Elec       q    Type
REMARK                         _______ _______ _______ _____ _____    ______ ____
ROOT
ATOM      1  N   UNL     1     -15.961  28.684  22.226  0.00  0.00    +0.000 N 
ATOM      2  N   UNL     1     -14.201  29.848  22.897  0.00  0.00    +0.000 NA
ATOM      3  N   UNL     1     -14.408  32.587  23.934  0.00  0.00    +0.000 NA
ATOM      4  N   UNL     1     -17.012  33.730  24.054  0.00  0.00    +0.000 NA
ATOM      5  C   UNL     1     -16.474  29.888  22.629  0.00  0.00    +0.000 A 
ATOM      6  C   UNL     1     -15.353  30.605  23.046  0.00  0.00    +0.000 A 
ATOM      7  C   UNL     1     -15.527  31.923  23.537  0.00  0.00    +0.000 A 
ATOM      8  C   UNL     1     -16.828  32.479  23.591  0.00  0.00    +0.000 A 
ATOM      9  C   UNL     1     -14.586  28.695  22.397  0.00  0.00    +0.000 A 
ATOM     10  C   UNL     1     -17.770  30.409  22.673  0.00  0.00    +0.000 A 
ATOM     11  C   UNL     1     -17.903  31.713  23.161  0.00  0.00    +0.000 A 
ATOM     12  C   UNL     1     -16.738  27.579  21.745  0.00  0.00    +0.000 C 
ATOM     13  C   UNL     1     -14.614  33.838  24.395  0.00  0.00    +0.000 A 
ATOM     14  C   UNL     1     -15.888  34.394  24.451  0.00  0.00    +0.000 A 
ATOM     15  C   UNL     1     -13.429  34.637  24.857  0.00  0.00    +0.000 C 
ATOM     16  N   UNL     1     -13.772  27.661  22.090  0.00  0.00    +0.000 N 
ATOM     17  H   UNL     1     -12.816  27.684  22.433  0.00  0.00    +0.000 HD
ATOM     18  H   UNL     1     -14.150  26.732  21.916  0.00  0.00    +0.000 HD
ENDROOT
TORSDOF 0
ENDMDL
MODEL 5
REMARK VINA RESULT:      -5.0     21.257     23.364
REMARK  Name = MeIQx.pdbqt.pdb
REMARK  0 active torsions:
REMARK  status: ('A' for Active; 'I' for Inactive)
REMARK                            x       y       z     vdW  Elec       q    Type
REMARK                         _______ _______ _______ _____ _____    ______ ____
ROOT
ATOM      1  N   UNL     1       2.924  20.444   8.648  0.00  0.00    +0.000 N 
ATOM      2  N   UNL     1       0.733  20.336   8.949  0.00  0.00    +0.000 NA
ATOM      3  N   UNL     1      -1.188  20.586   6.743  0.00  0.00    +0.000 NA
ATOM      4  N   UNL     1      -0.118  20.983   4.136  0.00  0.00    +0.000 NA
ATOM      5  C   UNL     1       2.393  20.604   7.396  0.00  0.00    +0.000 A 
ATOM      6  C   UNL     1       1.016  20.534   7.607  0.00  0.00    +0.000 A 
ATOM      7  C   UNL     1       0.147  20.662   6.495  0.00  0.00    +0.000 A 
ATOM      8  C   UNL     1       0.693  20.859   5.203  0.00  0.00    +0.000 A 
ATOM      9  C   UNL     1       1.894  20.290   9.563  0.00  0.00    +0.000 A 
ATOM     10  C   UNL     1       2.961  20.794   6.134  0.00  0.00    +0.000 A 
ATOM     11  C   UNL     1       2.073  20.919   5.061  0.00  0.00    +0.000 A 
ATOM     12  C   UNL     1       4.326  20.403   8.948  0.00  0.00    +0.000 C 
ATOM     13  C   UNL     1      -1.983  20.714   5.661  0.00  0.00    +0.000 A 
ATOM     14  C   UNL     1      -1.456  20.908   4.387  0.00  0.00    +0.000 A 
ATOM     15  C   UNL     1      -3.472  20.638   5.850  0.00  0.00    +0.000 C 
ATOM     16  N   UNL     1       2.074  20.116  10.891  0.00  0.00    +0.000 N 
ATOM     17  H   UNL     1       1.280  19.814  11.448  0.00  0.00    +0.000 HD
ATOM     18  H   UNL     1       2.988  19.872  11.266  0.00  0.00    +0.000 HD
ENDROOT
TORSDOF 0
ENDMDL
MODEL 6
REMARK VINA RESULT:      -5.0     23.321     24.357
REMARK  Name = MeIQx.pdbqt.pdb
REMARK  0 active torsions:
REMARK  status: ('A' for Active; 'I' for Inactive)
REMARK                            x       y       z     vdW  Elec       q    Type
REMARK                         _______ _______ _______ _____ _____    ______ ____
ROOT
ATOM      1  N   UNL     1      -2.737  22.309   5.159  0.00  0.00    +0.000 N 
ATOM      2  N   UNL     1      -1.648  23.782   3.915  0.00  0.00    +0.000 NA
ATOM      3  N   UNL     1       0.467  23.014   2.029  0.00  0.00    +0.000 NA
ATOM      4  N   UNL     1       1.091  20.243   1.845  0.00  0.00    +0.000 NA
ATOM      5  C   UNL     1      -1.851  21.561   4.432  0.00  0.00    +0.000 A 
ATOM      6  C   UNL     1      -1.176  22.505   3.657  0.00  0.00    +0.000 A 
ATOM      7  C   UNL     1      -0.166  22.063   2.767  0.00  0.00    +0.000 A 
ATOM      8  C   UNL     1       0.134  20.681   2.685  0.00  0.00    +0.000 A 
ATOM      9  C   UNL     1      -2.586  23.646   4.826  0.00  0.00    +0.000 A 
ATOM     10  C   UNL     1      -1.578  20.192   4.371  0.00  0.00    +0.000 A 
ATOM     11  C   UNL     1      -0.574  19.793   3.483  0.00  0.00    +0.000 A 
ATOM     12  C   UNL     1      -3.695  21.779   6.085  0.00  0.00    +0.000 C 
ATOM     13  C   UNL     1       1.421  22.555   1.194  0.00  0.00    +0.000 A 
ATOM     14  C   UNL     1       1.724  21.200   1.107  0.00  0.00    +0.000 A 
ATOM     15  C   UNL     1       2.165  23.543   0.341  0.00  0.00    +0.000 C 
ATOM     16  N   UNL     1      -3.306  24.653   5.368  0.00  0.00    +0.000 N 
ATOM     17  H   UNL     1      -3.268  25.565   4.923  0.00  0.00    +0.000 HD
ATOM     18  H   UNL     1      -4.154  24.462   5.897  0.00  0.00    +0.000 HD
ENDROOT
TORSDOF 0
ENDMDL
MODEL 7
REMARK VINA RESULT:      -4.9     26.704     29.567
REMARK  Name = MeIQx.pdbqt.pdb
REMARK  0 active torsions:
REMARK  status: ('A' for Active; 'I' for Inactive)
REMARK                            x       y       z     vdW  Elec       q    Type
REMARK                         _______ _______ _______ _____ _____    ______ ____
ROOT
ATOM      1  N   UNL     1     -14.844  35.095  25.229  0.00  0.00    +0.000 N 
ATOM      2  N   UNL     1     -16.704  34.730  26.374  0.00  0.00    +0.000 NA
ATOM      3  N   UNL     1     -17.615  32.036  27.105  0.00  0.00    +0.000 NA
ATOM      4  N   UNL     1     -15.991  29.852  26.274  0.00  0.00    +0.000 NA
ATOM      5  C   UNL     1     -14.909  33.734  25.359  0.00  0.00    +0.000 A 
ATOM      6  C   UNL     1     -16.084  33.525  26.080  0.00  0.00    +0.000 A 
ATOM      7  C   UNL     1     -16.463  32.197  26.400  0.00  0.00    +0.000 A 
ATOM      8  C   UNL     1     -15.645  31.120  25.980  0.00  0.00    +0.000 A 
ATOM      9  C   UNL     1     -15.945  35.665  25.848  0.00  0.00    +0.000 A 
ATOM     10  C   UNL     1     -14.082  32.692  24.934  0.00  0.00    +0.000 A 
ATOM     11  C   UNL     1     -14.488  31.395  25.265  0.00  0.00    +0.000 A 
ATOM     12  C   UNL     1     -13.779  35.810  24.586  0.00  0.00    +0.000 C 
ATOM     13  C   UNL     1     -17.943  30.759  27.389  0.00  0.00    +0.000 A 
ATOM     14  C   UNL     1     -17.146  29.693  26.981  0.00  0.00    +0.000 A 
ATOM     15  C   UNL     1     -19.200  30.496  28.169  0.00  0.00    +0.000 C 
ATOM     16  N   UNL     1     -16.189  36.994  25.898  0.00  0.00    +0.000 N 
ATOM     17  H   UNL     1     -16.902  37.327  26.539  0.00  0.00    +0.000 HD
ATOM     18  H   UNL     1     -15.461  37.667  25.668  0.00  0.00    +0.000 HD
ENDROOT
TORSDOF 0
ENDMDL
MODEL 8
REMARK VINA RESULT:      -4.9     26.369     28.425
REMARK  Name = MeIQx.pdbqt.pdb
REMARK  0 active torsions:
REMARK  status: ('A' for Active; 'I' for Inactive)
REMARK                            x       y       z     vdW  Elec       q    Type
REMARK                         _______ _______ _______ _____ _____    ______ ____
ROOT
ATOM      1  N   UNL     1     -16.238  29.620  23.081  0.00  0.00    +0.000 N 
ATOM      2  N   UNL     1     -15.247  31.494  22.442  0.00  0.00    +0.000 NA
ATOM      3  N   UNL     1     -14.386  33.563  24.339  0.00  0.00    +0.000 NA
ATOM      4  N   UNL     1     -14.878  33.071  27.099  0.00  0.00    +0.000 NA
ATOM      5  C   UNL     1     -16.002  30.302  24.245  0.00  0.00    +0.000 A 
ATOM      6  C   UNL     1     -15.380  31.476  23.821  0.00  0.00    +0.000 A 
ATOM      7  C   UNL     1     -14.990  32.432  24.793  0.00  0.00    +0.000 A 
ATOM      8  C   UNL     1     -15.241  32.174  26.163  0.00  0.00    +0.000 A 
ATOM      9  C   UNL     1     -15.774  30.369  22.012  0.00  0.00    +0.000 A 
ATOM     10  C   UNL     1     -16.261  30.019  25.588  0.00  0.00    +0.000 A 
ATOM     11  C   UNL     1     -15.864  30.986  26.518  0.00  0.00    +0.000 A 
ATOM     12  C   UNL     1     -16.833  28.317  22.998  0.00  0.00    +0.000 C 
ATOM     13  C   UNL     1     -14.030  34.448  25.292  0.00  0.00    +0.000 A 
ATOM     14  C   UNL     1     -14.272  34.205  26.641  0.00  0.00    +0.000 A 
ATOM     15  C   UNL     1     -13.353  35.722  24.873  0.00  0.00    +0.000 C 
ATOM     16  N   UNL     1     -15.856  29.984  20.719  0.00  0.00    +0.000 N 
ATOM     17  H   UNL     1     -15.315  30.498  20.029  0.00  0.00    +0.000 HD
ATOM     18  H   UNL     1     -16.072  29.021  20.474  0.00  0.00    +0.000 HD
ENDROOT
TORSDOF 0
ENDMDL
MODEL 9
REMARK VINA RESULT:      -4.8     18.487     21.900
REMARK  Name = MeIQx.pdbqt.pdb
REMARK  0 active torsions:
REMARK  status: ('A' for Active; 'I' for Inactive)
REMARK                            x       y       z     vdW  Elec       q    Type
REMARK                         _______ _______ _______ _____ _____    ______ ____
ROOT
ATOM      1  N   UNL     1     -12.678  40.058   9.715  0.00  0.00    +0.000 N 
ATOM      2  N   UNL     1     -10.693  40.532   8.857  0.00  0.00    +0.000 NA
ATOM      3  N   UNL     1      -8.267  40.761  10.496  0.00  0.00    +0.000 NA
ATOM      4  N   UNL     1      -8.555  40.344  13.296  0.00  0.00    +0.000 NA
ATOM      5  C   UNL     1     -11.830  40.074  10.790  0.00  0.00    +0.000 A 
ATOM      6  C   UNL     1     -10.588  40.374  10.230  0.00  0.00    +0.000 A 
ATOM      7  C   UNL     1      -9.459  40.468  11.081  0.00  0.00    +0.000 A 
ATOM      8  C   UNL     1      -9.617  40.258  12.473  0.00  0.00    +0.000 A 
ATOM      9  C   UNL     1     -11.960  40.343   8.565  0.00  0.00    +0.000 A 
ATOM     10  C   UNL     1     -12.016  39.859  12.158  0.00  0.00    +0.000 A 
ATOM     11  C   UNL     1     -10.880  39.963  12.968  0.00  0.00    +0.000 A 
ATOM     12  C   UNL     1     -14.078  39.753   9.777  0.00  0.00    +0.000 C 
ATOM     13  C   UNL     1      -7.216  40.843  11.337  0.00  0.00    +0.000 A 
ATOM     14  C   UNL     1      -7.361  40.639  12.706  0.00  0.00    +0.000 A 
ATOM     15  C   UNL     1      -5.862  41.160  10.768  0.00  0.00    +0.000 C 
ATOM     16  N   UNL     1     -12.499  40.413   7.327  0.00  0.00    +0.000 N 
ATOM     17  H   UNL     1     -11.871  40.427   6.530  0.00  0.00    +0.000 HD
ATOM     18  H   UNL     1     -13.430  40.045   7.142  0.00  0.00    +0.000 HD
ENDROOT
TORSDOF 0
ENDMDL
