MODEL 1
REMARK VINA RESULT:      -8.1      0.000      0.000
REMARK  Name = Methotrexate.pdbqt.pdb
REMARK  9 active torsions:
REMARK  status: ('A' for Active; 'I' for Inactive)
REMARK    1  A    between atoms: C_1  and  N_22
REMARK    2  A    between atoms: C_2  and  C_9
REMARK    3  A    between atoms: CA_11  and  C_13
REMARK    4  A    between atoms: CA_11  and  CB_16
REMARK    5  A    between atoms: C_13  and  O_14
REMARK    6  A    between atoms: CG_17  and  CD_19
REMARK    7  A    between atoms: CD_19  and  OE1_20
REMARK    8  A    between atoms: N_22  and  C_24
REMARK    9  A    between atoms: C_24  and  C_31
REMARK                            x       y       z     vdW  Elec       q    Type
REMARK                         _______ _______ _______ _____ _____    ______ ____
ROOT
ATOM      1  C   UNL     1       7.691  32.429  16.081  0.00  0.00    +0.000 A 
ATOM      2  C   UNL     1       4.898  32.162  15.730  0.00  0.00    +0.000 A 
ATOM      3  C   UNL     1       6.828  33.522  16.240  0.00  0.00    +0.000 A 
ATOM      4  C   UNL     1       7.114  31.200  15.733  0.00  0.00    +0.000 A 
ATOM      5  C   UNL     1       5.449  33.395  16.070  0.00  0.00    +0.000 A 
ATOM      6  C   UNL     1       5.736  31.062  15.561  0.00  0.00    +0.000 A 
ENDROOT
BRANCH   2   9
ATOM      7  O   UNL     1       2.716  32.966  15.545  0.00  0.00    +0.000 OA
ATOM      8  N   UNL     1       3.007  30.675  15.358  0.00  0.00    +0.000 N 
ATOM      9  C   ACE A   0       3.438  31.976  15.536  0.00  0.00    +0.000 C 
ATOM     10  H   UNL     1       3.684  29.916  15.368  0.00  0.00    +0.000 HD
ATOM     11  CA  UNL     1       1.705  30.247  15.164  0.00  0.00    +0.000 C 
BRANCH  11  13
ATOM     12  OXT UNL     1       0.445  28.220  15.074  0.00  0.00    +0.000 OA
ATOM     13  C   UNL     1       1.527  28.784  15.000  0.00  0.00    +0.000 C 
BRANCH  13  14
ATOM     14  O   UNL     1       2.664  28.113  14.762  0.00  0.00    +0.000 OA
ATOM     15  H   UNL     1       2.874  28.293  13.822  0.00  0.00    +0.000 HD
ENDBRANCH  13  14
ENDBRANCH  11  13
BRANCH  11  16
ATOM     16  CB  UNL     1       0.609  31.148  15.126  0.00  0.00    +0.000 C 
ATOM     17  CG  UNL     1      -0.567  32.131  15.082  0.00  0.00    +0.000 C 
BRANCH  17  19
ATOM     18  OE2 UNL     1      -2.792  32.786  15.375  0.00  0.00    +0.000 OA
ATOM     19  CD  UNL     1      -1.653  33.063  15.039  0.00  0.00    +0.000 C 
BRANCH  19  20
ATOM     20  OE1 UNL     1      -1.314  34.279  14.573  0.00  0.00    +0.000 OA
ATOM     21  HE1 UNL     1      -1.705  34.295  13.677  0.00  0.00    +0.000 HD
ENDBRANCH  19  20
ENDBRANCH  17  19
ENDBRANCH  11  16
ENDBRANCH   2   9
BRANCH   1  22
ATOM     22  N   UNL     1       9.090  32.580  16.237  0.00  0.00    +0.000 N 
ATOM     23  C   UNL     1       9.926  31.472  16.664  0.00  0.00    +0.000 C 
BRANCH  22  24
ATOM     24  C   UNL     1       9.672  33.896  16.399  0.00  0.00    +0.000 C 
BRANCH  24  31
ATOM     25  N   UNL     1       9.438  36.199  16.391  0.00  0.00    +0.000 NA
ATOM     26  N   UNL     1      12.321  36.682  16.994  0.00  0.00    +0.000 NA
ATOM     27  N   UNL     1      11.936  38.962  16.907  0.00  0.00    +0.000 NA
ATOM     28  N   UNL     1       9.776  39.867  16.547  0.00  0.00    +0.000 NA
ATOM     29  N   UNL     1       7.863  38.642  16.242  0.00  0.00    +0.000 N 
ATOM     30  N   UNL     1      11.624  41.211  16.831  0.00  0.00    +0.000 N 
ATOM     31  C   UNL     1      10.241  35.186  16.561  0.00  0.00    +0.000 C 
ATOM     32  C   UNL     1      11.586  35.570  16.848  0.00  0.00    +0.000 C 
ATOM     33  C   UNL     1      10.026  37.471  16.552  0.00  0.00    +0.000 C 
ATOM     34  C   UNL     1      11.494  37.681  16.834  0.00  0.00    +0.000 C 
ATOM     35  C   UNL     1       9.217  38.701  16.450  0.00  0.00    +0.000 C 
ATOM     36  C   UNL     1      11.121  39.955  16.754  0.00  0.00    +0.000 C 
ATOM     37  H   UNL     1       7.461  39.495  15.870  0.00  0.00    +0.000 HD
ATOM     38  H   UNL     1       7.514  37.783  15.832  0.00  0.00    +0.000 HD
ATOM     39  H   UNL     1      10.942  41.893  17.133  0.00  0.00    +0.000 HD
ATOM     40  H   UNL     1      12.506  41.248  17.324  0.00  0.00    +0.000 HD
ENDBRANCH  24  31
ENDBRANCH  22  24
ENDBRANCH   1  22
TORSDOF 9
ENDMDL
MODEL 2
REMARK VINA RESULT:      -7.4     22.564     24.310
REMARK  Name = Methotrexate.pdbqt.pdb
REMARK  9 active torsions:
REMARK  status: ('A' for Active; 'I' for Inactive)
REMARK    1  A    between atoms: C_1  and  N_22
REMARK    2  A    between atoms: C_2  and  C_9
REMARK    3  A    between atoms: CA_11  and  C_13
REMARK    4  A    between atoms: CA_11  and  CB_16
REMARK    5  A    between atoms: C_13  and  O_14
REMARK    6  A    between atoms: CG_17  and  CD_19
REMARK    7  A    between atoms: CD_19  and  OE1_20
REMARK    8  A    between atoms: N_22  and  C_24
REMARK    9  A    between atoms: C_24  and  C_31
REMARK                            x       y       z     vdW  Elec       q    Type
REMARK                         _______ _______ _______ _____ _____    ______ ____
ROOT
ATOM      1  C   UNL     1     -15.377  28.542  20.061  0.00  0.00    +0.000 A 
ATOM      2  C   UNL     1     -17.003  28.371  17.754  0.00  0.00    +0.000 A 
ATOM      3  C   UNL     1     -14.883  28.878  18.793  0.00  0.00    +0.000 A 
ATOM      4  C   UNL     1     -16.709  28.110  20.138  0.00  0.00    +0.000 A 
ATOM      5  C   UNL     1     -15.681  28.797  17.652  0.00  0.00    +0.000 A 
ATOM      6  C   UNL     1     -17.516  28.026  19.002  0.00  0.00    +0.000 A 
ENDROOT
BRANCH   2   9
ATOM      7  O   UNL     1     -18.962  28.861  16.587  0.00  0.00    +0.000 OA
ATOM      8  N   UNL     1     -17.427  27.490  15.524  0.00  0.00    +0.000 N 
ATOM      9  C   ACE A   0     -17.892  28.266  16.569  0.00  0.00    +0.000 C 
ATOM     10  H   UNL     1     -16.523  27.032  15.603  0.00  0.00    +0.000 HD
ATOM     11  CA  UNL     1     -18.068  27.238  14.324  0.00  0.00    +0.000 C 
BRANCH  11  13
ATOM     12  OXT UNL     1     -16.129  26.415  13.199  0.00  0.00    +0.000 OA
ATOM     13  C   UNL     1     -17.336  26.363  13.375  0.00  0.00    +0.000 C 
BRANCH  13  14
ATOM     14  O   UNL     1     -18.116  25.496  12.712  0.00  0.00    +0.000 OA
ATOM     15  H   UNL     1     -18.125  25.817  11.787  0.00  0.00    +0.000 HD
ENDBRANCH  13  14
ENDBRANCH  11  13
BRANCH  11  16
ATOM     16  CB  UNL     1     -19.346  27.776  14.019  0.00  0.00    +0.000 C 
ATOM     17  CG  UNL     1     -20.720  28.370  13.688  0.00  0.00    +0.000 C 
BRANCH  17  19
ATOM     18  OE2 UNL     1     -23.002  28.280  13.187  0.00  0.00    +0.000 OA
ATOM     19  CD  UNL     1     -21.996  28.942  13.380  0.00  0.00    +0.000 C 
BRANCH  19  20
ATOM     20  OE1 UNL     1     -21.991  30.284  13.301  0.00  0.00    +0.000 OA
ATOM     21  HE1 UNL     1     -21.364  30.550  14.003  0.00  0.00    +0.000 HD
ENDBRANCH  19  20
ENDBRANCH  17  19
ENDBRANCH  11  16
ENDBRANCH   2   9
BRANCH   1  22
ATOM     22  N   UNL     1     -14.548  28.610  21.206  0.00  0.00    +0.000 N 
ATOM     23  C   UNL     1     -13.657  27.520  21.559  0.00  0.00    +0.000 C 
BRANCH  22  24
ATOM     24  C   UNL     1     -14.853  29.535  22.278  0.00  0.00    +0.000 C 
BRANCH  24  31
ATOM     25  N   UNL     1     -15.344  31.685  22.985  0.00  0.00    +0.000 NA
ATOM     26  N   UNL     1     -15.451  30.915  25.866  0.00  0.00    +0.000 NA
ATOM     27  N   UNL     1     -15.891  33.119  26.417  0.00  0.00    +0.000 NA
ATOM     28  N   UNL     1     -16.147  34.807  24.774  0.00  0.00    +0.000 NA
ATOM     29  N   UNL     1     -15.990  34.483  22.510  0.00  0.00    +0.000 N 
ATOM     30  N   UNL     1     -16.320  35.265  27.023  0.00  0.00    +0.000 N 
ATOM     31  C   UNL     1     -15.150  30.443  23.328  0.00  0.00    +0.000 C 
ATOM     32  C   UNL     1     -15.237  30.224  24.737  0.00  0.00    +0.000 C 
ATOM     33  C   UNL     1     -15.632  32.569  24.044  0.00  0.00    +0.000 C 
ATOM     34  C   UNL     1     -15.656  32.151  25.495  0.00  0.00    +0.000 C 
ATOM     35  C   UNL     1     -15.935  33.990  23.788  0.00  0.00    +0.000 C 
ATOM     36  C   UNL     1     -16.099  34.344  26.056  0.00  0.00    +0.000 C 
ATOM     37  H   UNL     1     -15.878  35.488  22.446  0.00  0.00    +0.000 HD
ATOM     38  H   UNL     1     -15.496  33.946  21.806  0.00  0.00    +0.000 HD
ATOM     39  H   UNL     1     -16.879  36.047  26.706  0.00  0.00    +0.000 HD
ATOM     40  H   UNL     1     -16.628  34.851  27.893  0.00  0.00    +0.000 HD
ENDBRANCH  24  31
ENDBRANCH  22  24
ENDBRANCH   1  22
TORSDOF 9
ENDMDL
MODEL 3
REMARK VINA RESULT:      -7.1      5.635     10.742
REMARK  Name = Methotrexate.pdbqt.pdb
REMARK  9 active torsions:
REMARK  status: ('A' for Active; 'I' for Inactive)
REMARK    1  A    between atoms: C_1  and  N_22
REMARK    2  A    between atoms: C_2  and  C_9
REMARK    3  A    between atoms: CA_11  and  C_13
REMARK    4  A    between atoms: CA_11  and  CB_16
REMARK    5  A    between atoms: C_13  and  O_14
REMARK    6  A    between atoms: CG_17  and  CD_19
REMARK    7  A    between atoms: CD_19  and  OE1_20
REMARK    8  A    between atoms: N_22  and  C_24
REMARK    9  A    between atoms: C_24  and  C_31
REMARK                            x       y       z     vdW  Elec       q    Type
REMARK                         _______ _______ _______ _____ _____    ______ ____
ROOT
ATOM      1  C   UNL     1       7.594  31.987  15.860  0.00  0.00    +0.000 A 
ATOM      2  C   UNL     1       9.181  29.648  15.780  0.00  0.00    +0.000 A 
ATOM      3  C   UNL     1       7.021  30.722  15.669  0.00  0.00    +0.000 A 
ATOM      4  C   UNL     1       8.988  32.046  16.001  0.00  0.00    +0.000 A 
ATOM      5  C   UNL     1       7.799  29.565  15.632  0.00  0.00    +0.000 A 
ATOM      6  C   UNL     1       9.775  30.894  15.965  0.00  0.00    +0.000 A 
ENDROOT
BRANCH   2   9
ATOM      7  O   UNL     1       9.881  27.626  14.851  0.00  0.00    +0.000 OA
ATOM      8  N   UNL     1      11.003  28.353  16.744  0.00  0.00    +0.000 N 
ATOM      9  C   ACE A   0      10.052  28.446  15.745  0.00  0.00    +0.000 C 
ATOM     10  H   UNL     1      11.068  29.086  17.445  0.00  0.00    +0.000 HD
ATOM     11  CA  UNL     1      11.922  27.335  16.926  0.00  0.00    +0.000 C 
BRANCH  11  13
ATOM     12  OXT UNL     1      13.983  27.888  18.001  0.00  0.00    +0.000 OA
ATOM     13  C   UNL     1      12.831  27.490  18.089  0.00  0.00    +0.000 C 
BRANCH  13  14
ATOM     14  O   UNL     1      12.283  27.151  19.265  0.00  0.00    +0.000 OA
ATOM     15  H   UNL     1      11.823  27.959  19.574  0.00  0.00    +0.000 HD
ENDBRANCH  13  14
ENDBRANCH  11  13
BRANCH  11  16
ATOM     16  CB  UNL     1      11.992  26.211  16.061  0.00  0.00    +0.000 C 
ATOM     17  CG  UNL     1      12.081  24.994  15.133  0.00  0.00    +0.000 C 
BRANCH  17  19
ATOM     18  OE2 UNL     1      11.759  22.749  14.568  0.00  0.00    +0.000 OA
ATOM     19  CD  UNL     1      12.180  23.855  14.273  0.00  0.00    +0.000 C 
BRANCH  19  20
ATOM     20  OE1 UNL     1      12.800  24.101  13.104  0.00  0.00    +0.000 OA
ATOM     21  HE1 UNL     1      13.420  24.824  13.325  0.00  0.00    +0.000 HD
ENDBRANCH  19  20
ENDBRANCH  17  19
ENDBRANCH  11  16
ENDBRANCH   2   9
BRANCH   1  22
ATOM     22  N   UNL     1       6.793  33.154  15.875  0.00  0.00    +0.000 N 
ATOM     23  C   UNL     1       7.239  34.368  16.534  0.00  0.00    +0.000 C 
BRANCH  22  24
ATOM     24  C   UNL     1       5.368  33.067  15.631  0.00  0.00    +0.000 C 
BRANCH  24  31
ATOM     25  N   UNL     1       3.441  31.793  15.481  0.00  0.00    +0.000 NA
ATOM     26  N   UNL     1       1.737  34.120  14.716  0.00  0.00    +0.000 NA
ATOM     27  N   UNL     1      -0.089  32.707  14.563  0.00  0.00    +0.000 NA
ATOM     28  N   UNL     1       0.050  30.400  15.084  0.00  0.00    +0.000 NA
ATOM     29  N   UNL     1       1.946  29.312  15.773  0.00  0.00    +0.000 N 
ATOM     30  N   UNL     1      -1.919  31.372  14.391  0.00  0.00    +0.000 N 
ATOM     31  C   UNL     1       3.972  32.980  15.391  0.00  0.00    +0.000 C 
ATOM     32  C   UNL     1       3.036  33.994  15.023  0.00  0.00    +0.000 C 
ATOM     33  C   UNL     1       2.054  31.729  15.234  0.00  0.00    +0.000 C 
ATOM     34  C   UNL     1       1.225  32.923  14.826  0.00  0.00    +0.000 C 
ATOM     35  C   UNL     1       1.315  30.458  15.364  0.00  0.00    +0.000 C 
ATOM     36  C   UNL     1      -0.603  31.525  14.675  0.00  0.00    +0.000 C 
ATOM     37  H   UNL     1       1.462  28.458  15.523  0.00  0.00    +0.000 HD
ATOM     38  H   UNL     1       2.953  29.291  15.649  0.00  0.00    +0.000 HD
ATOM     39  H   UNL     1      -2.343  30.598  14.886  0.00  0.00    +0.000 HD
ATOM     40  H   UNL     1      -2.433  32.241  14.445  0.00  0.00    +0.000 HD
ENDBRANCH  24  31
ENDBRANCH  22  24
ENDBRANCH   1  22
TORSDOF 9
ENDMDL
MODEL 4
REMARK VINA RESULT:      -7.0     23.025     24.615
REMARK  Name = Methotrexate.pdbqt.pdb
REMARK  9 active torsions:
REMARK  status: ('A' for Active; 'I' for Inactive)
REMARK    1  A    between atoms: C_1  and  N_22
REMARK    2  A    between atoms: C_2  and  C_9
REMARK    3  A    between atoms: CA_11  and  C_13
REMARK    4  A    between atoms: CA_11  and  CB_16
REMARK    5  A    between atoms: C_13  and  O_14
REMARK    6  A    between atoms: CG_17  and  CD_19
REMARK    7  A    between atoms: CD_19  and  OE1_20
REMARK    8  A    between atoms: N_22  and  C_24
REMARK    9  A    between atoms: C_24  and  C_31
REMARK                            x       y       z     vdW  Elec       q    Type
REMARK                         _______ _______ _______ _____ _____    ______ ____
ROOT
ATOM      1  C   UNL     1     -15.855  28.650  19.782  0.00  0.00    +0.000 A 
ATOM      2  C   UNL     1     -17.305  28.368  17.370  0.00  0.00    +0.000 A 
ATOM      3  C   UNL     1     -17.170  28.163  19.773  0.00  0.00    +0.000 A 
ATOM      4  C   UNL     1     -15.291  28.999  18.547  0.00  0.00    +0.000 A 
ATOM      5  C   UNL     1     -17.888  28.020  18.585  0.00  0.00    +0.000 A 
ATOM      6  C   UNL     1     -16.002  28.860  17.354  0.00  0.00    +0.000 A 
ENDROOT
BRANCH   2   9
ATOM      7  O   UNL     1     -18.951  29.009  15.846  0.00  0.00    +0.000 OA
ATOM      8  N   UNL     1     -17.592  27.234  15.236  0.00  0.00    +0.000 N 
ATOM      9  C   ACE A   0     -18.029  28.237  16.081  0.00  0.00    +0.000 C 
ATOM     10  H   UNL     1     -16.817  26.641  15.520  0.00  0.00    +0.000 HD
ATOM     11  CA  UNL     1     -18.103  26.913  13.990  0.00  0.00    +0.000 C 
BRANCH  11  13
ATOM     12  OXT UNL     1     -18.028  24.992  12.572  0.00  0.00    +0.000 OA
ATOM     13  C   UNL     1     -17.440  25.782  13.295  0.00  0.00    +0.000 C 
BRANCH  13  14
ATOM     14  O   UNL     1     -16.121  25.690  13.527  0.00  0.00    +0.000 OA
ATOM     15  H   UNL     1     -15.795  26.614  13.513  0.00  0.00    +0.000 HD
ENDBRANCH  13  14
ENDBRANCH  11  13
BRANCH  11  16
ATOM     16  CB  UNL     1     -19.194  27.614  13.413  0.00  0.00    +0.000 C 
ATOM     17  CG  UNL     1     -20.375  28.361  12.783  0.00  0.00    +0.000 C 
BRANCH  17  19
ATOM     18  OE2 UNL     1     -22.106  28.606  11.231  0.00  0.00    +0.000 OA
ATOM     19  CD  UNL     1     -21.481  29.043  12.183  0.00  0.00    +0.000 C 
BRANCH  19  20
ATOM     20  OE1 UNL     1     -21.768  30.228  12.750  0.00  0.00    +0.000 OA
ATOM     21  HE1 UNL     1     -22.039  29.985  13.658  0.00  0.00    +0.000 HD
ENDBRANCH  19  20
ENDBRANCH  17  19
ENDBRANCH  11  16
ENDBRANCH   2   9
BRANCH   1  22
ATOM     22  N   UNL     1     -15.147  28.807  20.997  0.00  0.00    +0.000 N 
ATOM     23  C   UNL     1     -14.518  27.677  21.657  0.00  0.00    +0.000 C 
BRANCH  22  24
ATOM     24  C   UNL     1     -15.377  29.966  21.834  0.00  0.00    +0.000 C 
BRANCH  24  31
ATOM     25  N   UNL     1     -15.836  30.871  23.916  0.00  0.00    +0.000 NA
ATOM     26  N   UNL     1     -15.880  33.675  22.895  0.00  0.00    +0.000 NA
ATOM     27  N   UNL     1     -16.382  34.422  25.027  0.00  0.00    +0.000 NA
ATOM     28  N   UNL     1     -16.532  32.951  26.879  0.00  0.00    +0.000 NA
ATOM     29  N   UNL     1     -16.218  30.683  26.795  0.00  0.00    +0.000 N 
ATOM     30  N   UNL     1     -16.880  35.217  27.095  0.00  0.00    +0.000 N 
ATOM     31  C   UNL     1     -15.601  31.103  22.655  0.00  0.00    +0.000 C 
ATOM     32  C   UNL     1     -15.649  32.489  22.314  0.00  0.00    +0.000 C 
ATOM     33  C   UNL     1     -16.060  32.014  24.710  0.00  0.00    +0.000 C 
ATOM     34  C   UNL     1     -16.098  33.419  24.157  0.00  0.00    +0.000 C 
ATOM     35  C   UNL     1     -16.275  31.899  26.166  0.00  0.00    +0.000 C 
ATOM     36  C   UNL     1     -16.594  34.175  26.279  0.00  0.00    +0.000 C 
ATOM     37  H   UNL     1     -16.686  30.656  27.693  0.00  0.00    +0.000 HD
ATOM     38  H   UNL     1     -16.365  29.871  26.205  0.00  0.00    +0.000 HD
ATOM     39  H   UNL     1     -16.613  35.052  28.057  0.00  0.00    +0.000 HD
ATOM     40  H   UNL     1     -16.573  36.104  26.717  0.00  0.00    +0.000 HD
ENDBRANCH  24  31
ENDBRANCH  22  24
ENDBRANCH   1  22
TORSDOF 9
ENDMDL
MODEL 5
REMARK VINA RESULT:      -7.0     33.026     36.255
REMARK  Name = Methotrexate.pdbqt.pdb
REMARK  9 active torsions:
REMARK  status: ('A' for Active; 'I' for Inactive)
REMARK    1  A    between atoms: C_1  and  N_22
REMARK    2  A    between atoms: C_2  and  C_9
REMARK    3  A    between atoms: CA_11  and  C_13
REMARK    4  A    between atoms: CA_11  and  CB_16
REMARK    5  A    between atoms: C_13  and  O_14
REMARK    6  A    between atoms: CG_17  and  CD_19
REMARK    7  A    between atoms: CD_19  and  OE1_20
REMARK    8  A    between atoms: N_22  and  C_24
REMARK    9  A    between atoms: C_24  and  C_31
REMARK                            x       y       z     vdW  Elec       q    Type
REMARK                         _______ _______ _______ _____ _____    ______ ____
ROOT
ATOM      1  C   UNL     1      -2.497  61.633  -5.016  0.00  0.00    +0.000 A 
ATOM      2  C   UNL     1      -0.117  60.214  -5.578  0.00  0.00    +0.000 A 
ATOM      3  C   UNL     1      -1.407  61.659  -4.135  0.00  0.00    +0.000 A 
ATOM      4  C   UNL     1      -2.362  60.868  -6.183  0.00  0.00    +0.000 A 
ATOM      5  C   UNL     1      -0.229  60.962  -4.409  0.00  0.00    +0.000 A 
ATOM      6  C   UNL     1      -1.189  60.168  -6.466  0.00  0.00    +0.000 A 
ENDROOT
BRANCH   2   9
ATOM      7  O   UNL     1       1.005  58.279  -6.241  0.00  0.00    +0.000 OA
ATOM      8  N   UNL     1       2.304  60.152  -5.826  0.00  0.00    +0.000 N 
ATOM      9  C   ACE A   0       1.114  59.454  -5.913  0.00  0.00    +0.000 C 
ATOM     10  H   UNL     1       2.294  61.128  -5.543  0.00  0.00    +0.000 HD
ATOM     11  CA  UNL     1       3.575  59.667  -6.082  0.00  0.00    +0.000 C 
BRANCH  11  13
ATOM     12  OXT UNL     1       5.342  61.088  -6.833  0.00  0.00    +0.000 OA
ATOM     13  C   UNL     1       4.681  60.639  -5.908  0.00  0.00    +0.000 C 
BRANCH  13  14
ATOM     14  O   UNL     1       4.907  60.994  -4.634  0.00  0.00    +0.000 OA
ATOM     15  H   UNL     1       5.882  61.005  -4.541  0.00  0.00    +0.000 HD
ENDBRANCH  13  14
ENDBRANCH  11  13
BRANCH  11  16
ATOM     16  CB  UNL     1       3.809  58.325  -6.483  0.00  0.00    +0.000 C 
ATOM     17  CG  UNL     1       4.056  56.879  -6.928  0.00  0.00    +0.000 C 
BRANCH  17  19
ATOM     18  OE2 UNL     1       5.104  55.222  -8.201  0.00  0.00    +0.000 OA
ATOM     19  CD  UNL     1       4.277  55.532  -7.360  0.00  0.00    +0.000 C 
BRANCH  19  20
ATOM     20  OE1 UNL     1       3.477  54.627  -6.769  0.00  0.00    +0.000 OA
ATOM     21  HE1 UNL     1       3.922  53.776  -6.954  0.00  0.00    +0.000 HD
ENDBRANCH  19  20
ENDBRANCH  17  19
ENDBRANCH  11  16
ENDBRANCH   2   9
BRANCH   1  22
ATOM     22  N   UNL     1      -3.692  62.328  -4.714  0.00  0.00    +0.000 N 
ATOM     23  C   UNL     1      -3.721  63.383  -3.716  0.00  0.00    +0.000 C 
BRANCH  22  24
ATOM     24  C   UNL     1      -4.979  61.754  -5.047  0.00  0.00    +0.000 C 
BRANCH  24  31
ATOM     25  N   UNL     1      -6.713  60.304  -4.541  0.00  0.00    +0.000 NA
ATOM     26  N   UNL     1      -8.246  60.977  -7.011  0.00  0.00    +0.000 NA
ATOM     27  N   UNL     1      -9.875  59.455  -6.390  0.00  0.00    +0.000 NA
ATOM     28  N   UNL     1      -9.769  58.251  -4.353  0.00  0.00    +0.000 NA
ATOM     29  N   UNL     1      -8.095  58.428  -2.797  0.00  0.00    +0.000 N 
ATOM     30  N   UNL     1     -11.505  57.973  -5.839  0.00  0.00    +0.000 N 
ATOM     31  C   UNL     1      -6.241  61.192  -5.372  0.00  0.00    +0.000 C 
ATOM     32  C   UNL     1      -7.085  61.414  -6.503  0.00  0.00    +0.000 C 
ATOM     33  C   UNL     1      -7.965  59.756  -4.886  0.00  0.00    +0.000 C 
ATOM     34  C   UNL     1      -8.704  60.102  -6.157  0.00  0.00    +0.000 C 
ATOM     35  C   UNL     1      -8.642  58.788  -4.001  0.00  0.00    +0.000 C 
ATOM     36  C   UNL     1     -10.336  58.591  -5.545  0.00  0.00    +0.000 C 
ATOM     37  H   UNL     1      -8.442  57.551  -2.428  0.00  0.00    +0.000 HD
ATOM     38  H   UNL     1      -7.095  58.573  -2.702  0.00  0.00    +0.000 HD
ATOM     39  H   UNL     1     -12.012  57.673  -5.017  0.00  0.00    +0.000 HD
ATOM     40  H   UNL     1     -12.058  58.485  -6.513  0.00  0.00    +0.000 HD
ENDBRANCH  24  31
ENDBRANCH  22  24
ENDBRANCH   1  22
TORSDOF 9
ENDMDL
MODEL 6
REMARK VINA RESULT:      -7.0     15.496     18.848
REMARK  Name = Methotrexate.pdbqt.pdb
REMARK  9 active torsions:
REMARK  status: ('A' for Active; 'I' for Inactive)
REMARK    1  A    between atoms: C_1  and  N_22
REMARK    2  A    between atoms: C_2  and  C_9
REMARK    3  A    between atoms: CA_11  and  C_13
REMARK    4  A    between atoms: CA_11  and  CB_16
REMARK    5  A    between atoms: C_13  and  O_14
REMARK    6  A    between atoms: CG_17  and  CD_19
REMARK    7  A    between atoms: CD_19  and  OE1_20
REMARK    8  A    between atoms: N_22  and  C_24
REMARK    9  A    between atoms: C_24  and  C_31
REMARK                            x       y       z     vdW  Elec       q    Type
REMARK                         _______ _______ _______ _____ _____    ______ ____
ROOT
ATOM      1  C   UNL     1      14.864  43.785   9.111  0.00  0.00    +0.000 A 
ATOM      2  C   UNL     1      17.658  43.738   8.675  0.00  0.00    +0.000 A 
ATOM      3  C   UNL     1      15.765  44.196  10.103  0.00  0.00    +0.000 A 
ATOM      4  C   UNL     1      15.406  43.342   7.896  0.00  0.00    +0.000 A 
ATOM      5  C   UNL     1      17.144  44.177   9.893  0.00  0.00    +0.000 A 
ATOM      6  C   UNL     1      16.784  43.319   7.675  0.00  0.00    +0.000 A 
ENDROOT
BRANCH   2   9
ATOM      7  O   UNL     1      19.547  44.302   7.428  0.00  0.00    +0.000 OA
ATOM      8  N   UNL     1      19.883  42.966   9.291  0.00  0.00    +0.000 N 
ATOM      9  C   ACE A   0      19.117  43.698   8.403  0.00  0.00    +0.000 C 
ATOM     10  H   UNL     1      19.434  42.497  10.073  0.00  0.00    +0.000 HD
ATOM     11  CA  UNL     1      21.253  42.777   9.250  0.00  0.00    +0.000 C 
BRANCH  11  13
ATOM     12  OXT UNL     1      22.984  42.001  10.701  0.00  0.00    +0.000 OA
ATOM     13  C   UNL     1      21.820  41.940  10.336  0.00  0.00    +0.000 C 
BRANCH  13  14
ATOM     14  O   UNL     1      20.941  41.096  10.897  0.00  0.00    +0.000 OA
ATOM     15  H   UNL     1      21.192  40.209  10.565  0.00  0.00    +0.000 HD
ENDBRANCH  13  14
ENDBRANCH  11  13
BRANCH  11  16
ATOM     16  CB  UNL     1      22.067  43.341   8.233  0.00  0.00    +0.000 C 
ATOM     17  CG  UNL     1      22.934  43.955   7.128  0.00  0.00    +0.000 C 
BRANCH  17  19
ATOM     18  OE2 UNL     1      24.799  45.084   6.283  0.00  0.00    +0.000 OA
ATOM     19  CD  UNL     1      23.729  44.534   6.087  0.00  0.00    +0.000 C 
BRANCH  19  20
ATOM     20  OE1 UNL     1      23.183  44.435   4.861  0.00  0.00    +0.000 OA
ATOM     21  HE1 UNL     1      23.910  44.072   4.318  0.00  0.00    +0.000 HD
ENDBRANCH  19  20
ENDBRANCH  17  19
ENDBRANCH  11  16
ENDBRANCH   2   9
BRANCH   1  22
ATOM     22  N   UNL     1      13.469  43.791   9.348  0.00  0.00    +0.000 N 
ATOM     23  C   UNL     1      12.581  42.873   8.657  0.00  0.00    +0.000 C 
BRANCH  22  24
ATOM     24  C   UNL     1      12.830  44.951   9.932  0.00  0.00    +0.000 C 
BRANCH  24  31
ATOM     25  N   UNL     1      12.673  46.500  11.647  0.00  0.00    +0.000 NA
ATOM     26  N   UNL     1      10.340  47.900  10.422  0.00  0.00    +0.000 NA
ATOM     27  N   UNL     1      10.284  49.344  12.230  0.00  0.00    +0.000 NA
ATOM     28  N   UNL     1      11.877  49.240  13.981  0.00  0.00    +0.000 NA
ATOM     29  N   UNL     1      13.608  47.744  14.106  0.00  0.00    +0.000 N 
ATOM     30  N   UNL     1      10.173  50.789  13.978  0.00  0.00    +0.000 N 
ATOM     31  C   UNL     1      12.203  46.090  10.502  0.00  0.00    +0.000 C 
ATOM     32  C   UNL     1      11.092  46.859  10.038  0.00  0.00    +0.000 C 
ATOM     33  C   UNL     1      12.032  47.629  12.197  0.00  0.00    +0.000 C 
ATOM     34  C   UNL     1      10.838  48.301  11.562  0.00  0.00    +0.000 C 
ATOM     35  C   UNL     1      12.505  48.234  13.457  0.00  0.00    +0.000 C 
ATOM     36  C   UNL     1      10.776  49.748  13.356  0.00  0.00    +0.000 C 
ATOM     37  H   UNL     1      13.659  47.994  15.087  0.00  0.00    +0.000 HD
ATOM     38  H   UNL     1      13.863  46.787  13.889  0.00  0.00    +0.000 HD
ATOM     39  H   UNL     1      10.803  51.316  14.569  0.00  0.00    +0.000 HD
ATOM     40  H   UNL     1       9.616  51.351  13.347  0.00  0.00    +0.000 HD
ENDBRANCH  24  31
ENDBRANCH  22  24
ENDBRANCH   1  22
TORSDOF 9
ENDMDL
MODEL 7
REMARK VINA RESULT:      -7.0      5.643     10.482
REMARK  Name = Methotrexate.pdbqt.pdb
REMARK  9 active torsions:
REMARK  status: ('A' for Active; 'I' for Inactive)
REMARK    1  A    between atoms: C_1  and  N_22
REMARK    2  A    between atoms: C_2  and  C_9
REMARK    3  A    between atoms: CA_11  and  C_13
REMARK    4  A    between atoms: CA_11  and  CB_16
REMARK    5  A    between atoms: C_13  and  O_14
REMARK    6  A    between atoms: CG_17  and  CD_19
REMARK    7  A    between atoms: CD_19  and  OE1_20
REMARK    8  A    between atoms: N_22  and  C_24
REMARK    9  A    between atoms: C_24  and  C_31
REMARK                            x       y       z     vdW  Elec       q    Type
REMARK                         _______ _______ _______ _____ _____    ______ ____
ROOT
ATOM      1  C   UNL     1       7.874  32.204  16.054  0.00  0.00    +0.000 A 
ATOM      2  C   UNL     1       9.566  30.016  15.465  0.00  0.00    +0.000 A 
ATOM      3  C   UNL     1       7.371  31.024  15.489  0.00  0.00    +0.000 A 
ATOM      4  C   UNL     1       9.252  32.258  16.308  0.00  0.00    +0.000 A 
ATOM      5  C   UNL     1       8.201  29.941  15.199  0.00  0.00    +0.000 A 
ATOM      6  C   UNL     1      10.090  31.180  16.022  0.00  0.00    +0.000 A 
ENDROOT
BRANCH   2   9
ATOM      7  O   UNL     1      10.061  27.747  15.248  0.00  0.00    +0.000 OA
ATOM      8  N   UNL     1      11.784  29.238  14.833  0.00  0.00    +0.000 N 
ATOM      9  C   ACE A   0      10.490  28.891  15.173  0.00  0.00    +0.000 C 
ATOM     10  H   UNL     1      12.048  30.219  14.798  0.00  0.00    +0.000 HD
ATOM     11  CA  UNL     1      12.823  28.378  14.523  0.00  0.00    +0.000 C 
BRANCH  11  13
ATOM     12  OXT UNL     1      14.475  30.099  14.655  0.00  0.00    +0.000 OA
ATOM     13  C   UNL     1      14.117  29.025  14.194  0.00  0.00    +0.000 C 
BRANCH  13  14
ATOM     14  O   UNL     1      14.878  28.330  13.335  0.00  0.00    +0.000 OA
ATOM     15  H   UNL     1      14.393  28.359  12.484  0.00  0.00    +0.000 HD
ENDBRANCH  13  14
ENDBRANCH  11  13
BRANCH  11  16
ATOM     16  CB  UNL     1      12.666  26.968  14.522  0.00  0.00    +0.000 C 
ATOM     17  CG  UNL     1      12.501  25.443  14.535  0.00  0.00    +0.000 C 
BRANCH  17  19
ATOM     18  OE2 UNL     1      12.933  23.299  15.360  0.00  0.00    +0.000 OA
ATOM     19  CD  UNL     1      12.356  24.020  14.564  0.00  0.00    +0.000 C 
BRANCH  19  20
ATOM     20  OE1 UNL     1      11.533  23.533  13.616  0.00  0.00    +0.000 OA
ATOM     21  HE1 UNL     1      11.723  22.574  13.623  0.00  0.00    +0.000 HD
ENDBRANCH  19  20
ENDBRANCH  17  19
ENDBRANCH  11  16
ENDBRANCH   2   9
BRANCH   1  22
ATOM     22  N   UNL     1       7.022  33.302  16.323  0.00  0.00    +0.000 N 
ATOM     23  C   UNL     1       7.479  34.441  17.099  0.00  0.00    +0.000 C 
BRANCH  22  24
ATOM     24  C   UNL     1       5.585  33.155  16.223  0.00  0.00    +0.000 C 
BRANCH  24  31
ATOM     25  N   UNL     1       3.563  33.841  15.326  0.00  0.00    +0.000 NA
ATOM     26  N   UNL     1       1.983  31.841  16.877  0.00  0.00    +0.000 NA
ATOM     27  N   UNL     1       0.041  32.669  15.927  0.00  0.00    +0.000 NA
ATOM     28  N   UNL     1       0.064  34.395  14.305  0.00  0.00    +0.000 NA
ATOM     29  N   UNL     1       1.944  35.433  13.505  0.00  0.00    +0.000 N 
ATOM     30  N   UNL     1      -1.899  33.439  15.034  0.00  0.00    +0.000 N 
ATOM     31  C   UNL     1       4.177  33.011  16.122  0.00  0.00    +0.000 C 
ATOM     32  C   UNL     1       3.293  32.110  16.792  0.00  0.00    +0.000 C 
ATOM     33  C   UNL     1       2.164  33.682  15.245  0.00  0.00    +0.000 C 
ATOM     34  C   UNL     1       1.392  32.674  16.062  0.00  0.00    +0.000 C 
ATOM     35  C   UNL     1       1.355  34.513  14.333  0.00  0.00    +0.000 C 
ATOM     36  C   UNL     1      -0.548  33.488  15.119  0.00  0.00    +0.000 C 
ATOM     37  H   UNL     1       1.318  36.157  13.174  0.00  0.00    +0.000 HD
ATOM     38  H   UNL     1       2.868  35.751  13.780  0.00  0.00    +0.000 HD
ATOM     39  H   UNL     1      -2.252  33.751  14.139  0.00  0.00    +0.000 HD
ATOM     40  H   UNL     1      -2.278  32.557  15.354  0.00  0.00    +0.000 HD
ENDBRANCH  24  31
ENDBRANCH  22  24
ENDBRANCH   1  22
TORSDOF 9
ENDMDL
MODEL 8
REMARK VINA RESULT:      -6.7     33.185     35.427
REMARK  Name = Methotrexate.pdbqt.pdb
REMARK  9 active torsions:
REMARK  status: ('A' for Active; 'I' for Inactive)
REMARK    1  A    between atoms: C_1  and  N_22
REMARK    2  A    between atoms: C_2  and  C_9
REMARK    3  A    between atoms: CA_11  and  C_13
REMARK    4  A    between atoms: CA_11  and  CB_16
REMARK    5  A    between atoms: C_13  and  O_14
REMARK    6  A    between atoms: CG_17  and  CD_19
REMARK    7  A    between atoms: CD_19  and  OE1_20
REMARK    8  A    between atoms: N_22  and  C_24
REMARK    9  A    between atoms: C_24  and  C_31
REMARK                            x       y       z     vdW  Elec       q    Type
REMARK                         _______ _______ _______ _____ _____    ______ ____
ROOT
ATOM      1  C   UNL     1       8.851  50.375 -15.694  0.00  0.00    +0.000 A 
ATOM      2  C   UNL     1       9.096  52.052 -13.430  0.00  0.00    +0.000 A 
ATOM      3  C   UNL     1      10.024  50.399 -14.926  0.00  0.00    +0.000 A 
ATOM      4  C   UNL     1       7.807  51.222 -15.297  0.00  0.00    +0.000 A 
ATOM      5  C   UNL     1      10.149  51.222 -13.807  0.00  0.00    +0.000 A 
ATOM      6  C   UNL     1       7.922  52.050 -14.180  0.00  0.00    +0.000 A 
ENDROOT
BRANCH   2   9
ATOM      7  O   UNL     1       8.172  53.128 -11.579  0.00  0.00    +0.000 OA
ATOM      8  N   UNL     1      10.418  53.513 -11.999  0.00  0.00    +0.000 N 
ATOM      9  C   ACE A   0       9.181  52.947 -12.249  0.00  0.00    +0.000 C 
ATOM     10  H   UNL     1      11.199  53.302 -12.615  0.00  0.00    +0.000 HD
ATOM     11  CA  UNL     1      10.746  54.376 -10.969  0.00  0.00    +0.000 C 
BRANCH  11  13
ATOM     12  OXT UNL     1      12.642  55.476 -10.020  0.00  0.00    +0.000 OA
ATOM     13  C   UNL     1      12.157  54.834 -10.939  0.00  0.00    +0.000 C 
BRANCH  13  14
ATOM     14  O   UNL     1      12.873  54.484 -12.019  0.00  0.00    +0.000 OA
ATOM     15  H   UNL     1      12.885  53.505 -12.010  0.00  0.00    +0.000 HD
ENDBRANCH  13  14
ENDBRANCH  11  13
BRANCH  11  16
ATOM     16  CB  UNL     1       9.796  54.803 -10.004  0.00  0.00    +0.000 C 
ATOM     17  CG  UNL     1       8.781  55.263  -8.952  0.00  0.00    +0.000 C 
BRANCH  17  19
ATOM     18  OE2 UNL     1       6.638  55.555  -8.064  0.00  0.00    +0.000 OA
ATOM     19  CD  UNL     1       7.845  55.690  -7.956  0.00  0.00    +0.000 C 
BRANCH  19  20
ATOM     20  OE1 UNL     1       8.412  56.278  -6.887  0.00  0.00    +0.000 OA
ATOM     21  HE1 UNL     1       7.943  55.872  -6.131  0.00  0.00    +0.000 HD
ENDBRANCH  19  20
ENDBRANCH  17  19
ENDBRANCH  11  16
ENDBRANCH   2   9
BRANCH   1  22
ATOM     22  N   UNL     1       8.748  49.548 -16.838  0.00  0.00    +0.000 N 
ATOM     23  C   UNL     1       8.211  50.053 -18.089  0.00  0.00    +0.000 C 
BRANCH  22  24
ATOM     24  C   UNL     1       8.759  48.107 -16.704  0.00  0.00    +0.000 C 
BRANCH  24  31
ATOM     25  N   UNL     1       9.856  46.083 -16.961  0.00  0.00    +0.000 NA
ATOM     26  N   UNL     1       7.549  44.489 -15.942  0.00  0.00    +0.000 NA
ATOM     27  N   UNL     1       8.758  42.549 -16.299  0.00  0.00    +0.000 NA
ATOM     28  N   UNL     1      10.992  42.578 -17.089  0.00  0.00    +0.000 NA
ATOM     29  N   UNL     1      12.193  44.465 -17.588  0.00  0.00    +0.000 N 
ATOM     30  N   UNL     1       9.891  40.608 -16.631  0.00  0.00    +0.000 N 
ATOM     31  C   UNL     1       8.772  46.693 -16.571  0.00  0.00    +0.000 C 
ATOM     32  C   UNL     1       7.757  45.803 -16.104  0.00  0.00    +0.000 C 
ATOM     33  C   UNL     1       9.845  44.680 -16.824  0.00  0.00    +0.000 C 
ATOM     34  C   UNL     1       8.651  43.901 -16.326  0.00  0.00    +0.000 C 
ATOM     35  C   UNL     1      11.030  43.872 -17.168  0.00  0.00    +0.000 C 
ATOM     36  C   UNL     1       9.849  41.962 -16.674  0.00  0.00    +0.000 C 
ATOM     37  H   UNL     1      12.814  43.849 -18.098  0.00  0.00    +0.000 HD
ATOM     38  H   UNL     1      12.101  45.401 -17.970  0.00  0.00    +0.000 HD
ATOM     39  H   UNL     1      10.828  40.245 -16.509  0.00  0.00    +0.000 HD
ATOM     40  H   UNL     1       9.200  40.216 -16.006  0.00  0.00    +0.000 HD
ENDBRANCH  24  31
ENDBRANCH  22  24
ENDBRANCH   1  22
TORSDOF 9
ENDMDL
MODEL 9
REMARK VINA RESULT:      -6.5     18.731     23.321
REMARK  Name = Methotrexate.pdbqt.pdb
REMARK  9 active torsions:
REMARK  status: ('A' for Active; 'I' for Inactive)
REMARK    1  A    between atoms: C_1  and  N_22
REMARK    2  A    between atoms: C_2  and  C_9
REMARK    3  A    between atoms: CA_11  and  C_13
REMARK    4  A    between atoms: CA_11  and  CB_16
REMARK    5  A    between atoms: C_13  and  O_14
REMARK    6  A    between atoms: CG_17  and  CD_19
REMARK    7  A    between atoms: CD_19  and  OE1_20
REMARK    8  A    between atoms: N_22  and  C_24
REMARK    9  A    between atoms: C_24  and  C_31
REMARK                            x       y       z     vdW  Elec       q    Type
REMARK                         _______ _______ _______ _____ _____    ______ ____
ROOT
ATOM      1  C   UNL     1      19.054  49.798   4.625  0.00  0.00    +0.000 A 
ATOM      2  C   UNL     1      17.586  48.213   6.450  0.00  0.00    +0.000 A 
ATOM      3  C   UNL     1      18.008  48.969   4.195  0.00  0.00    +0.000 A 
ATOM      4  C   UNL     1      19.347  49.804   5.996  0.00  0.00    +0.000 A 
ATOM      5  C   UNL     1      17.279  48.187   5.092  0.00  0.00    +0.000 A 
ATOM      6  C   UNL     1      18.624  49.025   6.901  0.00  0.00    +0.000 A 
ENDROOT
BRANCH   2   9
ATOM      7  O   UNL     1      16.171  47.978   8.290  0.00  0.00    +0.000 OA
ATOM      8  N   UNL     1      16.969  46.027   7.326  0.00  0.00    +0.000 N 
ATOM      9  C   ACE A   0      16.841  47.399   7.443  0.00  0.00    +0.000 C 
ATOM     10  H   UNL     1      17.551  45.639   6.588  0.00  0.00    +0.000 HD
ATOM     11  CA  UNL     1      16.381  45.065   8.127  0.00  0.00    +0.000 C 
BRANCH  11  13
ATOM     12  OXT UNL     1      17.697  43.071   8.147  0.00  0.00    +0.000 OA
ATOM     13  C   UNL     1      16.692  43.657   7.775  0.00  0.00    +0.000 C 
BRANCH  13  14
ATOM     14  O   UNL     1      15.769  43.067   7.001  0.00  0.00    +0.000 OA
ATOM     15  H   UNL     1      15.180  42.592   7.623  0.00  0.00    +0.000 HD
ENDBRANCH  13  14
ENDBRANCH  11  13
BRANCH  11  16
ATOM     16  CB  UNL     1      15.538  45.398   9.220  0.00  0.00    +0.000 C 
ATOM     17  CG  UNL     1      14.616  45.756  10.391  0.00  0.00    +0.000 C 
BRANCH  17  19
ATOM     18  OE2 UNL     1      12.994  47.055  11.462  0.00  0.00    +0.000 OA
ATOM     19  CD  UNL     1      13.740  46.090  11.473  0.00  0.00    +0.000 C 
BRANCH  19  20
ATOM     20  OE1 UNL     1      13.823  45.254  12.524  0.00  0.00    +0.000 OA
ATOM     21  HE1 UNL     1      13.385  45.751  13.243  0.00  0.00    +0.000 HD
ENDBRANCH  19  20
ENDBRANCH  17  19
ENDBRANCH  11  16
ENDBRANCH   2   9
BRANCH   1  22
ATOM     22  N   UNL     1      19.796  50.569   3.699  0.00  0.00    +0.000 N 
ATOM     23  C   UNL     1      21.166  50.965   3.973  0.00  0.00    +0.000 C 
BRANCH  22  24
ATOM     24  C   UNL     1      19.119  51.342   2.679  0.00  0.00    +0.000 C 
BRANCH  24  31
ATOM     25  N   UNL     1      19.201  52.607   0.741  0.00  0.00    +0.000 NA
ATOM     26  N   UNL     1      16.265  53.142   0.743  0.00  0.00    +0.000 NA
ATOM     27  N   UNL     1      16.518  54.417  -1.172  0.00  0.00    +0.000 NA
ATOM     28  N   UNL     1      18.609  54.669  -2.257  0.00  0.00    +0.000 NA
ATOM     29  N   UNL     1      20.578  53.722  -1.567  0.00  0.00    +0.000 N 
ATOM     30  N   UNL     1      16.700  55.684  -3.048  0.00  0.00    +0.000 N 
ATOM     31  C   UNL     1      18.453  52.098   1.679  0.00  0.00    +0.000 C 
ATOM     32  C   UNL     1      17.070  52.434   1.547  0.00  0.00    +0.000 C 
ATOM     33  C   UNL     1      18.519  53.358  -0.238  0.00  0.00    +0.000 C 
ATOM     34  C   UNL     1      17.034  53.629  -0.195  0.00  0.00    +0.000 C 
ATOM     35  C   UNL     1      19.236  53.936  -1.390  0.00  0.00    +0.000 C 
ATOM     36  C   UNL     1      17.273  54.898  -2.106  0.00  0.00    +0.000 C 
ATOM     37  H   UNL     1      21.032  54.399  -2.170  0.00  0.00    +0.000 HD
ATOM     38  H   UNL     1      21.100  53.462  -0.737  0.00  0.00    +0.000 HD
ATOM     39  H   UNL     1      17.192  55.666  -3.932  0.00  0.00    +0.000 HD
ATOM     40  H   UNL     1      15.700  55.544  -3.118  0.00  0.00    +0.000 HD
ENDBRANCH  24  31
ENDBRANCH  22  24
ENDBRANCH   1  22
TORSDOF 9
ENDMDL
