MODEL 1
REMARK VINA RESULT:      -7.6      0.000      0.000
REMARK  Name = Monobenzone.pdbqt.pdb
REMARK  4 active torsions:
REMARK  status: ('A' for Active; 'I' for Inactive)
REMARK    1  A    between atoms: C_1  and  O_7
REMARK    2  A    between atoms: C_6  and  O_15
REMARK    3  A    between atoms: O_7  and  C_8
REMARK    4  A    between atoms: C_8  and  C_9
REMARK                            x       y       z     vdW  Elec       q    Type
REMARK                         _______ _______ _______ _____ _____    ______ ____
ROOT
ATOM      1  C   UNL     1       0.186  31.952  16.003  0.00  0.00    +0.000 A 
ATOM      2  C   UNL     1      -0.577  31.202  15.105  0.00  0.00    +0.000 A 
ATOM      3  C   UNL     1      -0.077  33.313  16.165  0.00  0.00    +0.000 A 
ATOM      4  C   UNL     1      -1.598  31.806  14.376  0.00  0.00    +0.000 A 
ATOM      5  C   UNL     1      -1.096  33.923  15.438  0.00  0.00    +0.000 A 
ATOM      6  C   UNL     1      -1.849  33.163  14.548  0.00  0.00    +0.000 A 
ENDROOT
BRANCH   6   7
ATOM      7  O   UNL     1      -2.842  33.782  13.847  0.00  0.00    +0.000 OA
ATOM      8  H   UNL     1      -3.471  34.166  14.482  0.00  0.00    +0.000 HD
ENDBRANCH   6   7
BRANCH   1   9
ATOM      9  O   UNL     1       1.210  31.445  16.764  0.00  0.00    +0.000 OA
BRANCH   9  10
ATOM     10  C   UNL     1       1.965  30.536  16.153  0.00  0.00    +0.000 C 
BRANCH  10  11
ATOM     11  C   UNL     1       2.785  29.564  15.508  0.00  0.00    +0.000 A 
ATOM     12  C   UNL     1       4.170  29.621  15.651  0.00  0.00    +0.000 A 
ATOM     13  C   UNL     1       4.972  28.675  15.016  0.00  0.00    +0.000 A 
ATOM     14  C   UNL     1       4.388  27.675  14.242  0.00  0.00    +0.000 A 
ATOM     15  C   UNL     1       3.003  27.619  14.101  0.00  0.00    +0.000 A 
ATOM     16  C   UNL     1       2.200  28.564  14.734  0.00  0.00    +0.000 A 
ENDBRANCH  10  11
ENDBRANCH   9  10
ENDBRANCH   1   9
TORSDOF 4
ENDMDL
MODEL 2
REMARK VINA RESULT:      -6.9      2.194      6.323
REMARK  Name = Monobenzone.pdbqt.pdb
REMARK  4 active torsions:
REMARK  status: ('A' for Active; 'I' for Inactive)
REMARK    1  A    between atoms: C_1  and  O_7
REMARK    2  A    between atoms: C_6  and  O_15
REMARK    3  A    between atoms: O_7  and  C_8
REMARK    4  A    between atoms: C_8  and  C_9
REMARK                            x       y       z     vdW  Elec       q    Type
REMARK                         _______ _______ _______ _____ _____    ______ ____
ROOT
ATOM      1  C   UNL     1       2.823  28.579  15.269  0.00  0.00    +0.000 A 
ATOM      2  C   UNL     1       3.252  27.683  14.287  0.00  0.00    +0.000 A 
ATOM      3  C   UNL     1       3.748  29.421  15.889  0.00  0.00    +0.000 A 
ATOM      4  C   UNL     1       4.596  27.628  13.925  0.00  0.00    +0.000 A 
ATOM      5  C   UNL     1       5.093  29.370  15.532  0.00  0.00    +0.000 A 
ATOM      6  C   UNL     1       5.506  28.473  14.552  0.00  0.00    +0.000 A 
ENDROOT
BRANCH   6   7
ATOM      7  O   UNL     1       6.829  28.441  14.217  0.00  0.00    +0.000 OA
ATOM      8  H   UNL     1       7.345  28.737  14.987  0.00  0.00    +0.000 HD
ENDBRANCH   6   7
BRANCH   1   9
ATOM      9  O   UNL     1       1.523  28.705  15.691  0.00  0.00    +0.000 OA
BRANCH   9  10
ATOM     10  C   UNL     1       1.020  29.934  15.592  0.00  0.00    +0.000 C 
BRANCH  10  11
ATOM     11  C   UNL     1       0.492  31.255  15.496  0.00  0.00    +0.000 A 
ATOM     12  C   UNL     1       1.106  32.188  14.664  0.00  0.00    +0.000 A 
ATOM     13  C   UNL     1       0.594  33.481  14.574  0.00  0.00    +0.000 A 
ATOM     14  C   UNL     1      -0.530  33.837  15.317  0.00  0.00    +0.000 A 
ATOM     15  C   UNL     1      -1.142  32.902  16.148  0.00  0.00    +0.000 A 
ATOM     16  C   UNL     1      -0.631  31.610  16.239  0.00  0.00    +0.000 A 
ENDBRANCH  10  11
ENDBRANCH   9  10
ENDBRANCH   1   9
TORSDOF 4
ENDMDL
MODEL 3
REMARK VINA RESULT:      -6.6      1.610      2.120
REMARK  Name = Monobenzone.pdbqt.pdb
REMARK  4 active torsions:
REMARK  status: ('A' for Active; 'I' for Inactive)
REMARK    1  A    between atoms: C_1  and  O_7
REMARK    2  A    between atoms: C_6  and  O_15
REMARK    3  A    between atoms: O_7  and  C_8
REMARK    4  A    between atoms: C_8  and  C_9
REMARK                            x       y       z     vdW  Elec       q    Type
REMARK                         _______ _______ _______ _____ _____    ______ ____
ROOT
ATOM      1  C   UNL     1       2.107  32.522  16.206  0.00  0.00    +0.000 A 
ATOM      2  C   UNL     1       1.358  31.416  16.616  0.00  0.00    +0.000 A 
ATOM      3  C   UNL     1       1.457  33.647  15.696  0.00  0.00    +0.000 A 
ATOM      4  C   UNL     1      -0.031  31.435  16.518  0.00  0.00    +0.000 A 
ATOM      5  C   UNL     1       0.069  33.670  15.594  0.00  0.00    +0.000 A 
ATOM      6  C   UNL     1      -0.665  32.562  16.008  0.00  0.00    +0.000 A 
ENDROOT
BRANCH   6   7
ATOM      7  O   UNL     1      -2.024  32.608  15.900  0.00  0.00    +0.000 OA
ATOM      8  H   UNL     1      -2.385  32.964  16.730  0.00  0.00    +0.000 HD
ENDBRANCH   6   7
BRANCH   1   9
ATOM      9  O   UNL     1       3.476  32.597  16.265  0.00  0.00    +0.000 OA
BRANCH   9  10
ATOM     10  C   UNL     1       4.113  31.477  15.932  0.00  0.00    +0.000 C 
BRANCH  10  11
ATOM     11  C   UNL     1       4.793  30.280  15.560  0.00  0.00    +0.000 A 
ATOM     12  C   UNL     1       6.141  30.122  15.875  0.00  0.00    +0.000 A 
ATOM     13  C   UNL     1       6.807  28.955  15.507  0.00  0.00    +0.000 A 
ATOM     14  C   UNL     1       6.124  27.949  14.826  0.00  0.00    +0.000 A 
ATOM     15  C   UNL     1       4.776  28.109  14.513  0.00  0.00    +0.000 A 
ATOM     16  C   UNL     1       4.109  29.275  14.880  0.00  0.00    +0.000 A 
ENDBRANCH  10  11
ENDBRANCH   9  10
ENDBRANCH   1   9
TORSDOF 4
ENDMDL
MODEL 4
REMARK VINA RESULT:      -6.5      2.331      6.332
REMARK  Name = Monobenzone.pdbqt.pdb
REMARK  4 active torsions:
REMARK  status: ('A' for Active; 'I' for Inactive)
REMARK    1  A    between atoms: C_1  and  O_7
REMARK    2  A    between atoms: C_6  and  O_15
REMARK    3  A    between atoms: O_7  and  C_8
REMARK    4  A    between atoms: C_8  and  C_9
REMARK                            x       y       z     vdW  Elec       q    Type
REMARK                         _______ _______ _______ _____ _____    ______ ____
ROOT
ATOM      1  C   UNL     1       4.177  30.471  16.097  0.00  0.00    +0.000 A 
ATOM      2  C   UNL     1       5.488  30.315  15.640  0.00  0.00    +0.000 A 
ATOM      3  C   UNL     1       3.210  29.524  15.759  0.00  0.00    +0.000 A 
ATOM      4  C   UNL     1       5.831  29.219  14.853  0.00  0.00    +0.000 A 
ATOM      5  C   UNL     1       3.547  28.426  14.971  0.00  0.00    +0.000 A 
ATOM      6  C   UNL     1       4.856  28.283  14.524  0.00  0.00    +0.000 A 
ENDROOT
BRANCH   6   7
ATOM      7  O   UNL     1       5.164  27.200  13.754  0.00  0.00    +0.000 OA
ATOM      8  H   UNL     1       5.696  27.503  12.998  0.00  0.00    +0.000 HD
ENDBRANCH   6   7
BRANCH   1   9
ATOM      9  O   UNL     1       3.745  31.515  16.876  0.00  0.00    +0.000 OA
BRANCH   9  10
ATOM     10  C   UNL     1       2.535  31.977  16.572  0.00  0.00    +0.000 C 
BRANCH  10  11
ATOM     11  C   UNL     1       1.232  32.458  16.246  0.00  0.00    +0.000 A 
ATOM     12  C   UNL     1       1.073  33.754  15.761  0.00  0.00    +0.000 A 
ATOM     13  C   UNL     1      -0.201  34.225  15.448  0.00  0.00    +0.000 A 
ATOM     14  C   UNL     1      -1.310  33.400  15.620  0.00  0.00    +0.000 A 
ATOM     15  C   UNL     1      -1.147  32.104  16.105  0.00  0.00    +0.000 A 
ATOM     16  C   UNL     1       0.124  31.631  16.418  0.00  0.00    +0.000 A 
ENDBRANCH  10  11
ENDBRANCH   9  10
ENDBRANCH   1   9
TORSDOF 4
ENDMDL
MODEL 5
REMARK VINA RESULT:      -6.4     17.274     18.439
REMARK  Name = Monobenzone.pdbqt.pdb
REMARK  4 active torsions:
REMARK  status: ('A' for Active; 'I' for Inactive)
REMARK    1  A    between atoms: C_1  and  O_7
REMARK    2  A    between atoms: C_6  and  O_15
REMARK    3  A    between atoms: O_7  and  C_8
REMARK    4  A    between atoms: C_8  and  C_9
REMARK                            x       y       z     vdW  Elec       q    Type
REMARK                         _______ _______ _______ _____ _____    ______ ____
ROOT
ATOM      1  C   UNL     1     -15.373  30.586  22.057  0.00  0.00    +0.000 A 
ATOM      2  C   UNL     1     -15.287  29.881  20.854  0.00  0.00    +0.000 A 
ATOM      3  C   UNL     1     -14.885  30.012  23.231  0.00  0.00    +0.000 A 
ATOM      4  C   UNL     1     -14.717  28.611  20.824  0.00  0.00    +0.000 A 
ATOM      5  C   UNL     1     -14.314  28.742  23.208  0.00  0.00    +0.000 A 
ATOM      6  C   UNL     1     -14.234  28.052  22.003  0.00  0.00    +0.000 A 
ENDROOT
BRANCH   6   7
ATOM      7  O   UNL     1     -13.670  26.810  22.003  0.00  0.00    +0.000 OA
ATOM      8  H   UNL     1     -14.378  26.153  21.886  0.00  0.00    +0.000 HD
ENDBRANCH   6   7
BRANCH   1   9
ATOM      9  O   UNL     1     -15.917  31.840  22.185  0.00  0.00    +0.000 OA
BRANCH   9  10
ATOM     10  C   UNL     1     -15.280  32.642  23.035  0.00  0.00    +0.000 C 
BRANCH  10  11
ATOM     11  C   UNL     1     -14.603  33.514  23.938  0.00  0.00    +0.000 A 
ATOM     12  C   UNL     1     -13.805  32.982  24.948  0.00  0.00    +0.000 A 
ATOM     13  C   UNL     1     -13.149  33.834  25.834  0.00  0.00    +0.000 A 
ATOM     14  C   UNL     1     -13.290  35.214  25.707  0.00  0.00    +0.000 A 
ATOM     15  C   UNL     1     -14.088  35.743  24.695  0.00  0.00    +0.000 A 
ATOM     16  C   UNL     1     -14.745  34.894  23.809  0.00  0.00    +0.000 A 
ENDBRANCH  10  11
ENDBRANCH   9  10
ENDBRANCH   1   9
TORSDOF 4
ENDMDL
MODEL 6
REMARK VINA RESULT:      -6.3      2.933      5.297
REMARK  Name = Monobenzone.pdbqt.pdb
REMARK  4 active torsions:
REMARK  status: ('A' for Active; 'I' for Inactive)
REMARK    1  A    between atoms: C_1  and  O_7
REMARK    2  A    between atoms: C_6  and  O_15
REMARK    3  A    between atoms: O_7  and  C_8
REMARK    4  A    between atoms: C_8  and  C_9
REMARK                            x       y       z     vdW  Elec       q    Type
REMARK                         _______ _______ _______ _____ _____    ______ ____
ROOT
ATOM      1  C   UNL     1       3.677  28.354  14.718  0.00  0.00    +0.000 A 
ATOM      2  C   UNL     1       3.841  29.386  15.647  0.00  0.00    +0.000 A 
ATOM      3  C   UNL     1       2.395  28.005  14.292  0.00  0.00    +0.000 A 
ATOM      4  C   UNL     1       2.732  30.064  16.145  0.00  0.00    +0.000 A 
ATOM      5  C   UNL     1       1.282  28.679  14.787  0.00  0.00    +0.000 A 
ATOM      6  C   UNL     1       1.460  29.704  15.711  0.00  0.00    +0.000 A 
ENDROOT
BRANCH   6   7
ATOM      7  O   UNL     1       0.355  30.352  16.182  0.00  0.00    +0.000 OA
ATOM      8  H   UNL     1       0.501  30.560  17.121  0.00  0.00    +0.000 HD
ENDBRANCH   6   7
BRANCH   1   9
ATOM      9  O   UNL     1       4.708  27.631  14.171  0.00  0.00    +0.000 OA
BRANCH   9  10
ATOM     10  C   UNL     1       5.917  27.950  14.625  0.00  0.00    +0.000 C 
BRANCH  10  11
ATOM     11  C   UNL     1       7.209  28.289  15.125  0.00  0.00    +0.000 A 
ATOM     12  C   UNL     1       7.363  29.397  15.954  0.00  0.00    +0.000 A 
ATOM     13  C   UNL     1       8.626  29.731  16.439  0.00  0.00    +0.000 A 
ATOM     14  C   UNL     1       9.730  28.956  16.094  0.00  0.00    +0.000 A 
ATOM     15  C   UNL     1       9.574  27.847  15.265  0.00  0.00    +0.000 A 
ATOM     16  C   UNL     1       8.313  27.512  14.780  0.00  0.00    +0.000 A 
ENDBRANCH  10  11
ENDBRANCH   9  10
ENDBRANCH   1   9
TORSDOF 4
ENDMDL
MODEL 7
REMARK VINA RESULT:      -6.3     16.781     18.276
REMARK  Name = Monobenzone.pdbqt.pdb
REMARK  4 active torsions:
REMARK  status: ('A' for Active; 'I' for Inactive)
REMARK    1  A    between atoms: C_1  and  O_7
REMARK    2  A    between atoms: C_6  and  O_15
REMARK    3  A    between atoms: O_7  and  C_8
REMARK    4  A    between atoms: C_8  and  C_9
REMARK                            x       y       z     vdW  Elec       q    Type
REMARK                         _______ _______ _______ _____ _____    ______ ____
ROOT
ATOM      1  C   UNL     1     -14.988  29.705  22.967  0.00  0.00    +0.000 A 
ATOM      2  C   UNL     1     -14.145  28.629  22.677  0.00  0.00    +0.000 A 
ATOM      3  C   UNL     1     -15.645  30.368  21.929  0.00  0.00    +0.000 A 
ATOM      4  C   UNL     1     -13.961  28.217  21.360  0.00  0.00    +0.000 A 
ATOM      5  C   UNL     1     -15.463  29.961  20.610  0.00  0.00    +0.000 A 
ATOM      6  C   UNL     1     -14.622  28.888  20.336  0.00  0.00    +0.000 A 
ENDROOT
BRANCH   6   7
ATOM      7  O   UNL     1     -14.460  28.506  19.036  0.00  0.00    +0.000 OA
ATOM      8  H   UNL     1     -14.137  29.272  18.531  0.00  0.00    +0.000 HD
ENDBRANCH   6   7
BRANCH   1   9
ATOM      9  O   UNL     1     -15.232  30.181  24.231  0.00  0.00    +0.000 OA
BRANCH   9  10
ATOM     10  C   UNL     1     -14.810  31.424  24.451  0.00  0.00    +0.000 C 
BRANCH  10  11
ATOM     11  C   UNL     1     -14.347  32.754  24.675  0.00  0.00    +0.000 A 
ATOM     12  C   UNL     1     -14.720  33.774  23.803  0.00  0.00    +0.000 A 
ATOM     13  C   UNL     1     -14.263  35.073  24.019  0.00  0.00    +0.000 A 
ATOM     14  C   UNL     1     -13.436  35.348  25.104  0.00  0.00    +0.000 A 
ATOM     15  C   UNL     1     -13.064  34.326  25.975  0.00  0.00    +0.000 A 
ATOM     16  C   UNL     1     -13.519  33.028  25.761  0.00  0.00    +0.000 A 
ENDBRANCH  10  11
ENDBRANCH   9  10
ENDBRANCH   1   9
TORSDOF 4
ENDMDL
MODEL 8
REMARK VINA RESULT:      -6.2      3.362      7.249
REMARK  Name = Monobenzone.pdbqt.pdb
REMARK  4 active torsions:
REMARK  status: ('A' for Active; 'I' for Inactive)
REMARK    1  A    between atoms: C_1  and  O_7
REMARK    2  A    between atoms: C_6  and  O_15
REMARK    3  A    between atoms: O_7  and  C_8
REMARK    4  A    between atoms: C_8  and  C_9
REMARK                            x       y       z     vdW  Elec       q    Type
REMARK                         _______ _______ _______ _____ _____    ______ ____
ROOT
ATOM      1  C   UNL     1       6.564  30.147  15.777  0.00  0.00    +0.000 A 
ATOM      2  C   UNL     1       7.951  30.072  15.925  0.00  0.00    +0.000 A 
ATOM      3  C   UNL     1       5.875  29.094  15.173  0.00  0.00    +0.000 A 
ATOM      4  C   UNL     1       8.645  28.952  15.474  0.00  0.00    +0.000 A 
ATOM      5  C   UNL     1       6.564  27.973  14.720  0.00  0.00    +0.000 A 
ATOM      6  C   UNL     1       7.945  27.910  14.875  0.00  0.00    +0.000 A 
ENDROOT
BRANCH   6   7
ATOM      7  O   UNL     1       8.599  26.801  14.424  0.00  0.00    +0.000 OA
ATOM      8  H   UNL     1       8.631  26.839  13.452  0.00  0.00    +0.000 HD
ENDBRANCH   6   7
BRANCH   1   9
ATOM      9  O   UNL     1       5.795  31.207  16.189  0.00  0.00    +0.000 OA
BRANCH   9  10
ATOM     10  C   UNL     1       4.483  30.987  16.170  0.00  0.00    +0.000 C 
BRANCH  10  11
ATOM     11  C   UNL     1       3.079  30.737  16.142  0.00  0.00    +0.000 A 
ATOM     12  C   UNL     1       2.198  31.668  16.688  0.00  0.00    +0.000 A 
ATOM     13  C   UNL     1       0.827  31.421  16.665  0.00  0.00    +0.000 A 
ATOM     14  C   UNL     1       0.341  30.246  16.097  0.00  0.00    +0.000 A 
ATOM     15  C   UNL     1       1.224  29.317  15.551  0.00  0.00    +0.000 A 
ATOM     16  C   UNL     1       2.594  29.561  15.574  0.00  0.00    +0.000 A 
ENDBRANCH  10  11
ENDBRANCH   9  10
ENDBRANCH   1   9
TORSDOF 4
ENDMDL
MODEL 9
REMARK VINA RESULT:      -5.9      3.858      6.015
REMARK  Name = Monobenzone.pdbqt.pdb
REMARK  4 active torsions:
REMARK  status: ('A' for Active; 'I' for Inactive)
REMARK    1  A    between atoms: C_1  and  O_7
REMARK    2  A    between atoms: C_6  and  O_15
REMARK    3  A    between atoms: O_7  and  C_8
REMARK    4  A    between atoms: C_8  and  C_9
REMARK                            x       y       z     vdW  Elec       q    Type
REMARK                         _______ _______ _______ _____ _____    ______ ____
ROOT
ATOM      1  C   UNL     1       4.865  29.478  15.464  0.00  0.00    +0.000 A 
ATOM      2  C   UNL     1       4.909  28.482  14.486  0.00  0.00    +0.000 A 
ATOM      3  C   UNL     1       3.637  29.860  16.007  0.00  0.00    +0.000 A 
ATOM      4  C   UNL     1       3.736  27.871  14.052  0.00  0.00    +0.000 A 
ATOM      5  C   UNL     1       2.460  29.253  15.576  0.00  0.00    +0.000 A 
ATOM      6  C   UNL     1       2.519  28.262  14.602  0.00  0.00    +0.000 A 
ENDROOT
BRANCH   6   7
ATOM      7  O   UNL     1       1.354  27.680  14.196  0.00  0.00    +0.000 OA
ATOM      8  H   UNL     1       0.867  28.320  13.649  0.00  0.00    +0.000 HD
ENDBRANCH   6   7
BRANCH   1   9
ATOM      9  O   UNL     1       5.966  30.136  15.954  0.00  0.00    +0.000 OA
BRANCH   9  10
ATOM     10  C   UNL     1       7.111  29.468  15.844  0.00  0.00    +0.000 C 
BRANCH  10  11
ATOM     11  C   UNL     1       8.346  28.765  15.718  0.00  0.00    +0.000 A 
ATOM     12  C   UNL     1       9.442  29.147  16.488  0.00  0.00    +0.000 A 
ATOM     13  C   UNL     1      10.650  28.463  16.362  0.00  0.00    +0.000 A 
ATOM     14  C   UNL     1      10.758  27.401  15.467  0.00  0.00    +0.000 A 
ATOM     15  C   UNL     1       9.660  27.020  14.699  0.00  0.00    +0.000 A 
ATOM     16  C   UNL     1       8.452  27.702  14.824  0.00  0.00    +0.000 A 
ENDBRANCH  10  11
ENDBRANCH   9  10
ENDBRANCH   1   9
TORSDOF 4
ENDMDL
