MODEL 1
REMARK VINA RESULT:      -5.4      0.000      0.000
REMARK  Name = 
REMARK  5 active torsions:
REMARK  status: ('A' for Active; 'I' for Inactive)
REMARK    1  A    between atoms: O_4  and  C_15
REMARK    2  A    between atoms: C_6  and  C_13
REMARK    3  A    between atoms: C_7  and  C_12
REMARK    4  A    between atoms: C_8  and  C_14
REMARK    5  A    between atoms: C_12  and  C_15
REMARK                            x       y       z     vdW  Elec       q    Type
REMARK                         _______ _______ _______ _____ _____    ______ ____
ROOT
ATOM      1  C   UNL     1       8.669  36.763  15.348  0.00  0.00    +0.000 A 
ATOM      2  C   UNL     1       8.189  34.734  16.635  0.00  0.00    +0.000 A 
ATOM      3  C   UNL     1      10.020  36.370  15.239  0.00  0.00    +0.000 A 
ATOM      4  C   UNL     1       7.769  35.935  16.049  0.00  0.00    +0.000 A 
ATOM      5  C   UNL     1       9.532  34.363  16.529  0.00  0.00    +0.000 A 
ATOM      6  C   UNL     1      10.436  35.170  15.836  0.00  0.00    +0.000 A 
ATOM      7  C   UNL     1      11.030  37.214  14.508  0.00  0.00    +0.000 C 
ENDROOT
BRANCH   1  11
ATOM      8  F   UNL     1       8.241  38.046  13.370  0.00  0.00    +0.000 F 
ATOM      9  F   UNL     1       6.863  38.325  15.022  0.00  0.00    +0.000 F 
ATOM     10  F   UNL     1       8.869  39.145  15.140  0.00  0.00    +0.000 F 
ATOM     11  C   UNL     1       8.167  38.052  14.731  0.00  0.00    +0.000 C 
ENDBRANCH   1  11
BRANCH   2  12
ATOM     12  C   UNL     1       7.213  33.869  17.398  0.00  0.00    +0.000 C 
BRANCH  12  14
ATOM     13  O   UNL     1       5.268  33.419  15.961  0.00  0.00    +0.000 OA
ATOM     14  C   UNL     1       6.293  33.061  16.517  0.00  0.00    +0.000 C 
BRANCH  14  15
ATOM     15  O   UNL     1       6.738  31.796  16.356  0.00  0.00    +0.000 OA
ATOM     16  H   UNL     1       6.827  31.462  17.275  0.00  0.00    +0.000 HD
ENDBRANCH  14  15
ENDBRANCH  12  14
ENDBRANCH   2  12
TORSDOF 4
ENDMDL
MODEL 2
REMARK VINA RESULT:      -5.4     23.063     24.660
REMARK  Name = 
REMARK  5 active torsions:
REMARK  status: ('A' for Active; 'I' for Inactive)
REMARK    1  A    between atoms: O_4  and  C_15
REMARK    2  A    between atoms: C_6  and  C_13
REMARK    3  A    between atoms: C_7  and  C_12
REMARK    4  A    between atoms: C_8  and  C_14
REMARK    5  A    between atoms: C_12  and  C_15
REMARK                            x       y       z     vdW  Elec       q    Type
REMARK                         _______ _______ _______ _____ _____    ______ ____
ROOT
ATOM      1  C   UNL     1      -6.365  17.058  13.327  0.00  0.00    +0.000 A 
ATOM      2  C   UNL     1      -8.763  16.697  12.969  0.00  0.00    +0.000 A 
ATOM      3  C   UNL     1      -6.135  16.868  11.947  0.00  0.00    +0.000 A 
ATOM      4  C   UNL     1      -7.683  16.968  13.819  0.00  0.00    +0.000 A 
ATOM      5  C   UNL     1      -8.518  16.500  11.607  0.00  0.00    +0.000 A 
ATOM      6  C   UNL     1      -7.219  16.587  11.103  0.00  0.00    +0.000 A 
ATOM      7  C   UNL     1      -4.750  16.945  11.362  0.00  0.00    +0.000 C 
ENDROOT
BRANCH   1  11
ATOM      8  F   UNL     1      -4.477  18.420  13.895  0.00  0.00    +0.000 F 
ATOM      9  F   UNL     1      -5.649  17.649  15.550  0.00  0.00    +0.000 F 
ATOM     10  F   UNL     1      -4.365  16.311  14.422  0.00  0.00    +0.000 F 
ATOM     11  C   UNL     1      -5.232  17.353  14.286  0.00  0.00    +0.000 C 
ENDBRANCH   1  11
BRANCH   2  12
ATOM     12  C   UNL     1     -10.166  16.587  13.519  0.00  0.00    +0.000 C 
BRANCH  12  14
ATOM     13  O   UNL     1     -11.729  18.227  12.561  0.00  0.00    +0.000 OA
ATOM     14  C   UNL     1     -10.958  17.869  13.435  0.00  0.00    +0.000 C 
BRANCH  14  15
ATOM     15  O   UNL     1     -10.746  18.659  14.511  0.00  0.00    +0.000 OA
ATOM     16  H   UNL     1     -11.484  18.430  15.116  0.00  0.00    +0.000 HD
ENDBRANCH  14  15
ENDBRANCH  12  14
ENDBRANCH   2  12
TORSDOF 4
ENDMDL
MODEL 3
REMARK VINA RESULT:      -5.4      9.467     10.786
REMARK  Name = 
REMARK  5 active torsions:
REMARK  status: ('A' for Active; 'I' for Inactive)
REMARK    1  A    between atoms: O_4  and  C_15
REMARK    2  A    between atoms: C_6  and  C_13
REMARK    3  A    between atoms: C_7  and  C_12
REMARK    4  A    between atoms: C_8  and  C_14
REMARK    5  A    between atoms: C_12  and  C_15
REMARK                            x       y       z     vdW  Elec       q    Type
REMARK                         _______ _______ _______ _____ _____    ______ ____
ROOT
ATOM      1  C   UNL     1       0.106  42.092  15.799  0.00  0.00    +0.000 A 
ATOM      2  C   UNL     1       2.210  43.117  16.529  0.00  0.00    +0.000 A 
ATOM      3  C   UNL     1       0.562  40.838  16.260  0.00  0.00    +0.000 A 
ATOM      4  C   UNL     1       0.942  43.218  15.941  0.00  0.00    +0.000 A 
ATOM      5  C   UNL     1       2.652  41.866  16.970  0.00  0.00    +0.000 A 
ATOM      6  C   UNL     1       1.836  40.741  16.839  0.00  0.00    +0.000 A 
ATOM      7  C   UNL     1      -0.282  39.598  16.132  0.00  0.00    +0.000 C 
ENDROOT
BRANCH   1  11
ATOM      8  F   UNL     1      -2.273  41.865  15.979  0.00  0.00    +0.000 F 
ATOM      9  F   UNL     1      -1.545  43.539  14.807  0.00  0.00    +0.000 F 
ATOM     10  F   UNL     1      -1.396  41.522  14.017  0.00  0.00    +0.000 F 
ATOM     11  C   UNL     1      -1.256  42.254  15.158  0.00  0.00    +0.000 C 
ENDBRANCH   1  11
BRANCH   2  12
ATOM     12  C   UNL     1       3.098  44.332  16.655  0.00  0.00    +0.000 C 
BRANCH  12  14
ATOM     13  O   UNL     1       4.655  43.659  14.873  0.00  0.00    +0.000 OA
ATOM     14  C   UNL     1       4.421  44.199  15.941  0.00  0.00    +0.000 C 
BRANCH  14  15
ATOM     15  O   UNL     1       5.421  44.795  16.626  0.00  0.00    +0.000 OA
ATOM     16  H   UNL     1       5.383  45.730  16.327  0.00  0.00    +0.000 HD
ENDBRANCH  14  15
ENDBRANCH  12  14
ENDBRANCH   2  12
TORSDOF 4
ENDMDL
MODEL 4
REMARK VINA RESULT:      -5.2      9.094     10.136
REMARK  Name = 
REMARK  5 active torsions:
REMARK  status: ('A' for Active; 'I' for Inactive)
REMARK    1  A    between atoms: O_4  and  C_15
REMARK    2  A    between atoms: C_6  and  C_13
REMARK    3  A    between atoms: C_7  and  C_12
REMARK    4  A    between atoms: C_8  and  C_14
REMARK    5  A    between atoms: C_12  and  C_15
REMARK                            x       y       z     vdW  Elec       q    Type
REMARK                         _______ _______ _______ _____ _____    ______ ____
ROOT
ATOM      1  C   UNL     1       0.984  41.791  16.427  0.00  0.00    +0.000 A 
ATOM      2  C   UNL     1      -0.571  40.196  15.405  0.00  0.00    +0.000 A 
ATOM      3  C   UNL     1       0.395  42.837  15.684  0.00  0.00    +0.000 A 
ATOM      4  C   UNL     1       0.490  40.480  16.275  0.00  0.00    +0.000 A 
ATOM      5  C   UNL     1      -1.137  41.240  14.667  0.00  0.00    +0.000 A 
ATOM      6  C   UNL     1      -0.661  42.544  14.807  0.00  0.00    +0.000 A 
ATOM      7  C   UNL     1       0.882  44.256  15.798  0.00  0.00    +0.000 C 
ENDROOT
BRANCH   1  11
ATOM      8  F   UNL     1       2.576  40.909  17.987  0.00  0.00    +0.000 F 
ATOM      9  F   UNL     1       3.230  42.590  16.781  0.00  0.00    +0.000 F 
ATOM     10  F   UNL     1       1.805  42.905  18.388  0.00  0.00    +0.000 F 
ATOM     11  C   UNL     1       2.132  42.047  17.381  0.00  0.00    +0.000 C 
ENDBRANCH   1  11
BRANCH   2  12
ATOM     12  C   UNL     1      -1.074  38.782  15.242  0.00  0.00    +0.000 C 
BRANCH  12  14
ATOM     13  O   UNL     1      -2.903  39.173  16.840  0.00  0.00    +0.000 OA
ATOM     14  C   UNL     1      -2.210  38.426  16.169  0.00  0.00    +0.000 C 
BRANCH  14  15
ATOM     15  O   UNL     1      -2.440  37.095  16.191  0.00  0.00    +0.000 OA
ATOM     16  H   UNL     1      -3.096  36.961  15.472  0.00  0.00    +0.000 HD
ENDBRANCH  14  15
ENDBRANCH  12  14
ENDBRANCH   2  12
TORSDOF 4
ENDMDL
MODEL 5
REMARK VINA RESULT:      -5.2      9.700     11.226
REMARK  Name = 
REMARK  5 active torsions:
REMARK  status: ('A' for Active; 'I' for Inactive)
REMARK    1  A    between atoms: O_4  and  C_15
REMARK    2  A    between atoms: C_6  and  C_13
REMARK    3  A    between atoms: C_7  and  C_12
REMARK    4  A    between atoms: C_8  and  C_14
REMARK    5  A    between atoms: C_12  and  C_15
REMARK                            x       y       z     vdW  Elec       q    Type
REMARK                         _______ _______ _______ _____ _____    ______ ____
ROOT
ATOM      1  C   UNL     1       0.566  42.334  16.077  0.00  0.00    +0.000 A 
ATOM      2  C   UNL     1       2.246  44.095  16.362  0.00  0.00    +0.000 A 
ATOM      3  C   UNL     1      -0.279  43.252  15.416  0.00  0.00    +0.000 A 
ATOM      4  C   UNL     1       1.822  42.772  16.543  0.00  0.00    +0.000 A 
ATOM      5  C   UNL     1       1.395  44.996  15.716  0.00  0.00    +0.000 A 
ATOM      6  C   UNL     1       0.148  44.578  15.247  0.00  0.00    +0.000 A 
ATOM      7  C   UNL     1      -1.633  42.846  14.901  0.00  0.00    +0.000 C 
ENDROOT
BRANCH   1  11
ATOM      8  F   UNL     1      -0.970  40.780  17.061  0.00  0.00    +0.000 F 
ATOM      9  F   UNL     1      -0.128  40.224  15.141  0.00  0.00    +0.000 F 
ATOM     10  F   UNL     1       1.110  40.156  16.924  0.00  0.00    +0.000 F 
ATOM     11  C   UNL     1       0.152  40.894  16.296  0.00  0.00    +0.000 C 
ENDBRANCH   1  11
BRANCH   2  12
ATOM     12  C   UNL     1       3.589  44.549  16.885  0.00  0.00    +0.000 C 
BRANCH  12  14
ATOM     13  O   UNL     1       4.735  44.036  14.770  0.00  0.00    +0.000 OA
ATOM     14  C   UNL     1       4.658  44.644  15.825  0.00  0.00    +0.000 C 
BRANCH  14  15
ATOM     15  O   UNL     1       5.605  45.551  16.149  0.00  0.00    +0.000 OA
ATOM     16  H   UNL     1       5.088  46.325  16.462  0.00  0.00    +0.000 HD
ENDBRANCH  14  15
ENDBRANCH  12  14
ENDBRANCH   2  12
TORSDOF 4
ENDMDL
MODEL 6
REMARK VINA RESULT:      -5.0     25.796     26.947
REMARK  Name = 
REMARK  5 active torsions:
REMARK  status: ('A' for Active; 'I' for Inactive)
REMARK    1  A    between atoms: O_4  and  C_15
REMARK    2  A    between atoms: C_6  and  C_13
REMARK    3  A    between atoms: C_7  and  C_12
REMARK    4  A    between atoms: C_8  and  C_14
REMARK    5  A    between atoms: C_12  and  C_15
REMARK                            x       y       z     vdW  Elec       q    Type
REMARK                         _______ _______ _______ _____ _____    ______ ____
ROOT
ATOM      1  C   UNL     1     -15.972  32.059   6.725  0.00  0.00    +0.000 A 
ATOM      2  C   UNL     1     -17.489  31.249   8.471  0.00  0.00    +0.000 A 
ATOM      3  C   UNL     1     -16.569  33.336   6.804  0.00  0.00    +0.000 A 
ATOM      4  C   UNL     1     -16.444  31.030   7.564  0.00  0.00    +0.000 A 
ATOM      5  C   UNL     1     -18.079  32.515   8.530  0.00  0.00    +0.000 A 
ATOM      6  C   UNL     1     -17.622  33.546   7.708  0.00  0.00    +0.000 A 
ATOM      7  C   UNL     1     -16.114  34.474   5.931  0.00  0.00    +0.000 C 
ENDROOT
BRANCH   1  11
ATOM      8  F   UNL     1     -13.759  32.578   5.967  0.00  0.00    +0.000 F 
ATOM      9  F   UNL     1     -14.362  30.498   5.844  0.00  0.00    +0.000 F 
ATOM     10  F   UNL     1     -15.194  31.947   4.458  0.00  0.00    +0.000 F 
ATOM     11  C   UNL     1     -14.840  31.773   5.762  0.00  0.00    +0.000 C 
ENDBRANCH   1  11
BRANCH   2  12
ATOM     12  C   UNL     1     -17.993  30.128   9.349  0.00  0.00    +0.000 C 
BRANCH  12  14
ATOM     13  O   UNL     1     -19.416  28.670   7.971  0.00  0.00    +0.000 OA
ATOM     14  C   UNL     1     -19.272  29.494   8.858  0.00  0.00    +0.000 C 
BRANCH  14  15
ATOM     15  O   UNL     1     -20.345  29.932   9.551  0.00  0.00    +0.000 OA
ATOM     16  H   UNL     1     -21.045  30.013   8.867  0.00  0.00    +0.000 HD
ENDBRANCH  14  15
ENDBRANCH  12  14
ENDBRANCH   2  12
TORSDOF 4
ENDMDL
MODEL 7
REMARK VINA RESULT:      -5.0     28.847     30.038
REMARK  Name = 
REMARK  5 active torsions:
REMARK  status: ('A' for Active; 'I' for Inactive)
REMARK    1  A    between atoms: O_4  and  C_15
REMARK    2  A    between atoms: C_6  and  C_13
REMARK    3  A    between atoms: C_7  and  C_12
REMARK    4  A    between atoms: C_8  and  C_14
REMARK    5  A    between atoms: C_12  and  C_15
REMARK                            x       y       z     vdW  Elec       q    Type
REMARK                         _______ _______ _______ _____ _____    ______ ____
ROOT
ATOM      1  C   UNL     1      -1.445  62.368   9.209  0.00  0.00    +0.000 A 
ATOM      2  C   UNL     1       0.441  63.929   9.314  0.00  0.00    +0.000 A 
ATOM      3  C   UNL     1      -1.441  62.462   7.801  0.00  0.00    +0.000 A 
ATOM      4  C   UNL     1      -0.500  63.107   9.948  0.00  0.00    +0.000 A 
ATOM      5  C   UNL     1       0.426  64.022   7.919  0.00  0.00    +0.000 A 
ATOM      6  C   UNL     1      -0.503  63.295   7.172  0.00  0.00    +0.000 A 
ATOM      7  C   UNL     1      -2.429  61.702   6.957  0.00  0.00    +0.000 C 
ENDROOT
BRANCH   1  11
ATOM      8  F   UNL     1      -2.147  61.355  11.265  0.00  0.00    +0.000 F 
ATOM      9  F   UNL     1      -3.719  61.969   9.902  0.00  0.00    +0.000 F 
ATOM     10  F   UNL     1      -2.507  60.228   9.439  0.00  0.00    +0.000 F 
ATOM     11  C   UNL     1      -2.441  61.493   9.941  0.00  0.00    +0.000 C 
ENDBRANCH   1  11
BRANCH   2  12
ATOM     12  C   UNL     1       1.434  64.728  10.124  0.00  0.00    +0.000 C 
BRANCH  12  14
ATOM     13  O   UNL     1       1.721  66.882   8.971  0.00  0.00    +0.000 OA
ATOM     14  C   UNL     1       2.147  65.799   9.335  0.00  0.00    +0.000 C 
BRANCH  14  15
ATOM     15  O   UNL     1       3.419  65.446   9.049  0.00  0.00    +0.000 OA
ATOM     16  H   UNL     1       3.931  65.782   9.817  0.00  0.00    +0.000 HD
ENDBRANCH  14  15
ENDBRANCH  12  14
ENDBRANCH   2  12
TORSDOF 4
ENDMDL
MODEL 8
REMARK VINA RESULT:      -5.0     27.907     29.138
REMARK  Name = 
REMARK  5 active torsions:
REMARK  status: ('A' for Active; 'I' for Inactive)
REMARK    1  A    between atoms: O_4  and  C_15
REMARK    2  A    between atoms: C_6  and  C_13
REMARK    3  A    between atoms: C_7  and  C_12
REMARK    4  A    between atoms: C_8  and  C_14
REMARK    5  A    between atoms: C_12  and  C_15
REMARK                            x       y       z     vdW  Elec       q    Type
REMARK                         _______ _______ _______ _____ _____    ______ ____
ROOT
ATOM      1  C   UNL     1      -2.549  61.115  10.592  0.00  0.00    +0.000 A 
ATOM      2  C   UNL     1      -1.692  62.021   8.483  0.00  0.00    +0.000 A 
ATOM      3  C   UNL     1      -1.874  62.134  11.300  0.00  0.00    +0.000 A 
ATOM      4  C   UNL     1      -2.446  61.074   9.187  0.00  0.00    +0.000 A 
ATOM      5  C   UNL     1      -1.020  63.017   9.197  0.00  0.00    +0.000 A 
ATOM      6  C   UNL     1      -1.112  63.074  10.589  0.00  0.00    +0.000 A 
ATOM      7  C   UNL     1      -1.940  62.227  12.800  0.00  0.00    +0.000 C 
ENDROOT
BRANCH   1  11
ATOM      8  F   UNL     1      -3.468  58.902  10.609  0.00  0.00    +0.000 F 
ATOM      9  F   UNL     1      -2.879  59.721  12.530  0.00  0.00    +0.000 F 
ATOM     10  F   UNL     1      -4.658  60.470  11.537  0.00  0.00    +0.000 F 
ATOM     11  C   UNL     1      -3.377  60.069  11.308  0.00  0.00    +0.000 C 
ENDBRANCH   1  11
BRANCH   2  12
ATOM     12  C   UNL     1      -1.580  61.949   6.978  0.00  0.00    +0.000 C 
BRANCH  12  14
ATOM     13  O   UNL     1      -1.467  64.023   5.659  0.00  0.00    +0.000 OA
ATOM     14  C   UNL     1      -2.099  63.175   6.267  0.00  0.00    +0.000 C 
BRANCH  14  15
ATOM     15  O   UNL     1      -3.444  63.265   6.342  0.00  0.00    +0.000 OA
ATOM     16  H   UNL     1      -3.742  62.331   6.290  0.00  0.00    +0.000 HD
ENDBRANCH  14  15
ENDBRANCH  12  14
ENDBRANCH   2  12
TORSDOF 4
ENDMDL
MODEL 9
REMARK VINA RESULT:      -4.9     25.606     26.615
REMARK  Name = 
REMARK  5 active torsions:
REMARK  status: ('A' for Active; 'I' for Inactive)
REMARK    1  A    between atoms: O_4  and  C_15
REMARK    2  A    between atoms: C_6  and  C_13
REMARK    3  A    between atoms: C_7  and  C_12
REMARK    4  A    between atoms: C_8  and  C_14
REMARK    5  A    between atoms: C_12  and  C_15
REMARK                            x       y       z     vdW  Elec       q    Type
REMARK                         _______ _______ _______ _____ _____    ______ ____
ROOT
ATOM      1  C   UNL     1     -16.064  32.798   6.377  0.00  0.00    +0.000 A 
ATOM      2  C   UNL     1     -17.202  34.894   6.943  0.00  0.00    +0.000 A 
ATOM      3  C   UNL     1     -16.756  32.145   7.420  0.00  0.00    +0.000 A 
ATOM      4  C   UNL     1     -16.299  34.170   6.154  0.00  0.00    +0.000 A 
ATOM      5  C   UNL     1     -17.870  34.237   7.980  0.00  0.00    +0.000 A 
ATOM      6  C   UNL     1     -17.651  32.878   8.214  0.00  0.00    +0.000 A 
ATOM      7  C   UNL     1     -16.544  30.684   7.712  0.00  0.00    +0.000 C 
ENDROOT
BRANCH   1  11
ATOM      8  F   UNL     1     -15.588  30.896   4.998  0.00  0.00    +0.000 F 
ATOM      9  F   UNL     1     -14.678  32.774   4.406  0.00  0.00    +0.000 F 
ATOM     10  F   UNL     1     -13.934  31.717   6.150  0.00  0.00    +0.000 F 
ATOM     11  C   UNL     1     -15.079  32.059   5.496  0.00  0.00    +0.000 C 
ENDBRANCH   1  11
BRANCH   2  12
ATOM     12  C   UNL     1     -17.426  36.367   6.700  0.00  0.00    +0.000 C 
BRANCH  12  14
ATOM     13  O   UNL     1     -15.209  37.416   6.900  0.00  0.00    +0.000 OA
ATOM     14  C   UNL     1     -16.191  37.107   6.246  0.00  0.00    +0.000 C 
BRANCH  14  15
ATOM     15  O   UNL     1     -16.248  37.416   4.932  0.00  0.00    +0.000 OA
ATOM     16  H   UNL     1     -17.086  37.920   4.848  0.00  0.00    +0.000 HD
ENDBRANCH  14  15
ENDBRANCH  12  14
ENDBRANCH   2  12
TORSDOF 4
ENDMDL
