MODEL 1
REMARK VINA RESULT:      -7.7      0.000      0.000
REMARK  Name = OTSSP167.pdbqt.pdb
REMARK  7 active torsions:
REMARK  status: ('A' for Active; 'I' for Inactive)
REMARK    1  A    between atoms: C_5  and  N_19
REMARK    2  A    between atoms: C_7  and  C_31
REMARK    3  A    between atoms: C_11  and  C_13
REMARK    4  A    between atoms: C_18  and  O_34
REMARK    5  A    between atoms: N_19  and  C_21
REMARK    6  A    between atoms: C_24  and  C_27
REMARK    7  A    between atoms: C_27  and  N_28
REMARK                            x       y       z     vdW  Elec       q    Type
REMARK                         _______ _______ _______ _____ _____    ______ ____
ROOT
ATOM      1  N   UNL     1       6.513  31.144  15.736  0.00  0.00    +0.000 NA
ATOM      2  N   UNL     1       8.754  33.987  16.232  0.00  0.00    +0.000 NA
ATOM      3  C   UNL     1       8.943  31.246  15.619  0.00  0.00    +0.000 A 
ATOM      4  C   UNL     1       7.670  31.847  15.811  0.00  0.00    +0.000 A 
ATOM      5  C   UNL     1      10.090  32.055  15.749  0.00  0.00    +0.000 A 
ATOM      6  C   UNL     1       7.655  33.224  16.118  0.00  0.00    +0.000 A 
ATOM      7  C   UNL     1       9.946  33.391  16.049  0.00  0.00    +0.000 A 
ATOM      8  C   UNL     1       6.421  33.818  16.318  0.00  0.00    +0.000 A 
ATOM      9  C   UNL     1       5.317  31.753  15.927  0.00  0.00    +0.000 A 
ATOM     10  C   UNL     1       5.238  33.100  16.224  0.00  0.00    +0.000 A 
ENDROOT
BRANCH   9  13
ATOM     11 CL   UNL     1       0.276  31.087  16.842  0.00  0.00    +0.000 Cl
ATOM     12 CL   UNL     1       3.242  27.330  14.239  0.00  0.00    +0.000 Cl
ATOM     13  C   UNL     1       4.131  30.906  15.782  0.00  0.00    +0.000 A 
ATOM     14  C   UNL     1       4.190  29.656  15.154  0.00  0.00    +0.000 A 
ATOM     15  C   UNL     1       2.889  31.316  16.286  0.00  0.00    +0.000 A 
ATOM     16  C   UNL     1       1.755  30.515  16.174  0.00  0.00    +0.000 A 
ATOM     17  C   UNL     1       3.059  28.848  15.031  0.00  0.00    +0.000 A 
ATOM     18  C   UNL     1       1.833  29.275  15.543  0.00  0.00    +0.000 A 
BRANCH  18  19
ATOM     19  O   UNL     1       0.727  28.475  15.422  0.00  0.00    +0.000 OA
ATOM     20  H   UNL     1       1.007  27.619  15.048  0.00  0.00    +0.000 HD
ENDBRANCH  18  19
ENDBRANCH   9  13
BRANCH   5  21
ATOM     21  C   UNL     1      11.450  31.537  15.620  0.00  0.00    +0.000 C 
ATOM     22  O   UNL     1      11.920  31.049  14.606  0.00  0.00    +0.000 OA
ATOM     23  C   UNL     1      12.439  31.496  16.745  0.00  0.00    +0.000 C 
ENDBRANCH   5  21
BRANCH   3  24
ATOM     24  N   UNL     1       9.107  29.886  15.201  0.00  0.00    +0.000 N 
ATOM     25  H   UNL     1       9.326  29.771  14.207  0.00  0.00    +0.000 HD
BRANCH  24  26
ATOM     26  C   UNL     1       9.467  28.811  15.965  0.00  0.00    +0.000 A 
ATOM     27  C   UNL     1       9.662  29.030  17.376  0.00  0.00    +0.000 A 
ATOM     28  C   UNL     1      10.790  28.422  18.249  0.00  0.00    +0.000 A 
ATOM     29  C   UNL     1      11.827  27.544  17.763  0.00  0.00    +0.000 A 
ATOM     30  C   UNL     1      11.650  27.344  16.346  0.00  0.00    +0.000 A 
ATOM     31  C   UNL     1      10.522  27.955  15.479  0.00  0.00    +0.000 A 
BRANCH  29  32
ATOM     32  C   UNL     1      12.776  26.875  18.567  0.00  0.00    +0.000 C 
BRANCH  32  33
ATOM     33  N   UNL     1      13.766  26.191  19.381  0.00  0.00    +0.000 NA
ATOM     34  C   UNL     1      14.756  27.177  19.781  0.00  0.00    +0.000 C 
ATOM     35  C   UNL     1      14.442  25.230  18.525  0.00  0.00    +0.000 C 
ENDBRANCH  32  33
ENDBRANCH  29  32
ENDBRANCH  24  26
ENDBRANCH   3  24
TORSDOF 7
ENDMDL
MODEL 2
REMARK VINA RESULT:      -7.7     14.950     19.479
REMARK  Name = OTSSP167.pdbqt.pdb
REMARK  7 active torsions:
REMARK  status: ('A' for Active; 'I' for Inactive)
REMARK    1  A    between atoms: C_5  and  N_19
REMARK    2  A    between atoms: C_7  and  C_31
REMARK    3  A    between atoms: C_11  and  C_13
REMARK    4  A    between atoms: C_18  and  O_34
REMARK    5  A    between atoms: N_19  and  C_21
REMARK    6  A    between atoms: C_24  and  C_27
REMARK    7  A    between atoms: C_27  and  N_28
REMARK                            x       y       z     vdW  Elec       q    Type
REMARK                         _______ _______ _______ _____ _____    ______ ____
ROOT
ATOM      1  N   UNL     1      -5.807  41.362  17.413  0.00  0.00    +0.000 NA
ATOM      2  N   UNL     1      -2.213  41.058  17.998  0.00  0.00    +0.000 NA
ATOM      3  C   UNL     1      -4.015  40.857  15.844  0.00  0.00    +0.000 A 
ATOM      4  C   UNL     1      -4.491  41.173  17.145  0.00  0.00    +0.000 A 
ATOM      5  C   UNL     1      -2.631  40.647  15.673  0.00  0.00    +0.000 A 
ATOM      6  C   UNL     1      -3.530  41.253  18.175  0.00  0.00    +0.000 A 
ATOM      7  C   UNL     1      -1.790  40.758  16.757  0.00  0.00    +0.000 A 
ATOM      8  C   UNL     1      -3.984  41.549  19.447  0.00  0.00    +0.000 A 
ATOM      9  C   UNL     1      -6.224  41.661  18.668  0.00  0.00    +0.000 A 
ATOM     10  C   UNL     1      -5.329  41.759  19.716  0.00  0.00    +0.000 A 
ENDROOT
BRANCH   9  13
ATOM     11 CL   UNL     1     -11.000  40.987  16.818  0.00  0.00    +0.000 Cl
ATOM     12 CL   UNL     1     -10.070  43.724  21.437  0.00  0.00    +0.000 Cl
ATOM     13  C   UNL     1      -7.662  41.884  18.835  0.00  0.00    +0.000 A 
ATOM     14  C   UNL     1      -8.175  42.606  19.919  0.00  0.00    +0.000 A 
ATOM     15  C   UNL     1      -8.578  41.391  17.897  0.00  0.00    +0.000 A 
ATOM     16  C   UNL     1      -9.947  41.609  18.029  0.00  0.00    +0.000 A 
ATOM     17  C   UNL     1      -9.545  42.826  20.065  0.00  0.00    +0.000 A 
ATOM     18  C   UNL     1     -10.440  42.328  19.117  0.00  0.00    +0.000 A 
BRANCH  18  19
ATOM     19  O   UNL     1     -11.784  42.551  19.264  0.00  0.00    +0.000 OA
ATOM     20  H   UNL     1     -12.136  42.874  18.413  0.00  0.00    +0.000 HD
ENDBRANCH  18  19
ENDBRANCH   9  13
BRANCH   5  21
ATOM     21  C   UNL     1      -2.034  40.272  14.393  0.00  0.00    +0.000 C 
ATOM     22  O   UNL     1      -1.673  41.058  13.532  0.00  0.00    +0.000 OA
ATOM     23  C   UNL     1      -1.831  38.856  13.948  0.00  0.00    +0.000 C 
ENDBRANCH   5  21
BRANCH   3  24
ATOM     24  N   UNL     1      -4.859  40.844  14.687  0.00  0.00    +0.000 N 
ATOM     25  H   UNL     1      -5.326  39.950  14.512  0.00  0.00    +0.000 HD
BRANCH  24  26
ATOM     26  C   UNL     1      -5.475  41.907  14.086  0.00  0.00    +0.000 A 
ATOM     27  C   UNL     1      -6.018  41.705  12.768  0.00  0.00    +0.000 A 
ATOM     28  C   UNL     1      -5.944  42.705  11.585  0.00  0.00    +0.000 A 
ATOM     29  C   UNL     1      -5.302  43.996  11.635  0.00  0.00    +0.000 A 
ATOM     30  C   UNL     1      -4.735  44.190  12.946  0.00  0.00    +0.000 A 
ATOM     31  C   UNL     1      -4.810  43.187  14.123  0.00  0.00    +0.000 A 
BRANCH  29  32
ATOM     32  C   UNL     1      -5.344  44.971  10.614  0.00  0.00    +0.000 C 
BRANCH  32  33
ATOM     33  N   UNL     1      -5.370  45.970   9.560  0.00  0.00    +0.000 NA
ATOM     34  C   UNL     1      -5.088  45.287   8.307  0.00  0.00    +0.000 C 
ATOM     35  C   UNL     1      -4.268  46.886   9.803  0.00  0.00    +0.000 C 
ENDBRANCH  32  33
ENDBRANCH  29  32
ENDBRANCH  24  26
ENDBRANCH   3  24
TORSDOF 7
ENDMDL
MODEL 3
REMARK VINA RESULT:      -7.5     19.215     21.520
REMARK  Name = OTSSP167.pdbqt.pdb
REMARK  7 active torsions:
REMARK  status: ('A' for Active; 'I' for Inactive)
REMARK    1  A    between atoms: C_5  and  N_19
REMARK    2  A    between atoms: C_7  and  C_31
REMARK    3  A    between atoms: C_11  and  C_13
REMARK    4  A    between atoms: C_18  and  O_34
REMARK    5  A    between atoms: N_19  and  C_21
REMARK    6  A    between atoms: C_24  and  C_27
REMARK    7  A    between atoms: C_27  and  N_28
REMARK                            x       y       z     vdW  Elec       q    Type
REMARK                         _______ _______ _______ _____ _____    ______ ____
ROOT
ATOM      1  N   UNL     1      -9.126  41.123  15.819  0.00  0.00    +0.000 NA
ATOM      2  N   UNL     1     -11.787  40.028  13.568  0.00  0.00    +0.000 NA
ATOM      3  C   UNL     1      -9.003  40.438  13.486  0.00  0.00    +0.000 A 
ATOM      4  C   UNL     1      -9.723  40.674  14.687  0.00  0.00    +0.000 A 
ATOM      5  C   UNL     1      -9.720  40.002  12.353  0.00  0.00    +0.000 A 
ATOM      6  C   UNL     1     -11.116  40.450  14.651  0.00  0.00    +0.000 A 
ATOM      7  C   UNL     1     -11.081  39.814  12.443  0.00  0.00    +0.000 A 
ATOM      8  C   UNL     1     -11.829  40.688  15.813  0.00  0.00    +0.000 A 
ATOM      9  C   UNL     1      -9.847  41.340  16.946  0.00  0.00    +0.000 A 
ATOM     10  C   UNL     1     -11.213  41.132  16.974  0.00  0.00    +0.000 A 
ENDROOT
BRANCH   9  13
ATOM     11 CL   UNL     1      -5.295  41.624  19.372  0.00  0.00    +0.000 Cl
ATOM     12 CL   UNL     1      -9.853  43.639  21.576  0.00  0.00    +0.000 Cl
ATOM     13  C   UNL     1      -9.092  41.785  18.120  0.00  0.00    +0.000 A 
ATOM     14  C   UNL     1      -9.714  42.435  19.193  0.00  0.00    +0.000 A 
ATOM     15  C   UNL     1      -7.713  41.561  18.214  0.00  0.00    +0.000 A 
ATOM     16  C   UNL     1      -6.982  41.961  19.330  0.00  0.00    +0.000 A 
ATOM     17  C   UNL     1      -8.991  42.846  20.313  0.00  0.00    +0.000 A 
ATOM     18  C   UNL     1      -7.618  42.610  20.387  0.00  0.00    +0.000 A 
BRANCH  18  19
ATOM     19  O   UNL     1      -6.914  43.012  21.492  0.00  0.00    +0.000 OA
ATOM     20  H   UNL     1      -7.524  43.483  22.090  0.00  0.00    +0.000 HD
ENDBRANCH  18  19
ENDBRANCH   9  13
BRANCH   5  21
ATOM     21  C   UNL     1      -9.094  39.771  11.053  0.00  0.00    +0.000 C 
ATOM     22  O   UNL     1      -8.587  38.720  10.696  0.00  0.00    +0.000 OA
ATOM     23  C   UNL     1      -8.949  40.824   9.996  0.00  0.00    +0.000 C 
ENDBRANCH   5  21
BRANCH   3  24
ATOM     24  N   UNL     1      -7.576  40.522  13.403  0.00  0.00    +0.000 N 
ATOM     25  H   UNL     1      -7.114  39.647  13.141  0.00  0.00    +0.000 HD
BRANCH  24  26
ATOM     26  C   UNL     1      -6.814  41.632  13.167  0.00  0.00    +0.000 A 
ATOM     27  C   UNL     1      -7.491  42.901  13.078  0.00  0.00    +0.000 A 
ATOM     28  C   UNL     1      -7.187  44.031  12.062  0.00  0.00    +0.000 A 
ATOM     29  C   UNL     1      -6.172  43.969  11.037  0.00  0.00    +0.000 A 
ATOM     30  C   UNL     1      -5.510  42.690  11.107  0.00  0.00    +0.000 A 
ATOM     31  C   UNL     1      -5.819  41.564  12.124  0.00  0.00    +0.000 A 
BRANCH  29  32
ATOM     32  C   UNL     1      -5.791  45.038  10.196  0.00  0.00    +0.000 C 
BRANCH  32  33
ATOM     33  N   UNL     1      -5.382  46.131   9.332  0.00  0.00    +0.000 NA
ATOM     34  C   UNL     1      -4.973  45.552   8.063  0.00  0.00    +0.000 C 
ATOM     35  C   UNL     1      -4.200  46.733   9.926  0.00  0.00    +0.000 C 
ENDBRANCH  32  33
ENDBRANCH  29  32
ENDBRANCH  24  26
ENDBRANCH   3  24
TORSDOF 7
ENDMDL
MODEL 4
REMARK VINA RESULT:      -7.3     18.792     21.460
REMARK  Name = OTSSP167.pdbqt.pdb
REMARK  7 active torsions:
REMARK  status: ('A' for Active; 'I' for Inactive)
REMARK    1  A    between atoms: C_5  and  N_19
REMARK    2  A    between atoms: C_7  and  C_31
REMARK    3  A    between atoms: C_11  and  C_13
REMARK    4  A    between atoms: C_18  and  O_34
REMARK    5  A    between atoms: N_19  and  C_21
REMARK    6  A    between atoms: C_24  and  C_27
REMARK    7  A    between atoms: C_27  and  N_28
REMARK                            x       y       z     vdW  Elec       q    Type
REMARK                         _______ _______ _______ _____ _____    ______ ____
ROOT
ATOM      1  N   UNL     1      -9.276  40.433  13.749  0.00  0.00    +0.000 NA
ATOM      2  N   UNL     1     -12.832  39.687  13.361  0.00  0.00    +0.000 NA
ATOM      3  C   UNL     1     -10.489  39.614  11.803  0.00  0.00    +0.000 A 
ATOM      4  C   UNL     1     -10.430  40.032  13.158  0.00  0.00    +0.000 A 
ATOM      5  C   UNL     1     -11.742  39.246  11.271  0.00  0.00    +0.000 A 
ATOM      6  C   UNL     1     -11.645  40.047  13.876  0.00  0.00    +0.000 A 
ATOM      7  C   UNL     1     -12.860  39.298  12.074  0.00  0.00    +0.000 A 
ATOM      8  C   UNL     1     -11.601  40.464  15.194  0.00  0.00    +0.000 A 
ATOM      9  C   UNL     1      -9.260  40.828  15.045  0.00  0.00    +0.000 A 
ATOM     10  C   UNL     1     -10.417  40.857  15.800  0.00  0.00    +0.000 A 
ENDROOT
BRANCH   9  13
ATOM     11 CL   UNL     1      -4.372  42.223  14.123  0.00  0.00    +0.000 Cl
ATOM     12 CL   UNL     1      -6.270  41.592  19.192  0.00  0.00    +0.000 Cl
ATOM     13  C   UNL     1      -7.952  41.201  15.590  0.00  0.00    +0.000 A 
ATOM     14  C   UNL     1      -7.710  41.235  16.968  0.00  0.00    +0.000 A 
ATOM     15  C   UNL     1      -6.886  41.524  14.740  0.00  0.00    +0.000 A 
ATOM     16  C   UNL     1      -5.631  41.863  15.240  0.00  0.00    +0.000 A 
ATOM     17  C   UNL     1      -6.459  41.579  17.480  0.00  0.00    +0.000 A 
ATOM     18  C   UNL     1      -5.410  41.894  16.616  0.00  0.00    +0.000 A 
BRANCH  18  19
ATOM     19  O   UNL     1      -4.182  42.227  17.124  0.00  0.00    +0.000 OA
ATOM     20  H   UNL     1      -4.134  41.908  18.044  0.00  0.00    +0.000 HD
ENDBRANCH  18  19
ENDBRANCH   9  13
BRANCH   5  21
ATOM     21  C   UNL     1     -11.932  38.844   9.879  0.00  0.00    +0.000 C 
ATOM     22  O   UNL     1     -11.501  37.817   9.383  0.00  0.00    +0.000 OA
ATOM     23  C   UNL     1     -12.647  39.676   8.859  0.00  0.00    +0.000 C 
ENDBRANCH   5  21
BRANCH   3  24
ATOM     24  N   UNL     1      -9.324  39.450  10.986  0.00  0.00    +0.000 N 
ATOM     25  H   UNL     1      -9.261  38.544  10.513  0.00  0.00    +0.000 HD
BRANCH  24  26
ATOM     26  C   UNL     1      -8.570  40.426  10.395  0.00  0.00    +0.000 A 
ATOM     27  C   UNL     1      -7.137  40.296  10.467  0.00  0.00    +0.000 A 
ATOM     28  C   UNL     1      -6.127  41.443  10.728  0.00  0.00    +0.000 A 
ATOM     29  C   UNL     1      -6.485  42.824  10.948  0.00  0.00    +0.000 A 
ATOM     30  C   UNL     1      -7.920  42.952  10.903  0.00  0.00    +0.000 A 
ATOM     31  C   UNL     1      -8.924  41.802  10.644  0.00  0.00    +0.000 A 
BRANCH  29  32
ATOM     32  C   UNL     1      -5.575  43.899  11.050  0.00  0.00    +0.000 C 
BRANCH  32  33
ATOM     33  N   UNL     1      -4.649  45.014  11.141  0.00  0.00    +0.000 NA
ATOM     34  C   UNL     1      -5.352  46.112  11.784  0.00  0.00    +0.000 C 
ATOM     35  C   UNL     1      -4.347  45.439   9.784  0.00  0.00    +0.000 C 
ENDBRANCH  32  33
ENDBRANCH  29  32
ENDBRANCH  24  26
ENDBRANCH   3  24
TORSDOF 7
ENDMDL
MODEL 5
REMARK VINA RESULT:      -7.1     17.663     20.448
REMARK  Name = OTSSP167.pdbqt.pdb
REMARK  7 active torsions:
REMARK  status: ('A' for Active; 'I' for Inactive)
REMARK    1  A    between atoms: C_5  and  N_19
REMARK    2  A    between atoms: C_7  and  C_31
REMARK    3  A    between atoms: C_11  and  C_13
REMARK    4  A    between atoms: C_18  and  O_34
REMARK    5  A    between atoms: N_19  and  C_21
REMARK    6  A    between atoms: C_24  and  C_27
REMARK    7  A    between atoms: C_27  and  N_28
REMARK                            x       y       z     vdW  Elec       q    Type
REMARK                         _______ _______ _______ _____ _____    ______ ____
ROOT
ATOM      1  N   UNL     1      -8.091  40.911  14.900  0.00  0.00    +0.000 NA
ATOM      2  N   UNL     1      -6.129  41.471  17.931  0.00  0.00    +0.000 NA
ATOM      3  C   UNL     1      -5.765  41.591  15.142  0.00  0.00    +0.000 A 
ATOM      4  C   UNL     1      -7.029  41.232  15.681  0.00  0.00    +0.000 A 
ATOM      5  C   UNL     1      -4.714  41.876  16.038  0.00  0.00    +0.000 A 
ATOM      6  C   UNL     1      -7.135  41.190  17.088  0.00  0.00    +0.000 A 
ATOM      7  C   UNL     1      -4.942  41.805  17.394  0.00  0.00    +0.000 A 
ATOM      8  C   UNL     1      -8.359  40.830  17.623  0.00  0.00    +0.000 A 
ATOM      9  C   UNL     1      -9.281  40.571  15.451  0.00  0.00    +0.000 A 
ATOM     10  C   UNL     1      -9.448  40.519  16.821  0.00  0.00    +0.000 A 
ENDROOT
BRANCH   9  13
ATOM     11 CL   UNL     1     -14.274  39.442  14.749  0.00  0.00    +0.000 Cl
ATOM     12 CL   UNL     1     -10.815  39.890  10.562  0.00  0.00    +0.000 Cl
ATOM     13  C   UNL     1     -10.368  40.283  14.512  0.00  0.00    +0.000 A 
ATOM     14  C   UNL     1     -10.152  40.224  13.130  0.00  0.00    +0.000 A 
ATOM     15  C   UNL     1     -11.670  40.042  14.972  0.00  0.00    +0.000 A 
ATOM     16  C   UNL     1     -12.711  39.749  14.095  0.00  0.00    +0.000 A 
ATOM     17  C   UNL     1     -11.190  39.937  12.242  0.00  0.00    +0.000 A 
ATOM     18  C   UNL     1     -12.477  39.696  12.722  0.00  0.00    +0.000 A 
BRANCH  18  19
ATOM     19  O   UNL     1     -13.491  39.411  11.846  0.00  0.00    +0.000 OA
ATOM     20  H   UNL     1     -14.314  39.806  12.190  0.00  0.00    +0.000 HD
ENDBRANCH  18  19
ENDBRANCH   9  13
BRANCH   5  21
ATOM     21  C   UNL     1      -3.361  42.211  15.600  0.00  0.00    +0.000 C 
ATOM     22  O   UNL     1      -2.693  41.549  14.824  0.00  0.00    +0.000 OA
ATOM     23  C   UNL     1      -2.593  43.400  16.092  0.00  0.00    +0.000 C 
ENDBRANCH   5  21
BRANCH   3  24
ATOM     24  N   UNL     1      -5.539  41.775  13.740  0.00  0.00    +0.000 N 
ATOM     25  H   UNL     1      -5.429  40.906  13.210  0.00  0.00    +0.000 HD
BRANCH  24  26
ATOM     26  C   UNL     1      -5.899  42.843  12.966  0.00  0.00    +0.000 A 
ATOM     27  C   UNL     1      -6.293  42.578  11.605  0.00  0.00    +0.000 A 
ATOM     28  C   UNL     1      -5.911  43.422  10.362  0.00  0.00    +0.000 A 
ATOM     29  C   UNL     1      -5.087  44.606  10.390  0.00  0.00    +0.000 A 
ATOM     30  C   UNL     1      -4.670  44.859  11.747  0.00  0.00    +0.000 A 
ATOM     31  C   UNL     1      -5.053  44.012  12.985  0.00  0.00    +0.000 A 
BRANCH  29  32
ATOM     32  C   UNL     1      -4.844  45.460   9.292  0.00  0.00    +0.000 C 
BRANCH  32  33
ATOM     33  N   UNL     1      -4.614  46.339   8.158  0.00  0.00    +0.000 NA
ATOM     34  C   UNL     1      -3.269  46.077   7.671  0.00  0.00    +0.000 C 
ATOM     35  C   UNL     1      -4.627  47.704   8.658  0.00  0.00    +0.000 C 
ENDBRANCH  32  33
ENDBRANCH  29  32
ENDBRANCH  24  26
ENDBRANCH   3  24
TORSDOF 7
ENDMDL
MODEL 6
REMARK VINA RESULT:      -7.1     15.367     19.950
REMARK  Name = OTSSP167.pdbqt.pdb
REMARK  7 active torsions:
REMARK  status: ('A' for Active; 'I' for Inactive)
REMARK    1  A    between atoms: C_5  and  N_19
REMARK    2  A    between atoms: C_7  and  C_31
REMARK    3  A    between atoms: C_11  and  C_13
REMARK    4  A    between atoms: C_18  and  O_34
REMARK    5  A    between atoms: N_19  and  C_21
REMARK    6  A    between atoms: C_24  and  C_27
REMARK    7  A    between atoms: C_27  and  N_28
REMARK                            x       y       z     vdW  Elec       q    Type
REMARK                         _______ _______ _______ _____ _____    ______ ____
ROOT
ATOM      1  N   UNL     1      -9.184  41.679  15.748  0.00  0.00    +0.000 NA
ATOM      2  N   UNL     1     -10.433  39.961  12.774  0.00  0.00    +0.000 NA
ATOM      3  C   UNL     1      -8.260  41.599  13.497  0.00  0.00    +0.000 A 
ATOM      4  C   UNL     1      -9.235  41.240  14.465  0.00  0.00    +0.000 A 
ATOM      5  C   UNL     1      -8.418  41.117  12.181  0.00  0.00    +0.000 A 
ATOM      6  C   UNL     1     -10.297  40.420  14.029  0.00  0.00    +0.000 A 
ATOM      7  C   UNL     1      -9.497  40.318  11.876  0.00  0.00    +0.000 A 
ATOM      8  C   UNL     1     -11.258  40.074  14.962  0.00  0.00    +0.000 A 
ATOM      9  C   UNL     1     -10.135  41.317  16.644  0.00  0.00    +0.000 A 
ATOM     10  C   UNL     1     -11.195  40.510  16.277  0.00  0.00    +0.000 A 
ENDROOT
BRANCH   9  13
ATOM     11 CL   UNL     1      -6.881  42.618  20.440  0.00  0.00    +0.000 Cl
ATOM     12 CL   UNL     1     -12.286  42.927  21.059  0.00  0.00    +0.000 Cl
ATOM     13  C   UNL     1      -9.958  41.816  18.010  0.00  0.00    +0.000 A 
ATOM     14  C   UNL     1     -11.050  42.119  18.831  0.00  0.00    +0.000 A 
ATOM     15  C   UNL     1      -8.677  41.994  18.548  0.00  0.00    +0.000 A 
ATOM     16  C   UNL     1      -8.490  42.450  19.851  0.00  0.00    +0.000 A 
ATOM     17  C   UNL     1     -10.875  42.582  20.135  0.00  0.00    +0.000 A 
ATOM     18  C   UNL     1      -9.590  42.749  20.653  0.00  0.00    +0.000 A 
BRANCH  18  19
ATOM     19  O   UNL     1      -9.424  43.201  21.936  0.00  0.00    +0.000 OA
ATOM     20  H   UNL     1      -9.563  42.452  22.545  0.00  0.00    +0.000 HD
ENDBRANCH  18  19
ENDBRANCH   9  13
BRANCH   5  21
ATOM     21  C   UNL     1      -7.505  41.458  11.092  0.00  0.00    +0.000 C 
ATOM     22  O   UNL     1      -7.165  42.590  10.791  0.00  0.00    +0.000 OA
ATOM     23  C   UNL     1      -6.899  40.450  10.162  0.00  0.00    +0.000 C 
ENDBRANCH   5  21
BRANCH   3  24
ATOM     24  N   UNL     1      -7.076  42.337  13.818  0.00  0.00    +0.000 N 
ATOM     25  H   UNL     1      -7.202  43.353  13.840  0.00  0.00    +0.000 HD
BRANCH  24  26
ATOM     26  C   UNL     1      -5.986  41.909  14.525  0.00  0.00    +0.000 A 
ATOM     27  C   UNL     1      -5.169  42.910  15.163  0.00  0.00    +0.000 A 
ATOM     28  C   UNL     1      -3.620  42.921  15.225  0.00  0.00    +0.000 A 
ATOM     29  C   UNL     1      -2.763  41.921  14.636  0.00  0.00    +0.000 A 
ATOM     30  C   UNL     1      -3.576  40.932  13.975  0.00  0.00    +0.000 A 
ATOM     31  C   UNL     1      -5.124  40.926  13.914  0.00  0.00    +0.000 A 
BRANCH  29  32
ATOM     32  C   UNL     1      -1.362  41.845  14.801  0.00  0.00    +0.000 C 
BRANCH  32  33
ATOM     33  N   UNL     1       0.078  41.783  14.978  0.00  0.00    +0.000 NA
ATOM     34  C   UNL     1       0.379  40.540  15.668  0.00  0.00    +0.000 C 
ATOM     35  C   UNL     1       0.452  42.868  15.870  0.00  0.00    +0.000 C 
ENDBRANCH  32  33
ENDBRANCH  29  32
ENDBRANCH  24  26
ENDBRANCH   3  24
TORSDOF 7
ENDMDL
MODEL 7
REMARK VINA RESULT:      -7.1     19.453     22.812
REMARK  Name = OTSSP167.pdbqt.pdb
REMARK  7 active torsions:
REMARK  status: ('A' for Active; 'I' for Inactive)
REMARK    1  A    between atoms: C_5  and  N_19
REMARK    2  A    between atoms: C_7  and  C_31
REMARK    3  A    between atoms: C_11  and  C_13
REMARK    4  A    between atoms: C_18  and  O_34
REMARK    5  A    between atoms: N_19  and  C_21
REMARK    6  A    between atoms: C_24  and  C_27
REMARK    7  A    between atoms: C_27  and  N_28
REMARK                            x       y       z     vdW  Elec       q    Type
REMARK                         _______ _______ _______ _____ _____    ______ ____
ROOT
ATOM      1  N   UNL     1     -12.065  40.191  12.614  0.00  0.00    +0.000 NA
ATOM      2  N   UNL     1      -9.187  39.098  10.647  0.00  0.00    +0.000 NA
ATOM      3  C   UNL     1      -9.718  40.802  12.824  0.00  0.00    +0.000 A 
ATOM      4  C   UNL     1     -10.775  40.079  12.210  0.00  0.00    +0.000 A 
ATOM      5  C   UNL     1      -8.414  40.642  12.311  0.00  0.00    +0.000 A 
ATOM      6  C   UNL     1     -10.433  39.248  11.122  0.00  0.00    +0.000 A 
ATOM      7  C   UNL     1      -8.204  39.796  11.245  0.00  0.00    +0.000 A 
ATOM      8  C   UNL     1     -11.457  38.549  10.510  0.00  0.00    +0.000 A 
ATOM      9  C   UNL     1     -13.048  39.486  12.001  0.00  0.00    +0.000 A 
ATOM     10  C   UNL     1     -12.774  38.652  10.935  0.00  0.00    +0.000 A 
ENDROOT
BRANCH   9  13
ATOM     11 CL   UNL     1     -17.998  38.006  11.963  0.00  0.00    +0.000 Cl
ATOM     12 CL   UNL     1     -16.219  41.993  15.223  0.00  0.00    +0.000 Cl
ATOM     13  C   UNL     1     -14.398  39.653  12.546  0.00  0.00    +0.000 A 
ATOM     14  C   UNL     1     -14.685  40.617  13.520  0.00  0.00    +0.000 A 
ATOM     15  C   UNL     1     -15.458  38.856  12.096  0.00  0.00    +0.000 A 
ATOM     16  C   UNL     1     -16.750  39.013  12.590  0.00  0.00    +0.000 A 
ATOM     17  C   UNL     1     -15.975  40.779  14.026  0.00  0.00    +0.000 A 
ATOM     18  C   UNL     1     -17.017  39.976  13.561  0.00  0.00    +0.000 A 
BRANCH  18  19
ATOM     19  O   UNL     1     -18.282  40.143  14.059  0.00  0.00    +0.000 OA
ATOM     20  H   UNL     1     -18.595  39.283  14.396  0.00  0.00    +0.000 HD
ENDBRANCH  18  19
ENDBRANCH   9  13
BRANCH   5  21
ATOM     21  C   UNL     1      -7.258  41.368  12.832  0.00  0.00    +0.000 C 
ATOM     22  O   UNL     1      -7.030  42.551  12.641  0.00  0.00    +0.000 OA
ATOM     23  C   UNL     1      -6.164  40.732  13.636  0.00  0.00    +0.000 C 
ENDBRANCH   5  21
BRANCH   3  24
ATOM     24  N   UNL     1      -9.898  41.600  13.999  0.00  0.00    +0.000 N 
ATOM     25  H   UNL     1     -10.305  42.523  13.827  0.00  0.00    +0.000 HD
BRANCH  24  26
ATOM     26  C   UNL     1     -10.048  41.172  15.289  0.00  0.00    +0.000 A 
ATOM     27  C   UNL     1     -11.112  41.755  16.067  0.00  0.00    +0.000 A 
ATOM     28  C   UNL     1     -11.030  42.179  17.556  0.00  0.00    +0.000 A 
ATOM     29  C   UNL     1      -9.855  42.058  18.385  0.00  0.00    +0.000 A 
ATOM     30  C   UNL     1      -8.781  41.499  17.603  0.00  0.00    +0.000 A 
ATOM     31  C   UNL     1      -8.868  41.078  16.115  0.00  0.00    +0.000 A 
BRANCH  29  32
ATOM     32  C   UNL     1      -9.804  42.310  19.774  0.00  0.00    +0.000 C 
BRANCH  32  33
ATOM     33  N   UNL     1      -9.755  42.552  21.205  0.00  0.00    +0.000 NA
ATOM     34  C   UNL     1     -10.703  43.615  21.499  0.00  0.00    +0.000 C 
ATOM     35  C   UNL     1      -8.431  43.065  21.513  0.00  0.00    +0.000 C 
ENDBRANCH  32  33
ENDBRANCH  29  32
ENDBRANCH  24  26
ENDBRANCH   3  24
TORSDOF 7
ENDMDL
MODEL 8
REMARK VINA RESULT:      -6.8     20.052     22.342
REMARK  Name = OTSSP167.pdbqt.pdb
REMARK  7 active torsions:
REMARK  status: ('A' for Active; 'I' for Inactive)
REMARK    1  A    between atoms: C_5  and  N_19
REMARK    2  A    between atoms: C_7  and  C_31
REMARK    3  A    between atoms: C_11  and  C_13
REMARK    4  A    between atoms: C_18  and  O_34
REMARK    5  A    between atoms: N_19  and  C_21
REMARK    6  A    between atoms: C_24  and  C_27
REMARK    7  A    between atoms: C_27  and  N_28
REMARK                            x       y       z     vdW  Elec       q    Type
REMARK                         _______ _______ _______ _____ _____    ______ ____
ROOT
ATOM      1  N   UNL     1     -11.123  40.248  13.689  0.00  0.00    +0.000 NA
ATOM      2  N   UNL     1     -14.313  39.666  12.005  0.00  0.00    +0.000 NA
ATOM      3  C   UNL     1     -11.573  39.244  11.517  0.00  0.00    +0.000 A 
ATOM      4  C   UNL     1     -11.996  39.839  12.735  0.00  0.00    +0.000 A 
ATOM      5  C   UNL     1     -12.557  38.882  10.574  0.00  0.00    +0.000 A 
ATOM      6  C   UNL     1     -13.385  40.022  12.908  0.00  0.00    +0.000 A 
ATOM      7  C   UNL     1     -13.885  39.107  10.859  0.00  0.00    +0.000 A 
ATOM      8  C   UNL     1     -13.807  40.611  14.086  0.00  0.00    +0.000 A 
ATOM      9  C   UNL     1     -11.565  40.814  14.839  0.00  0.00    +0.000 A 
ATOM     10  C   UNL     1     -12.913  41.013  15.067  0.00  0.00    +0.000 A 
ENDROOT
BRANCH   9  13
ATOM     11 CL   UNL     1      -6.547  41.494  15.861  0.00  0.00    +0.000 Cl
ATOM     12 CL   UNL     1     -10.378  42.244  19.662  0.00  0.00    +0.000 Cl
ATOM     13  C   UNL     1     -10.536  41.180  15.815  0.00  0.00    +0.000 A 
ATOM     14  C   UNL     1     -10.858  41.513  17.136  0.00  0.00    +0.000 A 
ATOM     15  C   UNL     1      -9.181  41.196  15.458  0.00  0.00    +0.000 A 
ATOM     16  C   UNL     1      -8.188  41.523  16.378  0.00  0.00    +0.000 A 
ATOM     17  C   UNL     1      -9.872  41.849  18.064  0.00  0.00    +0.000 A 
ATOM     18  C   UNL     1      -8.529  41.855  17.689  0.00  0.00    +0.000 A 
BRANCH  18  19
ATOM     19  O   UNL     1      -7.565  42.181  18.605  0.00  0.00    +0.000 OA
ATOM     20  H   UNL     1      -6.704  42.211  18.148  0.00  0.00    +0.000 HD
ENDBRANCH  18  19
ENDBRANCH   9  13
BRANCH   5  21
ATOM     21  C   UNL     1     -12.237  38.305   9.269  0.00  0.00    +0.000 C 
ATOM     22  O   UNL     1     -11.491  37.359   9.086  0.00  0.00    +0.000 OA
ATOM     23  C   UNL     1     -12.755  38.841   7.969  0.00  0.00    +0.000 C 
ENDBRANCH   5  21
BRANCH   3  24
ATOM     24  N   UNL     1     -10.208  38.903  11.249  0.00  0.00    +0.000 N 
ATOM     25  H   UNL     1     -10.068  37.946  10.913  0.00  0.00    +0.000 HD
BRANCH  24  26
ATOM     26  C   UNL     1      -9.179  39.746  10.934  0.00  0.00    +0.000 A 
ATOM     27  C   UNL     1      -8.078  39.830  11.860  0.00  0.00    +0.000 A 
ATOM     28  C   UNL     1      -7.332  41.123  12.277  0.00  0.00    +0.000 A 
ATOM     29  C   UNL     1      -7.644  42.448  11.799  0.00  0.00    +0.000 A 
ATOM     30  C   UNL     1      -8.762  42.371  10.892  0.00  0.00    +0.000 A 
ATOM     31  C   UNL     1      -9.505  41.076  10.479  0.00  0.00    +0.000 A 
BRANCH  29  32
ATOM     32  C   UNL     1      -6.890  43.612  12.062  0.00  0.00    +0.000 C 
BRANCH  32  33
ATOM     33  N   UNL     1      -6.100  44.799  12.342  0.00  0.00    +0.000 NA
ATOM     34  C   UNL     1      -4.740  44.530  11.904  0.00  0.00    +0.000 C 
ATOM     35  C   UNL     1      -6.059  44.962  13.786  0.00  0.00    +0.000 C 
ENDBRANCH  32  33
ENDBRANCH  29  32
ENDBRANCH  24  26
ENDBRANCH   3  24
TORSDOF 7
ENDMDL
MODEL 9
REMARK VINA RESULT:      -6.8     16.632     20.988
REMARK  Name = OTSSP167.pdbqt.pdb
REMARK  7 active torsions:
REMARK  status: ('A' for Active; 'I' for Inactive)
REMARK    1  A    between atoms: C_5  and  N_19
REMARK    2  A    between atoms: C_7  and  C_31
REMARK    3  A    between atoms: C_11  and  C_13
REMARK    4  A    between atoms: C_18  and  O_34
REMARK    5  A    between atoms: N_19  and  C_21
REMARK    6  A    between atoms: C_24  and  C_27
REMARK    7  A    between atoms: C_27  and  N_28
REMARK                            x       y       z     vdW  Elec       q    Type
REMARK                         _______ _______ _______ _____ _____    ______ ____
ROOT
ATOM      1  N   UNL     1      -7.075  40.777  13.030  0.00  0.00    +0.000 NA
ATOM      2  N   UNL     1      -9.016  40.505   9.946  0.00  0.00    +0.000 NA
ATOM      3  C   UNL     1      -9.414  40.180  12.714  0.00  0.00    +0.000 A 
ATOM      4  C   UNL     1      -8.142  40.571  12.219  0.00  0.00    +0.000 A 
ATOM      5  C   UNL     1     -10.453  39.959  11.787  0.00  0.00    +0.000 A 
ATOM      6  C   UNL     1      -8.017  40.711  10.820  0.00  0.00    +0.000 A 
ATOM      7  C   UNL     1     -10.210  40.133  10.443  0.00  0.00    +0.000 A 
ATOM      8  C   UNL     1      -6.780  41.081  10.326  0.00  0.00    +0.000 A 
ATOM      9  C   UNL     1      -5.876  41.148  12.519  0.00  0.00    +0.000 A 
ATOM     10  C   UNL     1      -5.694  41.307  11.159  0.00  0.00    +0.000 A 
ENDROOT
BRANCH   9  13
ATOM     11 CL   UNL     1      -2.779  39.206  16.171  0.00  0.00    +0.000 Cl
ATOM     12 CL   UNL     1      -2.612  44.468  14.765  0.00  0.00    +0.000 Cl
ATOM     13  C   UNL     1      -4.805  41.382  13.492  0.00  0.00    +0.000 A 
ATOM     14  C   UNL     1      -4.244  42.651  13.680  0.00  0.00    +0.000 A 
ATOM     15  C   UNL     1      -4.313  40.336  14.283  0.00  0.00    +0.000 A 
ATOM     16  C   UNL     1      -3.308  40.544  15.225  0.00  0.00    +0.000 A 
ATOM     17  C   UNL     1      -3.233  42.869  14.616  0.00  0.00    +0.000 A 
ATOM     18  C   UNL     1      -2.760  41.814  15.396  0.00  0.00    +0.000 A 
BRANCH  18  19
ATOM     19  O   UNL     1      -1.770  42.035  16.317  0.00  0.00    +0.000 OA
ATOM     20  H   UNL     1      -2.006  41.567  17.140  0.00  0.00    +0.000 HD
ENDBRANCH  18  19
ENDBRANCH   9  13
BRANCH   5  21
ATOM     21  C   UNL     1     -11.788  39.510  12.176  0.00  0.00    +0.000 C 
ATOM     22  O   UNL     1     -12.403  39.907  13.151  0.00  0.00    +0.000 OA
ATOM     23  C   UNL     1     -12.562  38.455  11.445  0.00  0.00    +0.000 C 
ENDBRANCH   5  21
BRANCH   3  24
ATOM     24  N   UNL     1      -9.716  40.100  14.112  0.00  0.00    +0.000 N 
ATOM     25  H   UNL     1      -9.581  39.172  14.523  0.00  0.00    +0.000 HD
BRANCH  24  26
ATOM     26  C   UNL     1      -9.698  41.110  15.033  0.00  0.00    +0.000 A 
ATOM     27  C   UNL     1      -8.548  41.206  15.896  0.00  0.00    +0.000 A 
ATOM     28  C   UNL     1      -8.567  41.535  17.411  0.00  0.00    +0.000 A 
ATOM     29  C   UNL     1      -9.758  41.785  18.187  0.00  0.00    +0.000 A 
ATOM     30  C   UNL     1     -10.912  41.665  17.331  0.00  0.00    +0.000 A 
ATOM     31  C   UNL     1     -10.887  41.335  15.818  0.00  0.00    +0.000 A 
BRANCH  29  32
ATOM     32  C   UNL     1      -9.783  42.219  19.530  0.00  0.00    +0.000 C 
BRANCH  32  33
ATOM     33  N   UNL     1      -9.791  42.669  20.912  0.00  0.00    +0.000 NA
ATOM     34  C   UNL     1     -10.611  43.868  20.974  0.00  0.00    +0.000 C 
ATOM     35  C   UNL     1      -8.432  43.064  21.246  0.00  0.00    +0.000 C 
ENDBRANCH  32  33
ENDBRANCH  29  32
ENDBRANCH  24  26
ENDBRANCH   3  24
TORSDOF 7
ENDMDL
