MODEL 1
REMARK VINA RESULT:      -6.6      0.000      0.000
REMARK  Name = 
REMARK  0 active torsions:
REMARK  status: ('A' for Active; 'I' for Inactive)
REMARK                            x       y       z     vdW  Elec       q    Type
REMARK                         _______ _______ _______ _____ _____    ______ ____
ROOT
ATOM      1  O   UNL     1     -16.151  34.535  24.727  0.00  0.00    +0.000 OA
ATOM      2  O   UNL     1     -16.148  32.119  29.344  0.00  0.00    +0.000 OA
ATOM      3  N   UNL     1     -14.961  34.254  24.118  0.00  0.00    +0.000 N 
ATOM      4  N   UNL     1     -15.646  32.014  27.087  0.00  0.00    +0.000 N 
ATOM      5  C   UNL     1     -14.209  33.084  24.782  0.00  0.00    +0.000 C 
ATOM      6  C   UNL     1     -14.976  31.750  24.702  0.00  0.00    +0.000 C 
ATOM      7  C   UNL     1     -13.769  33.388  26.219  0.00  0.00    +0.000 C 
ATOM      8  C   UNL     1     -16.139  31.677  25.732  0.00  0.00    +0.000 C 
ATOM      9  C   UNL     1     -15.359  31.459  23.240  0.00  0.00    +0.000 C 
ATOM     10  C   UNL     1     -14.933  33.290  27.204  0.00  0.00    +0.000 C 
ATOM     11  C   UNL     1     -15.244  33.901  22.673  0.00  0.00    +0.000 C 
ATOM     12  C   UNL     1     -13.021  34.725  26.314  0.00  0.00    +0.000 C 
ATOM     13  C   UNL     1     -14.090  35.492  24.171  0.00  0.00    +0.000 C 
ATOM     14  C   UNL     1     -16.070  32.625  22.566  0.00  0.00    +0.000 C 
ATOM     15  C   UNL     1     -13.740  35.867  25.605  0.00  0.00    +0.000 C 
ATOM     16  C   UNL     1     -16.818  30.298  25.692  0.00  0.00    +0.000 C 
ATOM     17  C   UNL     1     -17.830  30.178  26.815  0.00  0.00    +0.000 C 
ATOM     18  C   UNL     1     -16.304  31.587  28.242  0.00  0.00    +0.000 C 
ATOM     19  C   UNL     1     -17.115  30.315  28.139  0.00  0.00    +0.000 C 
ENDROOT
TORSDOF 0
ENDMDL
MODEL 2
REMARK VINA RESULT:      -6.4      2.596      4.710
REMARK  Name = 
REMARK  0 active torsions:
REMARK  status: ('A' for Active; 'I' for Inactive)
REMARK                            x       y       z     vdW  Elec       q    Type
REMARK                         _______ _______ _______ _____ _____    ______ ____
ROOT
ATOM      1  O   UNL     1     -15.167  32.596  25.935  0.00  0.00    +0.000 OA
ATOM      2  O   UNL     1     -19.767  34.863  25.018  0.00  0.00    +0.000 OA
ATOM      3  N   UNL     1     -14.307  33.002  24.952  0.00  0.00    +0.000 N 
ATOM      4  N   UNL     1     -17.464  35.080  25.083  0.00  0.00    +0.000 N 
ATOM      5  C   UNL     1     -14.833  34.215  24.160  0.00  0.00    +0.000 C 
ATOM      6  C   UNL     1     -15.006  35.476  25.030  0.00  0.00    +0.000 C 
ATOM      7  C   UNL     1     -16.108  33.909  23.364  0.00  0.00    +0.000 C 
ATOM      8  C   UNL     1     -16.284  35.412  25.913  0.00  0.00    +0.000 C 
ATOM      9  C   UNL     1     -13.692  35.775  25.776  0.00  0.00    +0.000 C 
ATOM     10  C   UNL     1     -17.344  33.871  24.262  0.00  0.00    +0.000 C 
ATOM     11  C   UNL     1     -12.990  33.372  25.602  0.00  0.00    +0.000 C 
ATOM     12  C   UNL     1     -15.955  32.644  22.510  0.00  0.00    +0.000 C 
ATOM     13  C   UNL     1     -14.089  31.847  23.997  0.00  0.00    +0.000 C 
ATOM     14  C   UNL     1     -13.148  34.570  26.531  0.00  0.00    +0.000 C 
ATOM     15  C   UNL     1     -15.379  31.463  23.283  0.00  0.00    +0.000 C 
ATOM     16  C   UNL     1     -16.476  36.724  26.691  0.00  0.00    +0.000 C 
ATOM     17  C   UNL     1     -17.811  36.718  27.410  0.00  0.00    +0.000 C 
ATOM     18  C   UNL     1     -18.763  35.411  25.476  0.00  0.00    +0.000 C 
ATOM     19  C   UNL     1     -18.920  36.606  26.389  0.00  0.00    +0.000 C 
ENDROOT
TORSDOF 0
ENDMDL
MODEL 3
REMARK VINA RESULT:      -6.2     32.981     35.428
REMARK  Name = 
REMARK  0 active torsions:
REMARK  status: ('A' for Active; 'I' for Inactive)
REMARK                            x       y       z     vdW  Elec       q    Type
REMARK                         _______ _______ _______ _____ _____    ______ ____
ROOT
ATOM      1  O   UNL     1      14.757  44.532  10.983  0.00  0.00    +0.000 OA
ATOM      2  O   UNL     1       9.960  46.198  12.152  0.00  0.00    +0.000 OA
ATOM      3  N   UNL     1      15.033  44.941   9.708  0.00  0.00    +0.000 N 
ATOM      4  N   UNL     1      12.004  46.668  11.174  0.00  0.00    +0.000 N 
ATOM      5  C   UNL     1      14.053  46.016   9.198  0.00  0.00    +0.000 C 
ATOM      6  C   UNL     1      14.110  47.322  10.015  0.00  0.00    +0.000 C 
ATOM      7  C   UNL     1      12.613  45.505   9.066  0.00  0.00    +0.000 C 
ATOM      8  C   UNL     1      13.372  47.197  11.378  0.00  0.00    +0.000 C 
ATOM      9  C   UNL     1      15.563  47.826  10.085  0.00  0.00    +0.000 C 
ATOM     10  C   UNL     1      11.915  45.412  10.423  0.00  0.00    +0.000 C 
ATOM     11  C   UNL     1      16.437  45.507   9.689  0.00  0.00    +0.000 C 
ATOM     12  C   UNL     1      12.545  44.194   8.273  0.00  0.00    +0.000 C 
ATOM     13  C   UNL     1      14.963  43.737   8.792  0.00  0.00    +0.000 C 
ATOM     14  C   UNL     1      16.543  46.758  10.553  0.00  0.00    +0.000 C 
ATOM     15  C   UNL     1      13.557  43.154   8.742  0.00  0.00    +0.000 C 
ATOM     16  C   UNL     1      13.365  48.544  12.119  0.00  0.00    +0.000 C 
ATOM     17  C   UNL     1      12.497  48.457  13.359  0.00  0.00    +0.000 C 
ATOM     18  C   UNL     1      10.979  46.889  12.096  0.00  0.00    +0.000 C 
ATOM     19  C   UNL     1      11.079  48.136  12.946  0.00  0.00    +0.000 C 
ENDROOT
TORSDOF 0
ENDMDL
MODEL 4
REMARK VINA RESULT:      -6.2     25.363     27.065
REMARK  Name = 
REMARK  0 active torsions:
REMARK  status: ('A' for Active; 'I' for Inactive)
REMARK                            x       y       z     vdW  Elec       q    Type
REMARK                         _______ _______ _______ _____ _____    ______ ____
ROOT
ATOM      1  O   UNL     1       9.672  38.234  17.449  0.00  0.00    +0.000 OA
ATOM      2  O   UNL     1      10.647  33.116  17.392  0.00  0.00    +0.000 OA
ATOM      3  N   UNL     1       9.901  38.708  16.188  0.00  0.00    +0.000 N 
ATOM      4  N   UNL     1       9.703  34.934  16.316  0.00  0.00    +0.000 N 
ATOM      5  C   UNL     1      10.002  37.588  15.135  0.00  0.00    +0.000 C 
ATOM      6  C   UNL     1       8.696  36.783  14.984  0.00  0.00    +0.000 C 
ATOM      7  C   UNL     1      11.204  36.661  15.353  0.00  0.00    +0.000 C 
ATOM      8  C   UNL     1       8.491  35.768  16.145  0.00  0.00    +0.000 C 
ATOM      9  C   UNL     1       7.522  37.744  14.721  0.00  0.00    +0.000 C 
ATOM     10  C   UNL     1      10.960  35.668  16.489  0.00  0.00    +0.000 C 
ATOM     11  C   UNL     1       8.760  39.632  15.817  0.00  0.00    +0.000 C 
ATOM     12  C   UNL     1      12.507  37.452  15.526  0.00  0.00    +0.000 C 
ATOM     13  C   UNL     1      11.198  39.492  16.198  0.00  0.00    +0.000 C 
ATOM     14  C   UNL     1       7.439  38.875  15.737  0.00  0.00    +0.000 C 
ATOM     15  C   UNL     1      12.387  38.597  16.525  0.00  0.00    +0.000 C 
ATOM     16  C   UNL     1       7.233  34.917  15.909  0.00  0.00    +0.000 C 
ATOM     17  C   UNL     1       7.139  33.818  16.950  0.00  0.00    +0.000 C 
ATOM     18  C   UNL     1       9.656  33.675  16.918  0.00  0.00    +0.000 C 
ATOM     19  C   UNL     1       8.349  32.920  16.829  0.00  0.00    +0.000 C 
ENDROOT
TORSDOF 0
ENDMDL
MODEL 5
REMARK VINA RESULT:      -6.1     18.764     20.404
REMARK  Name = 
REMARK  0 active torsions:
REMARK  status: ('A' for Active; 'I' for Inactive)
REMARK                            x       y       z     vdW  Elec       q    Type
REMARK                         _______ _______ _______ _____ _____    ______ ____
ROOT
ATOM      1  O   UNL     1      -1.500  40.927  13.422  0.00  0.00    +0.000 OA
ATOM      2  O   UNL     1       2.449  42.909  16.183  0.00  0.00    +0.000 OA
ATOM      3  N   UNL     1      -2.432  40.471  14.311  0.00  0.00    +0.000 N 
ATOM      4  N   UNL     1       0.159  42.702  15.928  0.00  0.00    +0.000 N 
ATOM      5  C   UNL     1      -2.204  40.996  15.742  0.00  0.00    +0.000 C 
ATOM      6  C   UNL     1      -2.325  42.529  15.849  0.00  0.00    +0.000 C 
ATOM      7  C   UNL     1      -0.895  40.497  16.366  0.00  0.00    +0.000 C 
ATOM      8  C   UNL     1      -1.064  43.260  15.306  0.00  0.00    +0.000 C 
ATOM      9  C   UNL     1      -3.670  42.985  15.255  0.00  0.00    +0.000 C 
ATOM     10  C   UNL     1       0.319  41.248  15.821  0.00  0.00    +0.000 C 
ATOM     11  C   UNL     1      -3.797  40.921  13.834  0.00  0.00    +0.000 C 
ATOM     12  C   UNL     1      -0.753  38.974  16.246  0.00  0.00    +0.000 C 
ATOM     13  C   UNL     1      -2.380  38.958  14.328  0.00  0.00    +0.000 C 
ATOM     14  C   UNL     1      -3.919  42.440  13.855  0.00  0.00    +0.000 C 
ATOM     15  C   UNL     1      -1.037  38.452  14.842  0.00  0.00    +0.000 C 
ATOM     16  C   UNL     1      -1.179  44.777  15.520  0.00  0.00    +0.000 C 
ATOM     17  C   UNL     1       0.123  45.460  15.148  0.00  0.00    +0.000 C 
ATOM     18  C   UNL     1       1.347  43.431  16.010  0.00  0.00    +0.000 C 
ATOM     19  C   UNL     1       1.225  44.938  16.042  0.00  0.00    +0.000 C 
ENDROOT
TORSDOF 0
ENDMDL
MODEL 6
REMARK VINA RESULT:      -6.0     36.708     38.602
REMARK  Name = 
REMARK  0 active torsions:
REMARK  status: ('A' for Active; 'I' for Inactive)
REMARK                            x       y       z     vdW  Elec       q    Type
REMARK                         _______ _______ _______ _____ _____    ______ ____
ROOT
ATOM      1  O   UNL     1      -2.592  65.284   7.388  0.00  0.00    +0.000 OA
ATOM      2  O   UNL     1       1.397  65.127  10.736  0.00  0.00    +0.000 OA
ATOM      3  N   UNL     1      -2.285  64.453   6.347  0.00  0.00    +0.000 N 
ATOM      4  N   UNL     1      -0.019  63.951   9.332  0.00  0.00    +0.000 N 
ATOM      5  C   UNL     1      -1.107  63.510   6.659  0.00  0.00    +0.000 C 
ATOM      6  C   UNL     1      -1.403  62.538   7.819  0.00  0.00    +0.000 C 
ATOM      7  C   UNL     1       0.217  64.251   6.879  0.00  0.00    +0.000 C 
ATOM      8  C   UNL     1      -1.306  63.231   9.208  0.00  0.00    +0.000 C 
ATOM      9  C   UNL     1      -2.714  61.781   7.539  0.00  0.00    +0.000 C 
ATOM     10  C   UNL     1       0.282  64.904   8.259  0.00  0.00    +0.000 C 
ATOM     11  C   UNL     1      -3.511  63.622   6.031  0.00  0.00    +0.000 C 
ATOM     12  C   UNL     1       0.512  65.237   5.741  0.00  0.00    +0.000 C 
ATOM     13  C   UNL     1      -1.930  65.302   5.144  0.00  0.00    +0.000 C 
ATOM     14  C   UNL     1      -3.874  62.705   7.193  0.00  0.00    +0.000 C 
ATOM     15  C   UNL     1      -0.676  66.128   5.396  0.00  0.00    +0.000 C 
ATOM     16  C   UNL     1      -1.509  62.212  10.341  0.00  0.00    +0.000 C 
ATOM     17  C   UNL     1      -1.241  62.860  11.685  0.00  0.00    +0.000 C 
ATOM     18  C   UNL     1       0.546  64.250  10.575  0.00  0.00    +0.000 C 
ATOM     19  C   UNL     1       0.194  63.334  11.725  0.00  0.00    +0.000 C 
ENDROOT
TORSDOF 0
ENDMDL
MODEL 7
REMARK VINA RESULT:      -6.0     34.976     37.902
REMARK  Name = 
REMARK  0 active torsions:
REMARK  status: ('A' for Active; 'I' for Inactive)
REMARK                            x       y       z     vdW  Elec       q    Type
REMARK                         _______ _______ _______ _____ _____    ______ ____
ROOT
ATOM      1  O   UNL     1      -1.868  65.286   7.938  0.00  0.00    +0.000 OA
ATOM      2  O   UNL     1      -0.654  63.298  12.599  0.00  0.00    +0.000 OA
ATOM      3  N   UNL     1      -0.962  64.800   7.038  0.00  0.00    +0.000 N 
ATOM      4  N   UNL     1      -0.897  62.934  10.326  0.00  0.00    +0.000 N 
ATOM      5  C   UNL     1      -0.157  63.604   7.583  0.00  0.00    +0.000 C 
ATOM      6  C   UNL     1      -1.037  62.380   7.902  0.00  0.00    +0.000 C 
ATOM      7  C   UNL     1       0.738  63.971   8.772  0.00  0.00    +0.000 C 
ATOM      8  C   UNL     1      -1.820  62.548   9.236  0.00  0.00    +0.000 C 
ATOM      9  C   UNL     1      -1.885  62.015   6.670  0.00  0.00    +0.000 C 
ATOM     10  C   UNL     1      -0.063  64.112  10.066  0.00  0.00    +0.000 C 
ATOM     11  C   UNL     1      -1.716  64.363   5.800  0.00  0.00    +0.000 C 
ATOM     12  C   UNL     1       1.604  65.202   8.473  0.00  0.00    +0.000 C 
ATOM     13  C   UNL     1      -0.003  65.914   6.674  0.00  0.00    +0.000 C 
ATOM     14  C   UNL     1      -2.655  63.201   6.104  0.00  0.00    +0.000 C 
ATOM     15  C   UNL     1       0.814  66.363   7.879  0.00  0.00    +0.000 C 
ATOM     16  C   UNL     1      -2.607  61.271   9.570  0.00  0.00    +0.000 C 
ATOM     17  C   UNL     1      -3.224  61.382  10.952  0.00  0.00    +0.000 C 
ATOM     18  C   UNL     1      -1.198  62.698  11.670  0.00  0.00    +0.000 C 
ATOM     19  C   UNL     1      -2.120  61.539  11.972  0.00  0.00    +0.000 C 
ENDROOT
TORSDOF 0
ENDMDL
MODEL 8
REMARK VINA RESULT:      -5.9     17.557     19.658
REMARK  Name = 
REMARK  0 active torsions:
REMARK  status: ('A' for Active; 'I' for Inactive)
REMARK                            x       y       z     vdW  Elec       q    Type
REMARK                         _______ _______ _______ _____ _____    ______ ____
ROOT
ATOM      1  O   UNL     1      -2.248  41.378  14.564  0.00  0.00    +0.000 OA
ATOM      2  O   UNL     1       2.726  41.839  16.047  0.00  0.00    +0.000 OA
ATOM      3  N   UNL     1      -2.823  40.422  15.353  0.00  0.00    +0.000 N 
ATOM      4  N   UNL     1       0.514  41.601  16.685  0.00  0.00    +0.000 N 
ATOM      5  C   UNL     1      -1.977  40.081  16.594  0.00  0.00    +0.000 C 
ATOM      6  C   UNL     1      -1.799  41.276  17.551  0.00  0.00    +0.000 C 
ATOM      7  C   UNL     1      -0.628  39.440  16.247  0.00  0.00    +0.000 C 
ATOM      8  C   UNL     1      -0.747  42.297  17.030  0.00  0.00    +0.000 C 
ATOM      9  C   UNL     1      -3.177  41.861  17.912  0.00  0.00    +0.000 C 
ATOM     10  C   UNL     1       0.384  40.475  15.756  0.00  0.00    +0.000 C 
ATOM     11  C   UNL     1      -4.175  40.935  15.804  0.00  0.00    +0.000 C 
ATOM     12  C   UNL     1      -0.790  38.262  15.278  0.00  0.00    +0.000 C 
ATOM     13  C   UNL     1      -3.012  39.167  14.526  0.00  0.00    +0.000 C 
ATOM     14  C   UNL     1      -4.033  42.166  16.690  0.00  0.00    +0.000 C 
ATOM     15  C   UNL     1      -1.676  38.586  14.081  0.00  0.00    +0.000 C 
ATOM     16  C   UNL     1      -0.525  43.421  18.054  0.00  0.00    +0.000 C 
ATOM     17  C   UNL     1       0.623  44.310  17.617  0.00  0.00    +0.000 C 
ATOM     18  C   UNL     1       1.741  42.267  16.653  0.00  0.00    +0.000 C 
ATOM     19  C   UNL     1       1.886  43.482  17.541  0.00  0.00    +0.000 C 
ENDROOT
TORSDOF 0
ENDMDL
MODEL 9
REMARK VINA RESULT:      -5.9     25.245     26.548
REMARK  Name = 
REMARK  0 active torsions:
REMARK  status: ('A' for Active; 'I' for Inactive)
REMARK                            x       y       z     vdW  Elec       q    Type
REMARK                         _______ _______ _______ _____ _____    ______ ____
ROOT
ATOM      1  O   UNL     1      10.795  34.504  17.042  0.00  0.00    +0.000 OA
ATOM      2  O   UNL     1      10.065  39.661  17.161  0.00  0.00    +0.000 OA
ATOM      3  N   UNL     1       9.914  33.945  17.926  0.00  0.00    +0.000 N 
ATOM      4  N   UNL     1       9.105  37.555  17.142  0.00  0.00    +0.000 N 
ATOM      5  C   UNL     1       8.805  34.921  18.364  0.00  0.00    +0.000 C 
ATOM      6  C   UNL     1       7.904  35.374  17.198  0.00  0.00    +0.000 C 
ATOM      7  C   UNL     1       9.336  36.122  19.156  0.00  0.00    +0.000 C 
ATOM      8  C   UNL     1       8.590  36.447  16.306  0.00  0.00    +0.000 C 
ATOM      9  C   UNL     1       7.355  34.140  16.458  0.00  0.00    +0.000 C 
ATOM     10  C   UNL     1       9.987  37.162  18.245  0.00  0.00    +0.000 C 
ATOM     11  C   UNL     1       9.279  32.743  17.261  0.00  0.00    +0.000 C 
ATOM     12  C   UNL     1      10.251  35.684  20.307  0.00  0.00    +0.000 C 
ATOM     13  C   UNL     1      10.684  33.494  19.150  0.00  0.00    +0.000 C 
ATOM     14  C   UNL     1       8.443  33.154  16.054  0.00  0.00    +0.000 C 
ATOM     15  C   UNL     1      11.310  34.674  19.881  0.00  0.00    +0.000 C 
ATOM     16  C   UNL     1       7.629  36.945  15.215  0.00  0.00    +0.000 C 
ATOM     17  C   UNL     1       8.244  38.111  14.464  0.00  0.00    +0.000 C 
ATOM     18  C   UNL     1       9.328  38.833  16.623  0.00  0.00    +0.000 C 
ATOM     19  C   UNL     1       8.491  39.245  15.433  0.00  0.00    +0.000 C 
ENDROOT
TORSDOF 0
ENDMDL
