MODEL 1
REMARK VINA RESULT:      -7.8      0.000      0.000
REMARK  Name = 
REMARK  23 active torsions:
REMARK  status: ('A' for Active; 'I' for Inactive)
REMARK    1  A    between atoms: O_2  and  C_17
REMARK    2  A    between atoms: O_2  and  C_36
REMARK    3  A    between atoms: O_3  and  C_20
REMARK    4  A    between atoms: O_3  and  C_37
REMARK    5  A    between atoms: O_4  and  C_21
REMARK    6  A    between atoms: O_5  and  C_22
REMARK    7  A    between atoms: O_6  and  C_30
REMARK    8  A    between atoms: O_6  and  C_39
REMARK    9  A    between atoms: O_8  and  C_31
REMARK   10  A    between atoms: O_8  and  C_40
REMARK   11  A    between atoms: O_13  and  C_42
REMARK   12  A    between atoms: N_15  and  C_46
REMARK   13  A    between atoms: C_18  and  C_29
REMARK   14  A    between atoms: C_24  and  C_33
REMARK   15  A    between atoms: C_24  and  C_34
REMARK   16  A    between atoms: C_32  and  C_35
REMARK   17  A    between atoms: C_36  and  C_38
REMARK   18  A    between atoms: C_37  and  C_41
REMARK   19  A    between atoms: C_39  and  C_43
REMARK   20  A    between atoms: C_40  and  C_42
REMARK   21  A    between atoms: C_42  and  C_46
REMARK   22  A    between atoms: C_46  and  C_50
REMARK   23  A    between atoms: C_53  and  C_56
REMARK                            x       y       z     vdW  Elec       q    Type
REMARK                         _______ _______ _______ _____ _____    ______ ____
ROOT
ATOM      1  O   UNL     1      -6.548  45.347  21.468  0.00  0.00    +0.000 OA
ATOM      2  O   UNL     1      -2.473  41.463  17.895  0.00  0.00    +0.000 OA
ATOM      3  C   UNL     1      -5.362  44.698  18.304  0.00  0.00    +0.000 C 
ATOM      4  C   UNL     1      -6.463  44.803  19.400  0.00  0.00    +0.000 C 
ATOM      5  C   UNL     1      -4.618  42.957  18.430  0.00  0.00    +0.000 C 
ATOM      6  C   UNL     1      -5.502  44.745  20.657  0.00  0.00    +0.000 C 
ATOM      7  C   UNL     1      -5.926  45.416  16.678  0.00  0.00    +0.000 C 
ATOM      8  C   UNL     1      -5.353  45.667  14.890  0.00  0.00    +0.000 C 
ATOM      9  C   UNL     1      -4.030  42.893  19.901  0.00  0.00    +0.000 C 
ATOM     10  C   UNL     1      -4.988  43.374  21.033  0.00  0.00    +0.000 C 
ATOM     11  C   UNL     1      -3.950  44.959  14.068  0.00  0.00    +0.000 C 
ATOM     12  C   UNL     1      -6.960  46.049  20.233  0.00  0.00    +0.000 C 
ATOM     13  C   UNL     1      -3.309  42.190  17.318  0.00  0.00    +0.000 C 
ATOM     14  C   UNL     1      -6.526  45.090  13.972  0.00  0.00    +0.000 C 
ATOM     15  C   UNL     1      -3.938  43.357  14.182  0.00  0.00    +0.000 C 
ATOM     16  C   UNL     1      -5.726  41.822  18.443  0.00  0.00    +0.000 C 
ATOM     17  C   UNL     1      -3.067  42.391  15.422  0.00  0.00    +0.000 C 
ATOM     18  C   UNL     1      -6.398  43.597  13.426  0.00  0.00    +0.000 C 
ATOM     19  C   UNL     1      -5.053  42.800  13.600  0.00  0.00    +0.000 C 
ATOM     20  C   UNL     1      -4.109  45.323  12.507  0.00  0.00    +0.000 C 
ATOM     21  C   UNL     1      -2.551  45.637  14.224  0.00  0.00    +0.000 C 
ATOM     22  C   UNL     1      -5.172  41.320  13.332  0.00  0.00    +0.000 C 
ENDROOT
BRANCH   9  23
ATOM     23  O   UNL     1      -2.861  43.709  19.971  0.00  0.00    +0.000 OA
ATOM     24  H   UNL     1      -2.713  43.898  20.920  0.00  0.00    +0.000 HD
ENDBRANCH   9  23
BRANCH   8  25
ATOM     25  O   UNL     1      -5.335  47.093  14.687  0.00  0.00    +0.000 OA
ATOM     26  H   UNL     1      -5.880  47.305  13.908  0.00  0.00    +0.000 HD
ENDBRANCH   8  25
BRANCH  18  27
ATOM     27  O   UNL     1      -7.436  42.795  14.062  0.00  0.00    +0.000 OA
BRANCH  27  29
ATOM     28  O   UNL     1      -9.013  43.288  12.515  0.00  0.00    +0.000 OA
ATOM     29  C   UNL     1      -8.524  42.490  13.308  0.00  0.00    +0.000 C 
BRANCH  29  30
ATOM     30  C   UNL     1      -9.174  41.145  13.648  0.00  0.00    +0.000 C 
BRANCH  30  31
ATOM     31  O   UNL     1      -8.276  40.031  13.719  0.00  0.00    +0.000 OA
ATOM     32  H   UNL     1      -7.607  40.179  13.026  0.00  0.00    +0.000 HD
ENDBRANCH  30  31
BRANCH  30  33
ATOM     33  C   UNL     1     -10.296  40.875  12.607  0.00  0.00    +0.000 C 
BRANCH  33  34
ATOM     34  C   UNL     1     -11.669  40.994  13.254  0.00  0.00    +0.000 A 
ATOM     35  C   UNL     1     -12.178  39.914  13.996  0.00  0.00    +0.000 A 
ATOM     36  C   UNL     1     -12.463  42.142  13.109  0.00  0.00    +0.000 A 
ATOM     37  C   UNL     1     -13.439  39.988  14.590  0.00  0.00    +0.000 A 
ATOM     38  C   UNL     1     -13.723  42.215  13.706  0.00  0.00    +0.000 A 
ATOM     39  C   UNL     1     -14.210  41.140  14.447  0.00  0.00    +0.000 A 
ENDBRANCH  33  34
BRANCH  33  41
ATOM     40  O   UNL     1     -10.027  38.166  10.226  0.00  0.00    +0.000 OA
ATOM     41  N   UNL     1     -10.117  39.554  11.991  0.00  0.00    +0.000 N 
ATOM     42  C   UNL     1     -10.603  39.085  10.801  0.00  0.00    +0.000 C 
ATOM     43  H   UNL     1      -9.327  39.024  12.346  0.00  0.00    +0.000 HD
BRANCH  42  44
ATOM     44  C   UNL     1     -11.791  39.710  10.178  0.00  0.00    +0.000 A 
ATOM     45  C   UNL     1     -13.084  39.256  10.456  0.00  0.00    +0.000 A 
ATOM     46  C   UNL     1     -11.595  40.728   9.237  0.00  0.00    +0.000 A 
ATOM     47  C   UNL     1     -14.181  39.863   9.842  0.00  0.00    +0.000 A 
ATOM     48  C   UNL     1     -12.693  41.330   8.622  0.00  0.00    +0.000 A 
ATOM     49  C   UNL     1     -13.985  40.903   8.933  0.00  0.00    +0.000 A 
ENDBRANCH  42  44
ENDBRANCH  33  41
ENDBRANCH  30  33
ENDBRANCH  29  30
ENDBRANCH  27  29
ENDBRANCH  18  27
BRANCH  17  50
ATOM     50  O   UNL     1      -1.679  42.543  15.055  0.00  0.00    +0.000 OA
BRANCH  50  52
ATOM     51  O   UNL     1       0.344  41.597  14.893  0.00  0.00    +0.000 OA
ATOM     52  C   UNL     1      -0.873  41.496  14.765  0.00  0.00    +0.000 C 
ATOM     53  C   UNL     1      -1.506  40.258  14.204  0.00  0.00    +0.000 C 
ENDBRANCH  50  52
ENDBRANCH  17  50
BRANCH   7  54
ATOM     54  O   UNL     1      -6.271  44.186  16.361  0.00  0.00    +0.000 OA
BRANCH  54  56
ATOM     55  O   UNL     1      -7.534  45.729  16.609  0.00  0.00    +0.000 OA
ATOM     56  C   UNL     1      -7.603  44.514  16.451  0.00  0.00    +0.000 C 
BRANCH  56  57
ATOM     57  C   UNL     1      -9.018  43.235  16.613  0.00  0.00    +0.000 A 
ATOM     58  C   UNL     1      -8.850  41.835  16.997  0.00  0.00    +0.000 A 
ATOM     59  C   UNL     1     -10.422  43.477  16.519  0.00  0.00    +0.000 A 
ATOM     60  C   UNL     1      -9.872  40.884  17.239  0.00  0.00    +0.000 A 
ATOM     61  C   UNL     1     -11.463  42.535  16.756  0.00  0.00    +0.000 A 
ATOM     62  C   UNL     1     -11.191  41.238  17.120  0.00  0.00    +0.000 A 
ENDBRANCH  56  57
ENDBRANCH  54  56
ENDBRANCH   7  54
BRANCH   4  63
ATOM     63  O   UNL     1      -7.415  43.716  19.327  0.00  0.00    +0.000 OA
BRANCH  63  65
ATOM     64  O   UNL     1      -8.379  42.661  21.047  0.00  0.00    +0.000 OA
ATOM     65  C   UNL     1      -8.443  43.538  20.188  0.00  0.00    +0.000 C 
ATOM     66  C   UNL     1      -9.697  44.334  20.008  0.00  0.00    +0.000 C 
ENDBRANCH  63  65
ENDBRANCH   4  63
TORSDOF 17
ENDMDL
MODEL 2
REMARK VINA RESULT:      -7.6      3.147      8.784
REMARK  Name = 
REMARK  23 active torsions:
REMARK  status: ('A' for Active; 'I' for Inactive)
REMARK    1  A    between atoms: O_2  and  C_17
REMARK    2  A    between atoms: O_2  and  C_36
REMARK    3  A    between atoms: O_3  and  C_20
REMARK    4  A    between atoms: O_3  and  C_37
REMARK    5  A    between atoms: O_4  and  C_21
REMARK    6  A    between atoms: O_5  and  C_22
REMARK    7  A    between atoms: O_6  and  C_30
REMARK    8  A    between atoms: O_6  and  C_39
REMARK    9  A    between atoms: O_8  and  C_31
REMARK   10  A    between atoms: O_8  and  C_40
REMARK   11  A    between atoms: O_13  and  C_42
REMARK   12  A    between atoms: N_15  and  C_46
REMARK   13  A    between atoms: C_18  and  C_29
REMARK   14  A    between atoms: C_24  and  C_33
REMARK   15  A    between atoms: C_24  and  C_34
REMARK   16  A    between atoms: C_32  and  C_35
REMARK   17  A    between atoms: C_36  and  C_38
REMARK   18  A    between atoms: C_37  and  C_41
REMARK   19  A    between atoms: C_39  and  C_43
REMARK   20  A    between atoms: C_40  and  C_42
REMARK   21  A    between atoms: C_42  and  C_46
REMARK   22  A    between atoms: C_46  and  C_50
REMARK   23  A    between atoms: C_53  and  C_56
REMARK                            x       y       z     vdW  Elec       q    Type
REMARK                         _______ _______ _______ _____ _____    ______ ____
ROOT
ATOM      1  O   UNL     1     -13.158  42.427  14.868  0.00  0.00    +0.000 OA
ATOM      2  O   UNL     1      -8.620  46.157  11.715  0.00  0.00    +0.000 OA
ATOM      3  C   UNL     1      -9.888  42.551  13.805  0.00  0.00    +0.000 C 
ATOM      4  C   UNL     1     -11.018  42.467  14.872  0.00  0.00    +0.000 C 
ATOM      5  C   UNL     1      -9.572  44.393  13.477  0.00  0.00    +0.000 C 
ATOM      6  C   UNL     1     -12.189  43.036  13.971  0.00  0.00    +0.000 C 
ATOM      7  C   UNL     1      -8.499  41.359  14.164  0.00  0.00    +0.000 C 
ATOM      8  C   UNL     1      -6.801  40.824  13.518  0.00  0.00    +0.000 C 
ATOM      9  C   UNL     1     -10.963  44.936  12.943  0.00  0.00    +0.000 C 
ATOM     10  C   UNL     1     -12.211  44.536  13.787  0.00  0.00    +0.000 C 
ATOM     11  C   UNL     1      -5.783  41.612  12.298  0.00  0.00    +0.000 C 
ATOM     12  C   UNL     1     -12.140  41.376  15.090  0.00  0.00    +0.000 C 
ATOM     13  C   UNL     1      -8.262  45.145  12.356  0.00  0.00    +0.000 C 
ATOM     14  C   UNL     1      -5.817  40.888  14.775  0.00  0.00    +0.000 C 
ATOM     15  C   UNL     1      -5.516  43.155  12.650  0.00  0.00    +0.000 C 
ATOM     16  C   UNL     1      -9.358  45.221  14.812  0.00  0.00    +0.000 C 
ATOM     17  C   UNL     1      -6.459  44.559  12.041  0.00  0.00    +0.000 C 
ATOM     18  C   UNL     1      -4.930  42.198  14.978  0.00  0.00    +0.000 C 
ATOM     19  C   UNL     1      -4.860  43.293  13.851  0.00  0.00    +0.000 C 
ATOM     20  C   UNL     1      -4.359  40.860  12.343  0.00  0.00    +0.000 C 
ATOM     21  C   UNL     1      -6.042  41.320  10.784  0.00  0.00    +0.000 C 
ATOM     22  C   UNL     1      -4.256  44.601  14.298  0.00  0.00    +0.000 C 
ENDROOT
BRANCH   9  23
ATOM     23  O   UNL     1     -11.180  44.442  11.622  0.00  0.00    +0.000 OA
ATOM     24  H   UNL     1     -11.667  45.143  11.143  0.00  0.00    +0.000 HD
ENDBRANCH   9  23
BRANCH   8  25
ATOM     25  O   UNL     1      -6.939  39.432  13.174  0.00  0.00    +0.000 OA
ATOM     26  H   UNL     1      -6.210  38.934  13.585  0.00  0.00    +0.000 HD
ENDBRANCH   8  25
BRANCH  18  27
ATOM     27  O   UNL     1      -5.397  42.875  16.182  0.00  0.00    +0.000 OA
BRANCH  27  29
ATOM     28  O   UNL     1      -4.205  43.993  17.747  0.00  0.00    +0.000 OA
ATOM     29  C   UNL     1      -4.534  42.931  17.229  0.00  0.00    +0.000 C 
BRANCH  29  30
ATOM     30  C   UNL     1      -3.893  41.589  17.595  0.00  0.00    +0.000 C 
BRANCH  30  31
ATOM     31  O   UNL     1      -4.066  41.178  18.956  0.00  0.00    +0.000 OA
ATOM     32  H   UNL     1      -3.173  40.989  19.297  0.00  0.00    +0.000 HD
ENDBRANCH  30  31
BRANCH  30  33
ATOM     33  C   UNL     1      -2.383  41.662  17.236  0.00  0.00    +0.000 C 
BRANCH  33  34
ATOM     34  C   UNL     1      -1.926  40.370  16.572  0.00  0.00    +0.000 A 
ATOM     35  C   UNL     1      -0.575  40.218  16.215  0.00  0.00    +0.000 A 
ATOM     36  C   UNL     1      -2.820  39.330  16.273  0.00  0.00    +0.000 A 
ATOM     37  C   UNL     1      -0.129  39.051  15.593  0.00  0.00    +0.000 A 
ATOM     38  C   UNL     1      -2.371  38.163  15.654  0.00  0.00    +0.000 A 
ATOM     39  C   UNL     1      -1.026  38.023  15.315  0.00  0.00    +0.000 A 
ENDBRANCH  33  34
BRANCH  33  41
ATOM     40  O   UNL     1      -0.548  43.343  19.860  0.00  0.00    +0.000 OA
ATOM     41  N   UNL     1      -1.584  41.949  18.435  0.00  0.00    +0.000 N 
ATOM     42  C   UNL     1      -0.782  43.025  18.698  0.00  0.00    +0.000 C 
ATOM     43  H   UNL     1      -1.869  41.439  19.266  0.00  0.00    +0.000 HD
BRANCH  42  44
ATOM     44  C   UNL     1      -0.231  43.840  17.591  0.00  0.00    +0.000 A 
ATOM     45  C   UNL     1      -0.938  44.923  17.061  0.00  0.00    +0.000 A 
ATOM     46  C   UNL     1       0.992  43.460  17.027  0.00  0.00    +0.000 A 
ATOM     47  C   UNL     1      -0.393  45.662  16.010  0.00  0.00    +0.000 A 
ATOM     48  C   UNL     1       1.534  44.199  15.975  0.00  0.00    +0.000 A 
ATOM     49  C   UNL     1       0.845  45.305  15.475  0.00  0.00    +0.000 A 
ENDBRANCH  42  44
ENDBRANCH  33  41
ENDBRANCH  30  33
ENDBRANCH  29  30
ENDBRANCH  27  29
ENDBRANCH  18  27
BRANCH  17  50
ATOM     50  O   UNL     1      -6.086  44.638  10.649  0.00  0.00    +0.000 OA
BRANCH  50  52
ATOM     51  O   UNL     1      -5.455  45.952   8.951  0.00  0.00    +0.000 OA
ATOM     52  C   UNL     1      -5.355  45.654  10.137  0.00  0.00    +0.000 C 
ATOM     53  C   UNL     1      -4.368  46.331  11.040  0.00  0.00    +0.000 C 
ENDBRANCH  50  52
ENDBRANCH  17  50
BRANCH   7  54
ATOM     54  O   UNL     1      -7.914  42.369  14.773  0.00  0.00    +0.000 OA
BRANCH  54  56
ATOM     55  O   UNL     1      -8.627  40.712  15.658  0.00  0.00    +0.000 OA
ATOM     56  C   UNL     1      -8.111  41.773  15.996  0.00  0.00    +0.000 C 
BRANCH  56  57
ATOM     57  C   UNL     1      -7.896  42.666  17.675  0.00  0.00    +0.000 A 
ATOM     58  C   UNL     1      -7.537  42.019  18.935  0.00  0.00    +0.000 A 
ATOM     59  C   UNL     1      -7.919  44.072  17.920  0.00  0.00    +0.000 A 
ATOM     60  C   UNL     1      -7.257  42.649  20.173  0.00  0.00    +0.000 A 
ATOM     61  C   UNL     1      -7.643  44.724  19.155  0.00  0.00    +0.000 A 
ATOM     62  C   UNL     1      -7.309  44.014  20.284  0.00  0.00    +0.000 A 
ENDBRANCH  56  57
ENDBRANCH  54  56
ENDBRANCH   7  54
BRANCH   4  63
ATOM     63  O   UNL     1     -10.726  43.264  16.045  0.00  0.00    +0.000 OA
BRANCH  63  65
ATOM     64  O   UNL     1     -12.226  44.143  17.451  0.00  0.00    +0.000 OA
ATOM     65  C   UNL     1     -11.443  43.231  17.191  0.00  0.00    +0.000 C 
ATOM     66  C   UNL     1     -11.186  42.145  18.187  0.00  0.00    +0.000 C 
ENDBRANCH  63  65
ENDBRANCH   4  63
TORSDOF 17
ENDMDL
MODEL 3
REMARK VINA RESULT:      -7.3      3.287      7.213
REMARK  Name = 
REMARK  23 active torsions:
REMARK  status: ('A' for Active; 'I' for Inactive)
REMARK    1  A    between atoms: O_2  and  C_17
REMARK    2  A    between atoms: O_2  and  C_36
REMARK    3  A    between atoms: O_3  and  C_20
REMARK    4  A    between atoms: O_3  and  C_37
REMARK    5  A    between atoms: O_4  and  C_21
REMARK    6  A    between atoms: O_5  and  C_22
REMARK    7  A    between atoms: O_6  and  C_30
REMARK    8  A    between atoms: O_6  and  C_39
REMARK    9  A    between atoms: O_8  and  C_31
REMARK   10  A    between atoms: O_8  and  C_40
REMARK   11  A    between atoms: O_13  and  C_42
REMARK   12  A    between atoms: N_15  and  C_46
REMARK   13  A    between atoms: C_18  and  C_29
REMARK   14  A    between atoms: C_24  and  C_33
REMARK   15  A    between atoms: C_24  and  C_34
REMARK   16  A    between atoms: C_32  and  C_35
REMARK   17  A    between atoms: C_36  and  C_38
REMARK   18  A    between atoms: C_37  and  C_41
REMARK   19  A    between atoms: C_39  and  C_43
REMARK   20  A    between atoms: C_40  and  C_42
REMARK   21  A    between atoms: C_42  and  C_46
REMARK   22  A    between atoms: C_46  and  C_50
REMARK   23  A    between atoms: C_53  and  C_56
REMARK                            x       y       z     vdW  Elec       q    Type
REMARK                         _______ _______ _______ _____ _____    ______ ____
ROOT
ATOM      1  O   UNL     1      -0.981  38.310  15.724  0.00  0.00    +0.000 OA
ATOM      2  O   UNL     1       1.050  44.380  17.591  0.00  0.00    +0.000 OA
ATOM      3  C   UNL     1      -1.852  41.133  17.489  0.00  0.00    +0.000 C 
ATOM      4  C   UNL     1      -2.004  40.083  16.349  0.00  0.00    +0.000 C 
ATOM      5  C   UNL     1      -0.659  42.467  16.858  0.00  0.00    +0.000 C 
ATOM      6  C   UNL     1      -0.527  39.515  16.400  0.00  0.00    +0.000 C 
ATOM      7  C   UNL     1      -3.493  41.561  18.266  0.00  0.00    +0.000 C 
ATOM      8  C   UNL     1      -4.261  42.691  19.577  0.00  0.00    +0.000 C 
ATOM      9  C   UNL     1       0.685  41.677  16.565  0.00  0.00    +0.000 C 
ATOM     10  C   UNL     1       0.530  40.367  15.735  0.00  0.00    +0.000 C 
ATOM     11  C   UNL     1      -3.523  44.062  20.427  0.00  0.00    +0.000 C 
ATOM     12  C   UNL     1      -2.268  38.527  16.421  0.00  0.00    +0.000 C 
ATOM     13  C   UNL     1      -0.146  44.049  17.737  0.00  0.00    +0.000 C 
ATOM     14  C   UNL     1      -5.470  43.441  18.851  0.00  0.00    +0.000 C 
ATOM     15  C   UNL     1      -2.908  45.137  19.404  0.00  0.00    +0.000 C 
ATOM     16  C   UNL     1      -1.064  43.017  15.427  0.00  0.00    +0.000 C 
ATOM     17  C   UNL     1      -1.201  45.210  18.846  0.00  0.00    +0.000 C 
ATOM     18  C   UNL     1      -5.212  44.900  18.259  0.00  0.00    +0.000 C 
ATOM     19  C   UNL     1      -3.876  45.664  18.582  0.00  0.00    +0.000 C 
ATOM     20  C   UNL     1      -4.714  44.795  21.226  0.00  0.00    +0.000 C 
ATOM     21  C   UNL     1      -2.652  43.794  21.697  0.00  0.00    +0.000 C 
ATOM     22  C   UNL     1      -3.630  46.873  17.714  0.00  0.00    +0.000 C 
ENDROOT
BRANCH   9  23
ATOM     23  O   UNL     1       1.291  41.314  17.805  0.00  0.00    +0.000 OA
ATOM     24  H   UNL     1       1.116  40.359  17.927  0.00  0.00    +0.000 HD
ENDBRANCH   9  23
BRANCH   8  25
ATOM     25  O   UNL     1      -4.850  41.809  20.551  0.00  0.00    +0.000 OA
ATOM     26  H   UNL     1      -5.482  42.316  21.091  0.00  0.00    +0.000 HD
ENDBRANCH   8  25
BRANCH  18  27
ATOM     27  O   UNL     1      -5.298  44.818  16.806  0.00  0.00    +0.000 OA
BRANCH  27  29
ATOM     28  O   UNL     1      -6.406  46.728  16.311  0.00  0.00    +0.000 OA
ATOM     29  C   UNL     1      -6.303  45.510  16.210  0.00  0.00    +0.000 C 
BRANCH  29  30
ATOM     30  C   UNL     1      -7.371  44.634  15.548  0.00  0.00    +0.000 C 
BRANCH  30  31
ATOM     31  O   UNL     1      -8.072  45.243  14.457  0.00  0.00    +0.000 OA
ATOM     32  H   UNL     1      -7.391  45.500  13.808  0.00  0.00    +0.000 HD
ENDBRANCH  30  31
BRANCH  30  33
ATOM     33  C   UNL     1      -8.368  44.173  16.647  0.00  0.00    +0.000 C 
BRANCH  33  34
ATOM     34  C   UNL     1      -8.705  42.698  16.482  0.00  0.00    +0.000 A 
ATOM     35  C   UNL     1      -9.496  42.289  15.394  0.00  0.00    +0.000 A 
ATOM     36  C   UNL     1      -8.278  41.729  17.403  0.00  0.00    +0.000 A 
ATOM     37  C   UNL     1      -9.833  40.945  15.223  0.00  0.00    +0.000 A 
ATOM     38  C   UNL     1      -8.615  40.386  17.229  0.00  0.00    +0.000 A 
ATOM     39  C   UNL     1      -9.390  39.994  16.139  0.00  0.00    +0.000 A 
ENDBRANCH  33  34
BRANCH  33  41
ATOM     40  O   UNL     1     -11.198  46.216  17.595  0.00  0.00    +0.000 OA
ATOM     41  N   UNL     1      -9.582  44.998  16.616  0.00  0.00    +0.000 N 
ATOM     42  C   UNL     1     -10.514  45.196  17.598  0.00  0.00    +0.000 C 
ATOM     43  H   UNL     1      -9.591  45.714  15.896  0.00  0.00    +0.000 HD
BRANCH  42  44
ATOM     44  C   UNL     1     -10.673  44.212  18.692  0.00  0.00    +0.000 A 
ATOM     45  C   UNL     1     -11.556  43.134  18.581  0.00  0.00    +0.000 A 
ATOM     46  C   UNL     1      -9.969  44.418  19.884  0.00  0.00    +0.000 A 
ATOM     47  C   UNL     1     -11.687  42.230  19.637  0.00  0.00    +0.000 A 
ATOM     48  C   UNL     1     -10.103  43.516  20.939  0.00  0.00    +0.000 A 
ATOM     49  C   UNL     1     -10.955  42.418  20.810  0.00  0.00    +0.000 A 
ENDBRANCH  42  44
ENDBRANCH  33  41
ENDBRANCH  30  33
ENDBRANCH  29  30
ENDBRANCH  27  29
ENDBRANCH  18  27
BRANCH  17  50
ATOM     50  O   UNL     1      -0.482  45.662  20.015  0.00  0.00    +0.000 OA
BRANCH  50  52
ATOM     51  O   UNL     1      -0.690  47.868  20.325  0.00  0.00    +0.000 OA
ATOM     52  C   UNL     1       0.042  46.903  20.125  0.00  0.00    +0.000 C 
ATOM     53  C   UNL     1       1.517  47.064  19.908  0.00  0.00    +0.000 C 
ENDBRANCH  50  52
ENDBRANCH  17  50
BRANCH   7  54
ATOM     54  O   UNL     1      -3.522  42.572  17.423  0.00  0.00    +0.000 OA
BRANCH  54  56
ATOM     55  O   UNL     1      -4.803  41.025  17.429  0.00  0.00    +0.000 OA
ATOM     56  C   UNL     1      -4.513  41.961  16.692  0.00  0.00    +0.000 C 
BRANCH  56  57
ATOM     57  C   UNL     1      -4.940  42.402  14.879  0.00  0.00    +0.000 A 
ATOM     58  C   UNL     1      -6.069  41.864  14.123  0.00  0.00    +0.000 A 
ATOM     59  C   UNL     1      -4.321  43.393  14.058  0.00  0.00    +0.000 A 
ATOM     60  C   UNL     1      -6.488  42.243  12.823  0.00  0.00    +0.000 A 
ATOM     61  C   UNL     1      -4.726  43.785  12.751  0.00  0.00    +0.000 A 
ATOM     62  C   UNL     1      -5.812  43.214  12.132  0.00  0.00    +0.000 A 
ENDBRANCH  56  57
ENDBRANCH  54  56
ENDBRANCH   7  54
BRANCH   4  63
ATOM     63  O   UNL     1      -2.367  40.691  15.087  0.00  0.00    +0.000 OA
BRANCH  63  65
ATOM     64  O   UNL     1      -3.891  39.239  14.334  0.00  0.00    +0.000 OA
ATOM     65  C   UNL     1      -3.001  40.048  14.080  0.00  0.00    +0.000 C 
ATOM     66  C   UNL     1      -2.529  40.241  12.674  0.00  0.00    +0.000 C 
ENDBRANCH  63  65
ENDBRANCH   4  63
TORSDOF 17
ENDMDL
MODEL 4
REMARK VINA RESULT:      -7.2      3.390      7.518
REMARK  Name = 
REMARK  23 active torsions:
REMARK  status: ('A' for Active; 'I' for Inactive)
REMARK    1  A    between atoms: O_2  and  C_17
REMARK    2  A    between atoms: O_2  and  C_36
REMARK    3  A    between atoms: O_3  and  C_20
REMARK    4  A    between atoms: O_3  and  C_37
REMARK    5  A    between atoms: O_4  and  C_21
REMARK    6  A    between atoms: O_5  and  C_22
REMARK    7  A    between atoms: O_6  and  C_30
REMARK    8  A    between atoms: O_6  and  C_39
REMARK    9  A    between atoms: O_8  and  C_31
REMARK   10  A    between atoms: O_8  and  C_40
REMARK   11  A    between atoms: O_13  and  C_42
REMARK   12  A    between atoms: N_15  and  C_46
REMARK   13  A    between atoms: C_18  and  C_29
REMARK   14  A    between atoms: C_24  and  C_33
REMARK   15  A    between atoms: C_24  and  C_34
REMARK   16  A    between atoms: C_32  and  C_35
REMARK   17  A    between atoms: C_36  and  C_38
REMARK   18  A    between atoms: C_37  and  C_41
REMARK   19  A    between atoms: C_39  and  C_43
REMARK   20  A    between atoms: C_40  and  C_42
REMARK   21  A    between atoms: C_42  and  C_46
REMARK   22  A    between atoms: C_46  and  C_50
REMARK   23  A    between atoms: C_53  and  C_56
REMARK                            x       y       z     vdW  Elec       q    Type
REMARK                         _______ _______ _______ _____ _____    ______ ____
ROOT
ATOM      1  O   UNL     1       0.901  44.600  16.418  0.00  0.00    +0.000 OA
ATOM      2  O   UNL     1      -3.179  40.045  13.761  0.00  0.00    +0.000 OA
ATOM      3  C   UNL     1      -2.206  44.098  15.026  0.00  0.00    +0.000 C 
ATOM      4  C   UNL     1      -1.222  44.484  16.169  0.00  0.00    +0.000 C 
ATOM      5  C   UNL     1      -2.468  42.222  15.130  0.00  0.00    +0.000 C 
ATOM      6  C   UNL     1       0.057  43.754  15.588  0.00  0.00    +0.000 C 
ATOM      7  C   UNL     1      -3.634  45.291  14.903  0.00  0.00    +0.000 C 
ATOM      8  C   UNL     1      -5.238  45.588  13.941  0.00  0.00    +0.000 C 
ATOM      9  C   UNL     1      -1.018  41.616  14.924  0.00  0.00    +0.000 C 
ATOM     10  C   UNL     1       0.110  42.257  15.788  0.00  0.00    +0.000 C 
ATOM     11  C   UNL     1      -6.088  44.487  12.840  0.00  0.00    +0.000 C 
ATOM     12  C   UNL     1      -0.142  45.635  16.244  0.00  0.00    +0.000 C 
ATOM     13  C   UNL     1      -3.621  41.170  14.080  0.00  0.00    +0.000 C 
ATOM     14  C   UNL     1      -6.375  45.800  15.043  0.00  0.00    +0.000 C 
ATOM     15  C   UNL     1      -6.391  43.070  13.530  0.00  0.00    +0.000 C 
ATOM     16  C   UNL     1      -2.847  41.742  16.593  0.00  0.00    +0.000 C 
ATOM     17  C   UNL     1      -5.371  41.595  13.410  0.00  0.00    +0.000 C 
ATOM     18  C   UNL     1      -7.274  44.549  15.456  0.00  0.00    +0.000 C 
ATOM     19  C   UNL     1      -7.194  43.208  14.638  0.00  0.00    +0.000 C 
ATOM     20  C   UNL     1      -7.510  45.174  12.521  0.00  0.00    +0.000 C 
ATOM     21  C   UNL     1      -5.639  44.406  11.345  0.00  0.00    +0.000 C 
ATOM     22  C   UNL     1      -7.845  42.029  15.318  0.00  0.00    +0.000 C 
ENDROOT
BRANCH   9  23
ATOM     23  O   UNL     1      -0.636  41.776  13.558  0.00  0.00    +0.000 OA
ATOM     24  H   UNL     1      -1.361  41.395  13.023  0.00  0.00    +0.000 HD
ENDBRANCH   9  23
BRANCH   8  25
ATOM     25  O   UNL     1      -5.064  46.857  13.281  0.00  0.00    +0.000 OA
ATOM     26  H   UNL     1      -5.047  46.709  12.319  0.00  0.00    +0.000 HD
ENDBRANCH   8  25
BRANCH  18  27
ATOM     27  O   UNL     1      -6.962  44.207  16.838  0.00  0.00    +0.000 OA
BRANCH  27  29
ATOM     28  O   UNL     1      -8.622  45.478  17.705  0.00  0.00    +0.000 OA
ATOM     29  C   UNL     1      -7.914  44.478  17.768  0.00  0.00    +0.000 C 
BRANCH  29  30
ATOM     30  C   UNL     1      -7.915  43.530  18.970  0.00  0.00    +0.000 C 
BRANCH  30  31
ATOM     31  O   UNL     1      -7.994  42.136  18.651  0.00  0.00    +0.000 OA
ATOM     32  H   UNL     1      -8.862  42.004  18.226  0.00  0.00    +0.000 HD
ENDBRANCH  30  31
BRANCH  30  33
ATOM     33  C   UNL     1      -9.084  43.941  19.908  0.00  0.00    +0.000 C 
BRANCH  33  34
ATOM     34  C   UNL     1      -8.550  44.559  21.193  0.00  0.00    +0.000 A 
ATOM     35  C   UNL     1      -8.222  43.725  22.276  0.00  0.00    +0.000 A 
ATOM     36  C   UNL     1      -8.402  45.946  21.346  0.00  0.00    +0.000 A 
ATOM     37  C   UNL     1      -7.743  44.264  23.471  0.00  0.00    +0.000 A 
ATOM     38  C   UNL     1      -7.921  46.483  22.540  0.00  0.00    +0.000 A 
ATOM     39  C   UNL     1      -7.589  45.642  23.602  0.00  0.00    +0.000 A 
ENDBRANCH  33  34
BRANCH  33  41
ATOM     40  O   UNL     1     -11.924  41.727  20.253  0.00  0.00    +0.000 OA
ATOM     41  N   UNL     1      -9.941  42.783  20.198  0.00  0.00    +0.000 N 
ATOM     42  C   UNL     1     -11.281  42.750  20.471  0.00  0.00    +0.000 C 
ATOM     43  H   UNL     1      -9.565  41.890  19.893  0.00  0.00    +0.000 HD
BRANCH  42  44
ATOM     44  C   UNL     1     -11.972  43.955  20.983  0.00  0.00    +0.000 A 
ATOM     45  C   UNL     1     -12.630  44.839  20.122  0.00  0.00    +0.000 A 
ATOM     46  C   UNL     1     -11.897  44.237  22.352  0.00  0.00    +0.000 A 
ATOM     47  C   UNL     1     -13.263  45.971  20.640  0.00  0.00    +0.000 A 
ATOM     48  C   UNL     1     -12.528  45.370  22.866  0.00  0.00    +0.000 A 
ATOM     49  C   UNL     1     -13.218  46.230  22.011  0.00  0.00    +0.000 A 
ENDBRANCH  42  44
ENDBRANCH  33  41
ENDBRANCH  30  33
ENDBRANCH  29  30
ENDBRANCH  27  29
ENDBRANCH  18  27
BRANCH  17  50
ATOM     50  O   UNL     1      -5.562  41.161  12.047  0.00  0.00    +0.000 OA
BRANCH  50  52
ATOM     51  O   UNL     1      -7.463  40.023  12.361  0.00  0.00    +0.000 OA
ATOM     52  C   UNL     1      -6.722  40.632  11.596  0.00  0.00    +0.000 C 
ATOM     53  C   UNL     1      -7.018  40.740  10.130  0.00  0.00    +0.000 C 
ENDBRANCH  50  52
ENDBRANCH  17  50
BRANCH   7  54
ATOM     54  O   UNL     1      -4.288  44.442  15.667  0.00  0.00    +0.000 OA
BRANCH  54  56
ATOM     55  O   UNL     1      -3.766  46.313  16.180  0.00  0.00    +0.000 OA
ATOM     56  C   UNL     1      -4.229  45.317  16.726  0.00  0.00    +0.000 C 
BRANCH  56  57
ATOM     57  C   UNL     1      -4.509  44.817  18.552  0.00  0.00    +0.000 A 
ATOM     58  C   UNL     1      -4.489  43.449  19.065  0.00  0.00    +0.000 A 
ATOM     59  C   UNL     1      -4.641  45.683  19.680  0.00  0.00    +0.000 A 
ATOM     60  C   UNL     1      -4.579  43.039  20.419  0.00  0.00    +0.000 A 
ATOM     61  C   UNL     1      -4.735  45.291  21.045  0.00  0.00    +0.000 A 
ATOM     62  C   UNL     1      -4.700  43.969  21.418  0.00  0.00    +0.000 A 
ENDBRANCH  56  57
ENDBRANCH  54  56
ENDBRANCH   7  54
BRANCH   4  63
ATOM     63  O   UNL     1      -1.657  43.991  17.458  0.00  0.00    +0.000 OA
BRANCH  63  65
ATOM     64  O   UNL     1      -1.164  45.501  19.031  0.00  0.00    +0.000 OA
ATOM     65  C   UNL     1      -1.099  44.337  18.640  0.00  0.00    +0.000 C 
ATOM     66  C   UNL     1      -0.306  43.325  19.402  0.00  0.00    +0.000 C 
ENDBRANCH  63  65
ENDBRANCH   4  63
TORSDOF 17
ENDMDL
MODEL 5
REMARK VINA RESULT:      -7.1      3.202      8.346
REMARK  Name = 
REMARK  23 active torsions:
REMARK  status: ('A' for Active; 'I' for Inactive)
REMARK    1  A    between atoms: O_2  and  C_17
REMARK    2  A    between atoms: O_2  and  C_36
REMARK    3  A    between atoms: O_3  and  C_20
REMARK    4  A    between atoms: O_3  and  C_37
REMARK    5  A    between atoms: O_4  and  C_21
REMARK    6  A    between atoms: O_5  and  C_22
REMARK    7  A    between atoms: O_6  and  C_30
REMARK    8  A    between atoms: O_6  and  C_39
REMARK    9  A    between atoms: O_8  and  C_31
REMARK   10  A    between atoms: O_8  and  C_40
REMARK   11  A    between atoms: O_13  and  C_42
REMARK   12  A    between atoms: N_15  and  C_46
REMARK   13  A    between atoms: C_18  and  C_29
REMARK   14  A    between atoms: C_24  and  C_33
REMARK   15  A    between atoms: C_24  and  C_34
REMARK   16  A    between atoms: C_32  and  C_35
REMARK   17  A    between atoms: C_36  and  C_38
REMARK   18  A    between atoms: C_37  and  C_41
REMARK   19  A    between atoms: C_39  and  C_43
REMARK   20  A    between atoms: C_40  and  C_42
REMARK   21  A    between atoms: C_42  and  C_46
REMARK   22  A    between atoms: C_46  and  C_50
REMARK   23  A    between atoms: C_53  and  C_56
REMARK                            x       y       z     vdW  Elec       q    Type
REMARK                         _______ _______ _______ _____ _____    ______ ____
ROOT
ATOM      1  O   UNL     1      -4.686  41.332  12.435  0.00  0.00    +0.000 OA
ATOM      2  O   UNL     1      -4.480  47.264  15.471  0.00  0.00    +0.000 OA
ATOM      3  C   UNL     1      -4.355  42.910  15.475  0.00  0.00    +0.000 C 
ATOM      4  C   UNL     1      -5.054  41.978  14.442  0.00  0.00    +0.000 C 
ATOM      5  C   UNL     1      -5.003  44.666  15.165  0.00  0.00    +0.000 C 
ATOM      6  C   UNL     1      -4.359  42.559  13.144  0.00  0.00    +0.000 C 
ATOM      7  C   UNL     1      -4.318  42.157  17.181  0.00  0.00    +0.000 C 
ATOM      8  C   UNL     1      -3.778  42.536  18.957  0.00  0.00    +0.000 C 
ATOM      9  C   UNL     1      -4.578  44.977  13.669  0.00  0.00    +0.000 C 
ATOM     10  C   UNL     1      -4.914  43.866  12.627  0.00  0.00    +0.000 C 
ATOM     11  C   UNL     1      -3.266  44.085  19.651  0.00  0.00    +0.000 C 
ATOM     12  C   UNL     1      -4.539  40.658  13.744  0.00  0.00    +0.000 C 
ATOM     13  C   UNL     1      -4.606  46.220  16.147  0.00  0.00    +0.000 C 
ATOM     14  C   UNL     1      -5.053  42.236  19.872  0.00  0.00    +0.000 C 
ATOM     15  C   UNL     1      -4.351  45.241  19.397  0.00  0.00    +0.000 C 
ATOM     16  C   UNL     1      -6.586  44.727  15.102  0.00  0.00    +0.000 C 
ATOM     17  C   UNL     1      -4.345  46.419  18.040  0.00  0.00    +0.000 C 
ATOM     18  C   UNL     1      -5.997  43.455  20.280  0.00  0.00    +0.000 C 
ATOM     19  C   UNL     1      -5.560  44.936  19.978  0.00  0.00    +0.000 C 
ATOM     20  C   UNL     1      -3.175  43.860  21.243  0.00  0.00    +0.000 C 
ATOM     21  C   UNL     1      -1.778  44.538  19.492  0.00  0.00    +0.000 C 
ATOM     22  C   UNL     1      -6.668  45.949  20.120  0.00  0.00    +0.000 C 
ENDROOT
BRANCH   9  23
ATOM     23  O   UNL     1      -3.166  45.179  13.619  0.00  0.00    +0.000 OA
ATOM     24  H   UNL     1      -2.769  44.305  13.432  0.00  0.00    +0.000 HD
ENDBRANCH   9  23
BRANCH   8  25
ATOM     25  O   UNL     1      -2.793  41.536  19.283  0.00  0.00    +0.000 OA
ATOM     26  H   UNL     1      -2.805  41.388  20.245  0.00  0.00    +0.000 HD
ENDBRANCH   8  25
BRANCH  18  27
ATOM     27  O   UNL     1      -7.285  43.265  19.623  0.00  0.00    +0.000 OA
BRANCH  27  29
ATOM     28  O   UNL     1      -9.319  42.317  19.913  0.00  0.00    +0.000 OA
ATOM     29  C   UNL     1      -8.307  42.814  20.395  0.00  0.00    +0.000 C 
BRANCH  29  30
ATOM     30  C   UNL     1      -8.160  43.125  21.888  0.00  0.00    +0.000 C 
BRANCH  30  31
ATOM     31  O   UNL     1      -8.525  42.061  22.774  0.00  0.00    +0.000 OA
ATOM     32  H   UNL     1      -9.410  41.765  22.491  0.00  0.00    +0.000 HD
ENDBRANCH  30  31
BRANCH  30  33
ATOM     33  C   UNL     1      -8.988  44.402  22.199  0.00  0.00    +0.000 C 
BRANCH  33  34
ATOM     34  C   UNL     1      -8.303  45.238  23.271  0.00  0.00    +0.000 A 
ATOM     35  C   UNL     1      -8.925  46.411  23.734  0.00  0.00    +0.000 A 
ATOM     36  C   UNL     1      -7.048  44.893  23.796  0.00  0.00    +0.000 A 
ATOM     37  C   UNL     1      -8.315  47.206  24.706  0.00  0.00    +0.000 A 
ATOM     38  C   UNL     1      -6.441  45.687  24.770  0.00  0.00    +0.000 A 
ATOM     39  C   UNL     1      -7.075  46.842  25.226  0.00  0.00    +0.000 A 
ENDBRANCH  33  34
BRANCH  33  41
ATOM     40  O   UNL     1     -12.471  43.428  22.172  0.00  0.00    +0.000 OA
ATOM     41  N   UNL     1     -10.353  44.042  22.605  0.00  0.00    +0.000 N 
ATOM     42  C   UNL     1     -11.519  44.153  21.898  0.00  0.00    +0.000 C 
ATOM     43  H   UNL     1     -10.406  43.387  23.379  0.00  0.00    +0.000 HD
BRANCH  42  44
ATOM     44  C   UNL     1     -11.627  45.110  20.774  0.00  0.00    +0.000 A 
ATOM     45  C   UNL     1     -11.709  44.671  19.449  0.00  0.00    +0.000 A 
ATOM     46  C   UNL     1     -11.574  46.480  21.054  0.00  0.00    +0.000 A 
ATOM     47  C   UNL     1     -11.799  45.603  18.413  0.00  0.00    +0.000 A 
ATOM     48  C   UNL     1     -11.661  47.409  20.018  0.00  0.00    +0.000 A 
ATOM     49  C   UNL     1     -11.783  46.968  18.699  0.00  0.00    +0.000 A 
ENDBRANCH  42  44
ENDBRANCH  33  41
ENDBRANCH  30  33
ENDBRANCH  29  30
ENDBRANCH  27  29
ENDBRANCH  18  27
BRANCH  17  50
ATOM     50  O   UNL     1      -3.241  47.294  18.357  0.00  0.00    +0.000 OA
BRANCH  50  52
ATOM     51  O   UNL     1      -2.669  48.928  19.776  0.00  0.00    +0.000 OA
ATOM     52  C   UNL     1      -3.405  48.531  18.877  0.00  0.00    +0.000 C 
ATOM     53  C   UNL     1      -4.558  49.352  18.383  0.00  0.00    +0.000 C 
ENDBRANCH  50  52
ENDBRANCH  17  50
BRANCH   7  54
ATOM     54  O   UNL     1      -5.421  42.840  17.405  0.00  0.00    +0.000 OA
BRANCH  54  56
ATOM     55  O   UNL     1      -5.284  40.836  17.358  0.00  0.00    +0.000 OA
ATOM     56  C   UNL     1      -6.168  41.687  17.364  0.00  0.00    +0.000 C 
BRANCH  56  57
ATOM     57  C   UNL     1      -8.055  41.639  17.049  0.00  0.00    +0.000 A 
ATOM     58  C   UNL     1      -8.889  42.797  16.735  0.00  0.00    +0.000 A 
ATOM     59  C   UNL     1      -8.889  40.484  16.944  0.00  0.00    +0.000 A 
ATOM     60  C   UNL     1     -10.262  42.796  16.386  0.00  0.00    +0.000 A 
ATOM     61  C   UNL     1     -10.270  40.463  16.597  0.00  0.00    +0.000 A 
ATOM     62  C   UNL     1     -10.959  41.618  16.313  0.00  0.00    +0.000 A 
ENDBRANCH  56  57
ENDBRANCH  54  56
ENDBRANCH   7  54
BRANCH   4  63
ATOM     63  O   UNL     1      -6.494  42.118  14.463  0.00  0.00    +0.000 OA
BRANCH  63  65
ATOM     64  O   UNL     1      -7.384  40.147  13.898  0.00  0.00    +0.000 OA
ATOM     65  C   UNL     1      -7.348  41.365  13.734  0.00  0.00    +0.000 C 
ATOM     66  C   UNL     1      -8.155  42.009  12.652  0.00  0.00    +0.000 C 
ENDBRANCH  63  65
ENDBRANCH   4  63
TORSDOF 17
ENDMDL
MODEL 6
REMARK VINA RESULT:      -7.1      3.006      6.604
REMARK  Name = 
REMARK  23 active torsions:
REMARK  status: ('A' for Active; 'I' for Inactive)
REMARK    1  A    between atoms: O_2  and  C_17
REMARK    2  A    between atoms: O_2  and  C_36
REMARK    3  A    between atoms: O_3  and  C_20
REMARK    4  A    between atoms: O_3  and  C_37
REMARK    5  A    between atoms: O_4  and  C_21
REMARK    6  A    between atoms: O_5  and  C_22
REMARK    7  A    between atoms: O_6  and  C_30
REMARK    8  A    between atoms: O_6  and  C_39
REMARK    9  A    between atoms: O_8  and  C_31
REMARK   10  A    between atoms: O_8  and  C_40
REMARK   11  A    between atoms: O_13  and  C_42
REMARK   12  A    between atoms: N_15  and  C_46
REMARK   13  A    between atoms: C_18  and  C_29
REMARK   14  A    between atoms: C_24  and  C_33
REMARK   15  A    between atoms: C_24  and  C_34
REMARK   16  A    between atoms: C_32  and  C_35
REMARK   17  A    between atoms: C_36  and  C_38
REMARK   18  A    between atoms: C_37  and  C_41
REMARK   19  A    between atoms: C_39  and  C_43
REMARK   20  A    between atoms: C_40  and  C_42
REMARK   21  A    between atoms: C_42  and  C_46
REMARK   22  A    between atoms: C_46  and  C_50
REMARK   23  A    between atoms: C_53  and  C_56
REMARK                            x       y       z     vdW  Elec       q    Type
REMARK                         _______ _______ _______ _____ _____    ______ ____
ROOT
ATOM      1  O   UNL     1      -0.076  43.016  18.461  0.00  0.00    +0.000 OA
ATOM      2  O   UNL     1      -3.997  40.477  13.703  0.00  0.00    +0.000 OA
ATOM      3  C   UNL     1      -2.643  43.718  16.280  0.00  0.00    +0.000 C 
ATOM      4  C   UNL     1      -1.997  43.554  17.687  0.00  0.00    +0.000 C 
ATOM      5  C   UNL     1      -3.306  42.015  15.772  0.00  0.00    +0.000 C 
ATOM      6  C   UNL     1      -0.781  42.642  17.246  0.00  0.00    +0.000 C 
ATOM      7  C   UNL     1      -3.688  45.259  16.168  0.00  0.00    +0.000 C 
ATOM      8  C   UNL     1      -4.825  46.195  14.977  0.00  0.00    +0.000 C 
ATOM      9  C   UNL     1      -2.019  41.088  15.754  0.00  0.00    +0.000 C 
ATOM     10  C   UNL     1      -1.102  41.183  17.011  0.00  0.00    +0.000 C 
ATOM     11  C   UNL     1      -5.506  45.645  13.434  0.00  0.00    +0.000 C 
ATOM     12  C   UNL     1      -0.779  44.313  18.348  0.00  0.00    +0.000 C 
ATOM     13  C   UNL     1      -4.273  41.582  14.218  0.00  0.00    +0.000 C 
ATOM     14  C   UNL     1      -6.174  46.469  15.787  0.00  0.00    +0.000 C 
ATOM     15  C   UNL     1      -6.290  44.253  13.591  0.00  0.00    +0.000 C 
ATOM     16  C   UNL     1      -4.203  41.351  16.898  0.00  0.00    +0.000 C 
ATOM     17  C   UNL     1      -5.609  42.615  13.300  0.00  0.00    +0.000 C 
ATOM     18  C   UNL     1      -7.394  45.460  15.592  0.00  0.00    +0.000 C 
ATOM     19  C   UNL     1      -7.346  44.363  14.466  0.00  0.00    +0.000 C 
ATOM     20  C   UNL     1      -6.589  46.754  12.996  0.00  0.00    +0.000 C 
ATOM     21  C   UNL     1      -4.649  45.770  12.134  0.00  0.00    +0.000 C 
ATOM     22  C   UNL     1      -8.402  43.293  14.600  0.00  0.00    +0.000 C 
ENDROOT
BRANCH   9  23
ATOM     23  O   UNL     1      -1.214  41.431  14.626  0.00  0.00    +0.000 OA
ATOM     24  H   UNL     1      -0.758  42.265  14.857  0.00  0.00    +0.000 HD
ENDBRANCH   9  23
BRANCH   8  25
ATOM     25  O   UNL     1      -4.200  47.477  14.773  0.00  0.00    +0.000 OA
ATOM     26  H   UNL     1      -3.370  47.347  14.281  0.00  0.00    +0.000 HD
ENDBRANCH   8  25
BRANCH  18  27
ATOM     27  O   UNL     1      -7.596  44.750  16.849  0.00  0.00    +0.000 OA
BRANCH  27  29
ATOM     28  O   UNL     1      -8.400  45.805  18.683  0.00  0.00    +0.000 OA
ATOM     29  C   UNL     1      -8.607  45.186  17.645  0.00  0.00    +0.000 C 
BRANCH  29  30
ATOM     30  C   UNL     1      -9.998  44.703  17.224  0.00  0.00    +0.000 C 
BRANCH  30  31
ATOM     31  O   UNL     1     -11.021  45.705  17.226  0.00  0.00    +0.000 OA
ATOM     32  H   UNL     1     -11.134  45.977  16.296  0.00  0.00    +0.000 HD
ENDBRANCH  30  31
BRANCH  30  33
ATOM     33  C   UNL     1     -10.396  43.517  18.145  0.00  0.00    +0.000 C 
BRANCH  33  34
ATOM     34  C   UNL     1     -10.206  42.189  17.424  0.00  0.00    +0.000 A 
ATOM     35  C   UNL     1     -11.244  41.684  16.622  0.00  0.00    +0.000 A 
ATOM     36  C   UNL     1      -9.032  41.430  17.559  0.00  0.00    +0.000 A 
ATOM     37  C   UNL     1     -11.103  40.464  15.959  0.00  0.00    +0.000 A 
ATOM     38  C   UNL     1      -8.893  40.212  16.894  0.00  0.00    +0.000 A 
ATOM     39  C   UNL     1      -9.927  39.730  16.093  0.00  0.00    +0.000 A 
ENDBRANCH  33  34
BRANCH  33  41
ATOM     40  O   UNL     1     -13.420  44.768  19.686  0.00  0.00    +0.000 OA
ATOM     41  N   UNL     1     -11.782  43.670  18.609  0.00  0.00    +0.000 N 
ATOM     42  C   UNL     1     -12.258  44.370  19.683  0.00  0.00    +0.000 C 
ATOM     43  H   UNL     1     -12.488  43.468  17.908  0.00  0.00    +0.000 HD
BRANCH  42  44
ATOM     44  C   UNL     1     -11.370  44.695  20.821  0.00  0.00    +0.000 A 
ATOM     45  C   UNL     1     -10.746  45.941  20.928  0.00  0.00    +0.000 A 
ATOM     46  C   UNL     1     -11.103  43.697  21.766  0.00  0.00    +0.000 A 
ATOM     47  C   UNL     1      -9.906  46.208  22.010  0.00  0.00    +0.000 A 
ATOM     48  C   UNL     1     -10.261  43.965  22.846  0.00  0.00    +0.000 A 
ATOM     49  C   UNL     1      -9.672  45.224  22.971  0.00  0.00    +0.000 A 
ENDBRANCH  42  44
ENDBRANCH  33  41
ENDBRANCH  30  33
ENDBRANCH  29  30
ENDBRANCH  27  29
ENDBRANCH  18  27
BRANCH  17  50
ATOM     50  O   UNL     1      -5.460  42.561  11.865  0.00  0.00    +0.000 OA
BRANCH  50  52
ATOM     51  O   UNL     1      -5.867  41.595   9.888  0.00  0.00    +0.000 OA
ATOM     52  C   UNL     1      -6.116  41.671  11.087  0.00  0.00    +0.000 C 
ATOM     53  C   UNL     1      -7.205  40.856  11.719  0.00  0.00    +0.000 C 
ENDBRANCH  50  52
ENDBRANCH  17  50
BRANCH   7  54
ATOM     54  O   UNL     1      -4.704  44.480  16.474  0.00  0.00    +0.000 OA
BRANCH  54  56
ATOM     55  O   UNL     1      -3.998  45.970  17.621  0.00  0.00    +0.000 OA
ATOM     56  C   UNL     1      -4.763  45.019  17.737  0.00  0.00    +0.000 C 
BRANCH  56  57
ATOM     57  C   UNL     1      -5.600  44.166  19.233  0.00  0.00    +0.000 A 
ATOM     58  C   UNL     1      -5.819  44.780  20.541  0.00  0.00    +0.000 A 
ATOM     59  C   UNL     1      -6.238  42.889  19.259  0.00  0.00    +0.000 A 
ATOM     60  C   UNL     1      -6.530  44.231  21.637  0.00  0.00    +0.000 A 
ATOM     61  C   UNL     1      -6.954  42.320  20.350  0.00  0.00    +0.000 A 
ATOM     62  C   UNL     1      -7.105  42.991  21.540  0.00  0.00    +0.000 A 
ENDBRANCH  56  57
ENDBRANCH  54  56
ENDBRANCH   7  54
BRANCH   4  63
ATOM     63  O   UNL     1      -2.897  42.932  18.635  0.00  0.00    +0.000 OA
BRANCH  63  65
ATOM     64  O   UNL     1      -2.488  41.427  20.236  0.00  0.00    +0.000 OA
ATOM     65  C   UNL     1      -2.568  42.608  19.906  0.00  0.00    +0.000 C 
ATOM     66  C   UNL     1      -2.420  43.692  20.925  0.00  0.00    +0.000 C 
ENDBRANCH  63  65
ENDBRANCH   4  63
TORSDOF 17
ENDMDL
MODEL 7
REMARK VINA RESULT:      -7.0      2.775      5.735
REMARK  Name = 
REMARK  23 active torsions:
REMARK  status: ('A' for Active; 'I' for Inactive)
REMARK    1  A    between atoms: O_2  and  C_17
REMARK    2  A    between atoms: O_2  and  C_36
REMARK    3  A    between atoms: O_3  and  C_20
REMARK    4  A    between atoms: O_3  and  C_37
REMARK    5  A    between atoms: O_4  and  C_21
REMARK    6  A    between atoms: O_5  and  C_22
REMARK    7  A    between atoms: O_6  and  C_30
REMARK    8  A    between atoms: O_6  and  C_39
REMARK    9  A    between atoms: O_8  and  C_31
REMARK   10  A    between atoms: O_8  and  C_40
REMARK   11  A    between atoms: O_13  and  C_42
REMARK   12  A    between atoms: N_15  and  C_46
REMARK   13  A    between atoms: C_18  and  C_29
REMARK   14  A    between atoms: C_24  and  C_33
REMARK   15  A    between atoms: C_24  and  C_34
REMARK   16  A    between atoms: C_32  and  C_35
REMARK   17  A    between atoms: C_36  and  C_38
REMARK   18  A    between atoms: C_37  and  C_41
REMARK   19  A    between atoms: C_39  and  C_43
REMARK   20  A    between atoms: C_40  and  C_42
REMARK   21  A    between atoms: C_42  and  C_46
REMARK   22  A    between atoms: C_46  and  C_50
REMARK   23  A    between atoms: C_53  and  C_56
REMARK                            x       y       z     vdW  Elec       q    Type
REMARK                         _______ _______ _______ _____ _____    ______ ____
ROOT
ATOM      1  O   UNL     1       0.687  44.415  16.836  0.00  0.00    +0.000 OA
ATOM      2  O   UNL     1      -2.859  39.998  13.318  0.00  0.00    +0.000 OA
ATOM      3  C   UNL     1      -2.239  43.929  15.092  0.00  0.00    +0.000 C 
ATOM      4  C   UNL     1      -1.393  44.231  16.363  0.00  0.00    +0.000 C 
ATOM      5  C   UNL     1      -2.406  42.043  14.973  0.00  0.00    +0.000 C 
ATOM      6  C   UNL     1      -0.025  43.628  15.842  0.00  0.00    +0.000 C 
ATOM      7  C   UNL     1      -3.714  45.062  14.950  0.00  0.00    +0.000 C 
ATOM      8  C   UNL     1      -5.232  45.390  13.867  0.00  0.00    +0.000 C 
ATOM      9  C   UNL     1      -0.910  41.529  14.853  0.00  0.00    +0.000 C 
ATOM     10  C   UNL     1       0.092  42.121  15.889  0.00  0.00    +0.000 C 
ATOM     11  C   UNL     1      -5.910  44.379  12.576  0.00  0.00    +0.000 C 
ATOM     12  C   UNL     1      -0.391  45.415  16.666  0.00  0.00    +0.000 C 
ATOM     13  C   UNL     1      -3.391  41.060  13.707  0.00  0.00    +0.000 C 
ATOM     14  C   UNL     1      -6.479  45.428  14.864  0.00  0.00    +0.000 C 
ATOM     15  C   UNL     1      -6.198  42.882  13.080  0.00  0.00    +0.000 C 
ATOM     16  C   UNL     1      -2.895  41.388  16.331  0.00  0.00    +0.000 C 
ATOM     17  C   UNL     1      -5.090  41.477  12.912  0.00  0.00    +0.000 C 
ATOM     18  C   UNL     1      -7.343  44.100  15.051  0.00  0.00    +0.000 C 
ATOM     19  C   UNL     1      -7.110  42.862  14.109  0.00  0.00    +0.000 C 
ATOM     20  C   UNL     1      -7.330  45.032  12.188  0.00  0.00    +0.000 C 
ATOM     21  C   UNL     1      -5.315  44.482  11.135  0.00  0.00    +0.000 C 
ATOM     22  C   UNL     1      -7.756  41.587  14.594  0.00  0.00    +0.000 C 
ENDROOT
BRANCH   9  23
ATOM     23  O   UNL     1      -0.409  41.855  13.557  0.00  0.00    +0.000 OA
ATOM     24  H   UNL     1      -0.086  42.777  13.610  0.00  0.00    +0.000 HD
ENDBRANCH   9  23
BRANCH   8  25
ATOM     25  O   UNL     1      -5.067  46.729  13.364  0.00  0.00    +0.000 OA
ATOM     26  H   UNL     1      -4.934  46.688  12.400  0.00  0.00    +0.000 HD
ENDBRANCH   8  25
BRANCH  18  27
ATOM     27  O   UNL     1      -7.146  43.623  16.414  0.00  0.00    +0.000 OA
BRANCH  27  29
ATOM     28  O   UNL     1      -8.424  45.139  17.505  0.00  0.00    +0.000 OA
ATOM     29  C   UNL     1      -8.087  43.973  17.329  0.00  0.00    +0.000 C 
BRANCH  29  30
ATOM     30  C   UNL     1      -8.564  42.823  18.220  0.00  0.00    +0.000 C 
BRANCH  30  31
ATOM     31  O   UNL     1      -8.124  41.518  17.825  0.00  0.00    +0.000 OA
ATOM     32  H   UNL     1      -7.983  41.561  16.861  0.00  0.00    +0.000 HD
ENDBRANCH  30  31
BRANCH  30  33
ATOM     33  C   UNL     1     -10.115  42.877  18.290  0.00  0.00    +0.000 C 
BRANCH  33  34
ATOM     34  C   UNL     1     -10.580  43.151  19.713  0.00  0.00    +0.000 A 
ATOM     35  C   UNL     1      -9.628  43.447  20.705  0.00  0.00    +0.000 A 
ATOM     36  C   UNL     1     -11.933  43.087  20.080  0.00  0.00    +0.000 A 
ATOM     37  C   UNL     1     -10.023  43.689  22.022  0.00  0.00    +0.000 A 
ATOM     38  C   UNL     1     -12.325  43.332  21.397  0.00  0.00    +0.000 A 
ATOM     39  C   UNL     1     -11.371  43.635  22.367  0.00  0.00    +0.000 A 
ENDBRANCH  33  34
BRANCH  33  41
ATOM     40  O   UNL     1     -11.245  40.210  16.124  0.00  0.00    +0.000 OA
ATOM     41  N   UNL     1     -10.695  41.628  17.778  0.00  0.00    +0.000 N 
ATOM     42  C   UNL     1     -11.216  41.364  16.541  0.00  0.00    +0.000 C 
ATOM     43  H   UNL     1     -10.434  40.795  18.297  0.00  0.00    +0.000 HD
BRANCH  42  44
ATOM     44  C   UNL     1     -11.701  42.466  15.679  0.00  0.00    +0.000 A 
ATOM     45  C   UNL     1     -12.971  43.024  15.856  0.00  0.00    +0.000 A 
ATOM     46  C   UNL     1     -10.888  42.899  14.626  0.00  0.00    +0.000 A 
ATOM     47  C   UNL     1     -13.399  44.056  15.018  0.00  0.00    +0.000 A 
ATOM     48  C   UNL     1     -11.319  43.927  13.788  0.00  0.00    +0.000 A 
ATOM     49  C   UNL     1     -12.570  44.511  13.992  0.00  0.00    +0.000 A 
ENDBRANCH  42  44
ENDBRANCH  33  41
ENDBRANCH  30  33
ENDBRANCH  29  30
ENDBRANCH  27  29
ENDBRANCH  18  27
BRANCH  17  50
ATOM     50  O   UNL     1      -5.125  41.186  11.497  0.00  0.00    +0.000 OA
BRANCH  50  52
ATOM     51  O   UNL     1      -6.453  41.138   9.697  0.00  0.00    +0.000 OA
ATOM     52  C   UNL     1      -6.244  40.784  10.854  0.00  0.00    +0.000 C 
ATOM     53  C   UNL     1      -7.245  39.978  11.625  0.00  0.00    +0.000 C 
ENDBRANCH  50  52
ENDBRANCH  17  50
BRANCH   7  54
ATOM     54  O   UNL     1      -4.389  44.105  15.551  0.00  0.00    +0.000 OA
BRANCH  54  56
ATOM     55  O   UNL     1      -3.961  45.908  16.328  0.00  0.00    +0.000 OA
ATOM     56  C   UNL     1      -4.467  44.855  16.701  0.00  0.00    +0.000 C 
BRANCH  56  57
ATOM     57  C   UNL     1      -4.948  44.150  18.415  0.00  0.00    +0.000 A 
ATOM     58  C   UNL     1      -5.508  44.925  19.520  0.00  0.00    +0.000 A 
ATOM     59  C   UNL     1      -4.959  42.780  18.818  0.00  0.00    +0.000 A 
ATOM     60  C   UNL     1      -5.981  44.430  20.761  0.00  0.00    +0.000 A 
ATOM     61  C   UNL     1      -5.429  42.264  20.059  0.00  0.00    +0.000 A 
ATOM     62  C   UNL     1      -5.944  43.087  21.032  0.00  0.00    +0.000 A 
ENDBRANCH  56  57
ENDBRANCH  54  56
ENDBRANCH   7  54
BRANCH   4  63
ATOM     63  O   UNL     1      -1.921  43.581  17.542  0.00  0.00    +0.000 OA
BRANCH  63  65
ATOM     64  O   UNL     1      -0.732  42.790  19.262  0.00  0.00    +0.000 OA
ATOM     65  C   UNL     1      -1.401  43.704  18.785  0.00  0.00    +0.000 C 
ATOM     66  C   UNL     1      -1.744  44.904  19.609  0.00  0.00    +0.000 C 
ENDBRANCH  63  65
ENDBRANCH   4  63
TORSDOF 17
ENDMDL
MODEL 8
REMARK VINA RESULT:      -7.0      3.289      6.785
REMARK  Name = 
REMARK  23 active torsions:
REMARK  status: ('A' for Active; 'I' for Inactive)
REMARK    1  A    between atoms: O_2  and  C_17
REMARK    2  A    between atoms: O_2  and  C_36
REMARK    3  A    between atoms: O_3  and  C_20
REMARK    4  A    between atoms: O_3  and  C_37
REMARK    5  A    between atoms: O_4  and  C_21
REMARK    6  A    between atoms: O_5  and  C_22
REMARK    7  A    between atoms: O_6  and  C_30
REMARK    8  A    between atoms: O_6  and  C_39
REMARK    9  A    between atoms: O_8  and  C_31
REMARK   10  A    between atoms: O_8  and  C_40
REMARK   11  A    between atoms: O_13  and  C_42
REMARK   12  A    between atoms: N_15  and  C_46
REMARK   13  A    between atoms: C_18  and  C_29
REMARK   14  A    between atoms: C_24  and  C_33
REMARK   15  A    between atoms: C_24  and  C_34
REMARK   16  A    between atoms: C_32  and  C_35
REMARK   17  A    between atoms: C_36  and  C_38
REMARK   18  A    between atoms: C_37  and  C_41
REMARK   19  A    between atoms: C_39  and  C_43
REMARK   20  A    between atoms: C_40  and  C_42
REMARK   21  A    between atoms: C_42  and  C_46
REMARK   22  A    between atoms: C_46  and  C_50
REMARK   23  A    between atoms: C_53  and  C_56
REMARK                            x       y       z     vdW  Elec       q    Type
REMARK                         _______ _______ _______ _____ _____    ______ ____
ROOT
ATOM      1  O   UNL     1     -11.008  46.653  19.482  0.00  0.00    +0.000 OA
ATOM      2  O   UNL     1      -5.864  44.155  22.912  0.00  0.00    +0.000 OA
ATOM      3  C   UNL     1      -7.670  45.831  19.319  0.00  0.00    +0.000 C 
ATOM      4  C   UNL     1      -9.169  45.715  18.914  0.00  0.00    +0.000 C 
ATOM      5  C   UNL     1      -7.402  44.665  20.791  0.00  0.00    +0.000 C 
ATOM      6  C   UNL     1      -9.780  46.381  20.214  0.00  0.00    +0.000 C 
ATOM      7  C   UNL     1      -6.544  45.821  17.833  0.00  0.00    +0.000 C 
ATOM      8  C   UNL     1      -4.709  45.852  17.363  0.00  0.00    +0.000 C 
ATOM      9  C   UNL     1      -8.385  45.217  21.907  0.00  0.00    +0.000 C 
ATOM     10  C   UNL     1      -9.845  45.499  21.440  0.00  0.00    +0.000 C 
ATOM     11  C   UNL     1      -3.295  45.638  18.412  0.00  0.00    +0.000 C 
ATOM     12  C   UNL     1     -10.145  46.788  18.288  0.00  0.00    +0.000 C 
ATOM     13  C   UNL     1      -5.783  44.290  21.672  0.00  0.00    +0.000 C 
ATOM     14  C   UNL     1      -4.494  44.625  16.363  0.00  0.00    +0.000 C 
ATOM     15  C   UNL     1      -3.381  44.277  19.259  0.00  0.00    +0.000 C 
ATOM     16  C   UNL     1      -7.960  43.205  20.521  0.00  0.00    +0.000 C 
ATOM     17  C   UNL     1      -4.019  44.109  20.931  0.00  0.00    +0.000 C 
ATOM     18  C   UNL     1      -3.951  43.248  16.958  0.00  0.00    +0.000 C 
ATOM     19  C   UNL     1      -3.428  43.173  18.440  0.00  0.00    +0.000 C 
ATOM     20  C   UNL     1      -2.021  45.509  17.434  0.00  0.00    +0.000 C 
ATOM     21  C   UNL     1      -2.737  46.866  19.201  0.00  0.00    +0.000 C 
ATOM     22  C   UNL     1      -3.250  41.769  18.961  0.00  0.00    +0.000 C 
ENDROOT
BRANCH   9  23
ATOM     23  O   UNL     1      -7.867  46.446  22.416  0.00  0.00    +0.000 OA
ATOM     24  H   UNL     1      -8.184  47.148  21.813  0.00  0.00    +0.000 HD
ENDBRANCH   9  23
BRANCH   8  25
ATOM     25  O   UNL     1      -4.529  47.052  16.586  0.00  0.00    +0.000 OA
ATOM     26  H   UNL     1      -5.330  47.599  16.666  0.00  0.00    +0.000 HD
ENDBRANCH   8  25
BRANCH  18  27
ATOM     27  O   UNL     1      -5.015  42.259  16.846  0.00  0.00    +0.000 OA
BRANCH  27  29
ATOM     28  O   UNL     1      -4.061  40.248  16.440  0.00  0.00    +0.000 OA
ATOM     29  C   UNL     1      -4.769  41.177  16.064  0.00  0.00    +0.000 C 
BRANCH  29  30
ATOM     30  C   UNL     1      -5.308  41.289  14.635  0.00  0.00    +0.000 C 
BRANCH  30  31
ATOM     31  O   UNL     1      -5.781  40.066  14.061  0.00  0.00    +0.000 OA
ATOM     32  H   UNL     1      -6.551  39.796  14.596  0.00  0.00    +0.000 HD
ENDBRANCH  30  31
BRANCH  30  33
ATOM     33  C   UNL     1      -4.196  41.914  13.748  0.00  0.00    +0.000 C 
BRANCH  33  34
ATOM     34  C   UNL     1      -4.805  42.795  12.665  0.00  0.00    +0.000 A 
ATOM     35  C   UNL     1      -4.550  44.177  12.675  0.00  0.00    +0.000 A 
ATOM     36  C   UNL     1      -5.645  42.275  11.668  0.00  0.00    +0.000 A 
ATOM     37  C   UNL     1      -5.105  45.012  11.704  0.00  0.00    +0.000 A 
ATOM     38  C   UNL     1      -6.197  43.111  10.696  0.00  0.00    +0.000 A 
ATOM     39  C   UNL     1      -5.926  44.478  10.713  0.00  0.00    +0.000 A 
ENDBRANCH  33  34
BRANCH  33  41
ATOM     40  O   UNL     1      -1.872  39.181  13.294  0.00  0.00    +0.000 OA
ATOM     41  N   UNL     1      -3.357  40.862  13.160  0.00  0.00    +0.000 N 
ATOM     42  C   UNL     1      -2.203  40.310  13.643  0.00  0.00    +0.000 C 
ATOM     43  H   UNL     1      -3.823  40.287  12.464  0.00  0.00    +0.000 HD
BRANCH  42  44
ATOM     44  C   UNL     1      -1.372  41.047  14.622  0.00  0.00    +0.000 A 
ATOM     45  C   UNL     1      -1.154  42.423  14.505  0.00  0.00    +0.000 A 
ATOM     46  C   UNL     1      -0.740  40.323  15.641  0.00  0.00    +0.000 A 
ATOM     47  C   UNL     1      -0.356  43.082  15.441  0.00  0.00    +0.000 A 
ATOM     48  C   UNL     1       0.059  40.984  16.573  0.00  0.00    +0.000 A 
ATOM     49  C   UNL     1       0.242  42.365  16.478  0.00  0.00    +0.000 A 
ENDBRANCH  42  44
ENDBRANCH  33  41
ENDBRANCH  30  33
ENDBRANCH  29  30
ENDBRANCH  27  29
ENDBRANCH  18  27
BRANCH  17  50
ATOM     50  O   UNL     1      -3.010  44.748  21.743  0.00  0.00    +0.000 OA
BRANCH  50  52
ATOM     51  O   UNL     1      -2.511  44.295  23.878  0.00  0.00    +0.000 OA
ATOM     52  C   UNL     1      -2.297  44.091  22.686  0.00  0.00    +0.000 C 
ATOM     53  C   UNL     1      -1.192  43.188  22.227  0.00  0.00    +0.000 C 
ENDBRANCH  50  52
ENDBRANCH  17  50
BRANCH   7  54
ATOM     54  O   UNL     1      -6.435  44.525  18.040  0.00  0.00    +0.000 OA
BRANCH  54  56
ATOM     55  O   UNL     1      -7.312  45.391  16.453  0.00  0.00    +0.000 OA
ATOM     56  C   UNL     1      -7.178  44.262  16.914  0.00  0.00    +0.000 C 
BRANCH  56  57
ATOM     57  C   UNL     1      -7.985  42.569  16.529  0.00  0.00    +0.000 A 
ATOM     58  C   UNL     1      -8.126  41.466  17.477  0.00  0.00    +0.000 A 
ATOM     59  C   UNL     1      -8.671  42.185  15.337  0.00  0.00    +0.000 A 
ATOM     60  C   UNL     1      -8.812  40.243  17.273  0.00  0.00    +0.000 A 
ATOM     61  C   UNL     1      -9.364  40.962  15.113  0.00  0.00    +0.000 A 
ATOM     62  C   UNL     1      -9.439  39.989  16.081  0.00  0.00    +0.000 A 
ENDBRANCH  56  57
ENDBRANCH  54  56
ENDBRANCH   7  54
BRANCH   4  63
ATOM     63  O   UNL     1      -9.576  44.343  18.699  0.00  0.00    +0.000 OA
BRANCH  63  65
ATOM     64  O   UNL     1     -10.928  44.277  16.920  0.00  0.00    +0.000 OA
ATOM     65  C   UNL     1     -10.725  43.970  18.093  0.00  0.00    +0.000 C 
ATOM     66  C   UNL     1     -11.790  43.290  18.893  0.00  0.00    +0.000 C 
ENDBRANCH  63  65
ENDBRANCH   4  63
TORSDOF 17
ENDMDL
MODEL 9
REMARK VINA RESULT:      -6.8      3.581      8.352
REMARK  Name = 
REMARK  23 active torsions:
REMARK  status: ('A' for Active; 'I' for Inactive)
REMARK    1  A    between atoms: O_2  and  C_17
REMARK    2  A    between atoms: O_2  and  C_36
REMARK    3  A    between atoms: O_3  and  C_20
REMARK    4  A    between atoms: O_3  and  C_37
REMARK    5  A    between atoms: O_4  and  C_21
REMARK    6  A    between atoms: O_5  and  C_22
REMARK    7  A    between atoms: O_6  and  C_30
REMARK    8  A    between atoms: O_6  and  C_39
REMARK    9  A    between atoms: O_8  and  C_31
REMARK   10  A    between atoms: O_8  and  C_40
REMARK   11  A    between atoms: O_13  and  C_42
REMARK   12  A    between atoms: N_15  and  C_46
REMARK   13  A    between atoms: C_18  and  C_29
REMARK   14  A    between atoms: C_24  and  C_33
REMARK   15  A    between atoms: C_24  and  C_34
REMARK   16  A    between atoms: C_32  and  C_35
REMARK   17  A    between atoms: C_36  and  C_38
REMARK   18  A    between atoms: C_37  and  C_41
REMARK   19  A    between atoms: C_39  and  C_43
REMARK   20  A    between atoms: C_40  and  C_42
REMARK   21  A    between atoms: C_42  and  C_46
REMARK   22  A    between atoms: C_46  and  C_50
REMARK   23  A    between atoms: C_53  and  C_56
REMARK                            x       y       z     vdW  Elec       q    Type
REMARK                         _______ _______ _______ _____ _____    ______ ____
ROOT
ATOM      1  O   UNL     1       1.707  43.296  15.772  0.00  0.00    +0.000 OA
ATOM      2  O   UNL     1      -3.874  39.821  14.663  0.00  0.00    +0.000 OA
ATOM      3  C   UNL     1      -1.727  43.483  15.637  0.00  0.00    +0.000 C 
ATOM      4  C   UNL     1      -0.339  43.567  16.339  0.00  0.00    +0.000 C 
ATOM      5  C   UNL     1      -2.299  41.679  15.754  0.00  0.00    +0.000 C 
ATOM      6  C   UNL     1       0.470  42.703  15.288  0.00  0.00    +0.000 C 
ATOM      7  C   UNL     1      -2.835  44.905  16.114  0.00  0.00    +0.000 C 
ATOM      8  C   UNL     1      -4.586  45.574  15.842  0.00  0.00    +0.000 C 
ATOM      9  C   UNL     1      -1.173  40.865  14.989  0.00  0.00    +0.000 C 
ATOM     10  C   UNL     1       0.295  41.205  15.389  0.00  0.00    +0.000 C 
ATOM     11  C   UNL     1      -5.978  44.764  15.098  0.00  0.00    +0.000 C 
ATOM     12  C   UNL     1       0.899  44.504  16.049  0.00  0.00    +0.000 C 
ATOM     13  C   UNL     1      -3.938  40.960  15.172  0.00  0.00    +0.000 C 
ATOM     14  C   UNL     1      -5.179  45.848  17.300  0.00  0.00    +0.000 C 
ATOM     15  C   UNL     1      -6.284  43.348  15.791  0.00  0.00    +0.000 C 
ATOM     16  C   UNL     1      -2.208  41.106  17.229  0.00  0.00    +0.000 C 
ATOM     17  C   UNL     1      -5.690  41.746  15.233  0.00  0.00    +0.000 C 
ATOM     18  C   UNL     1      -6.097  44.726  17.969  0.00  0.00    +0.000 C 
ATOM     19  C   UNL     1      -6.586  43.493  17.125  0.00  0.00    +0.000 C 
ATOM     20  C   UNL     1      -7.252  45.711  15.369  0.00  0.00    +0.000 C 
ATOM     21  C   UNL     1      -6.127  44.778  13.542  0.00  0.00    +0.000 C 
ATOM     22  C   UNL     1      -7.165  42.370  17.950  0.00  0.00    +0.000 C 
ENDROOT
BRANCH   9  23
ATOM     23  O   UNL     1      -1.289  41.113  13.588  0.00  0.00    +0.000 OA
ATOM     24  H   UNL     1      -0.488  41.611  13.330  0.00  0.00    +0.000 HD
ENDBRANCH   9  23
BRANCH   8  25
ATOM     25  O   UNL     1      -4.416  46.862  15.220  0.00  0.00    +0.000 OA
ATOM     26  H   UNL     1      -4.942  47.519  15.709  0.00  0.00    +0.000 HD
ENDBRANCH   8  25
BRANCH  18  27
ATOM     27  O   UNL     1      -5.378  44.183  19.115  0.00  0.00    +0.000 OA
BRANCH  27  29
ATOM     28  O   UNL     1      -5.997  43.624  21.218  0.00  0.00    +0.000 OA
ATOM     29  C   UNL     1      -5.873  44.476  20.345  0.00  0.00    +0.000 C 
BRANCH  29  30
ATOM     30  C   UNL     1      -6.405  45.905  20.491  0.00  0.00    +0.000 C 
BRANCH  30  31
ATOM     31  O   UNL     1      -5.792  46.685  21.524  0.00  0.00    +0.000 OA
ATOM     32  H   UNL     1      -6.243  46.438  22.352  0.00  0.00    +0.000 HD
ENDBRANCH  30  31
BRANCH  30  33
ATOM     33  C   UNL     1      -7.942  45.828  20.706  0.00  0.00    +0.000 C 
BRANCH  33  34
ATOM     34  C   UNL     1      -8.613  47.115  20.247  0.00  0.00    +0.000 A 
ATOM     35  C   UNL     1      -8.333  47.622  18.966  0.00  0.00    +0.000 A 
ATOM     36  C   UNL     1      -9.486  47.837  21.077  0.00  0.00    +0.000 A 
ATOM     37  C   UNL     1      -8.922  48.806  18.522  0.00  0.00    +0.000 A 
ATOM     38  C   UNL     1     -10.076  49.020  20.631  0.00  0.00    +0.000 A 
ATOM     39  C   UNL     1      -9.796  49.503  19.353  0.00  0.00    +0.000 A 
ENDBRANCH  33  34
BRANCH  33  41
ATOM     40  O   UNL     1      -8.772  44.169  23.810  0.00  0.00    +0.000 OA
ATOM     41  N   UNL     1      -8.249  45.548  22.114  0.00  0.00    +0.000 N 
ATOM     42  C   UNL     1      -8.970  44.515  22.650  0.00  0.00    +0.000 C 
ATOM     43  H   UNL     1      -7.636  46.006  22.782  0.00  0.00    +0.000 HD
BRANCH  42  44
ATOM     44  C   UNL     1      -9.955  43.780  21.824  0.00  0.00    +0.000 A 
ATOM     45  C   UNL     1      -9.549  42.913  20.805  0.00  0.00    +0.000 A 
ATOM     46  C   UNL     1     -11.317  44.023  22.034  0.00  0.00    +0.000 A 
ATOM     47  C   UNL     1     -10.507  42.244  20.040  0.00  0.00    +0.000 A 
ATOM     48  C   UNL     1     -12.271  43.356  21.267  0.00  0.00    +0.000 A 
ATOM     49  C   UNL     1     -11.865  42.460  20.277  0.00  0.00    +0.000 A 
ENDBRANCH  42  44
ENDBRANCH  33  41
ENDBRANCH  30  33
ENDBRANCH  29  30
ENDBRANCH  27  29
ENDBRANCH  18  27
BRANCH  17  50
ATOM     50  O   UNL     1      -6.445  41.508  14.025  0.00  0.00    +0.000 OA
BRANCH  50  52
ATOM     51  O   UNL     1      -7.270  39.621  13.148  0.00  0.00    +0.000 OA
ATOM     52  C   UNL     1      -7.404  40.559  13.928  0.00  0.00    +0.000 C 
ATOM     53  C   UNL     1      -8.656  40.743  14.732  0.00  0.00    +0.000 C 
ENDBRANCH  50  52
ENDBRANCH  17  50
BRANCH   7  54
ATOM     54  O   UNL     1      -3.322  44.097  17.032  0.00  0.00    +0.000 OA
BRANCH  54  56
ATOM     55  O   UNL     1      -2.295  45.787  17.387  0.00  0.00    +0.000 OA
ATOM     56  C   UNL     1      -2.715  44.827  18.026  0.00  0.00    +0.000 C 
BRANCH  56  57
ATOM     57  C   UNL     1      -2.411  44.182  19.802  0.00  0.00    +0.000 A 
ATOM     58  C   UNL     1      -2.439  42.778  20.206  0.00  0.00    +0.000 A 
ATOM     59  C   UNL     1      -1.992  44.936  20.940  0.00  0.00    +0.000 A 
ATOM     60  C   UNL     1      -2.111  42.246  21.478  0.00  0.00    +0.000 A 
ATOM     61  C   UNL     1      -1.660  44.420  22.225  0.00  0.00    +0.000 A 
ATOM     62  C   UNL     1      -1.716  43.074  22.496  0.00  0.00    +0.000 A 
ENDBRANCH  56  57
ENDBRANCH  54  56
ENDBRANCH   7  54
BRANCH   4  63
ATOM     63  O   UNL     1      -0.366  43.011  17.675  0.00  0.00    +0.000 OA
BRANCH  63  65
ATOM     64  O   UNL     1       1.259  41.858  18.689  0.00  0.00    +0.000 OA
ATOM     65  C   UNL     1       0.705  42.939  18.497  0.00  0.00    +0.000 C 
ATOM     66  C   UNL     1       1.132  44.155  19.256  0.00  0.00    +0.000 C 
ENDBRANCH  63  65
ENDBRANCH   4  63
TORSDOF 17
ENDMDL
