MODEL 1
REMARK VINA RESULT:      -7.7      0.000      0.000
REMARK  Name = 
REMARK  5 active torsions:
REMARK  status: ('A' for Active; 'I' for Inactive)
REMARK    1  A    between atoms: O_1  and  C_16
REMARK    2  A    between atoms: O_3  and  C_25
REMARK    3  A    between atoms: C_11  and  C_22
REMARK    4  A    between atoms: C_16  and  C_28
REMARK    5  A    between atoms: C_29  and  C_31
REMARK                            x       y       z     vdW  Elec       q    Type
REMARK                         _______ _______ _______ _____ _____    ______ ____
ROOT
ATOM      1  O   UNL     1      -9.354  46.075  23.414  0.00  0.00    +0.000 OA
ATOM      2  N   UNL     1      -3.826  41.735  17.030  0.00  0.00    +0.000 NA
ATOM      3  C   UNL     1      -5.848  42.492  20.219  0.00  0.00    +0.000 C 
ATOM      4  C   UNL     1      -5.714  43.484  21.405  0.00  0.00    +0.000 C 
ATOM      5  C   UNL     1      -8.044  43.080  20.974  0.00  0.00    +0.000 C 
ATOM      6  C   UNL     1      -7.093  44.156  21.510  0.00  0.00    +0.000 C 
ATOM      7  C   UNL     1      -4.779  42.691  19.127  0.00  0.00    +0.000 C 
ATOM      8  C   UNL     1      -7.302  42.624  19.721  0.00  0.00    +0.000 C 
ATOM      9  C   UNL     1      -9.506  43.587  20.854  0.00  0.00    +0.000 C 
ATOM     10  C   UNL     1      -3.380  42.705  19.779  0.00  0.00    +0.000 C 
ATOM     11  C   UNL     1      -4.586  44.494  21.220  0.00  0.00    +0.000 C 
ATOM     12  C   UNL     1      -9.937  44.007  22.292  0.00  0.00    +0.000 C 
ATOM     13  C   UNL     1      -3.264  43.834  20.836  0.00  0.00    +0.000 C 
ATOM     14  C   UNL     1      -2.257  42.748  18.702  0.00  0.00    +0.000 C 
ATOM     15  C   UNL     1      -7.501  44.637  22.895  0.00  0.00    +0.000 C 
ATOM     16  C   UNL     1      -4.873  41.595  18.057  0.00  0.00    +0.000 C 
ATOM     17  C   UNL     1      -2.470  41.611  17.635  0.00  0.00    +0.000 C 
ATOM     18  C   UNL     1     -10.434  42.435  20.393  0.00  0.00    +0.000 C 
ATOM     19  C   UNL     1      -8.970  45.036  22.881  0.00  0.00    +0.000 C 
ATOM     20  C   UNL     1      -9.631  44.762  19.852  0.00  0.00    +0.000 C 
ATOM     21  C   UNL     1     -11.403  44.433  22.364  0.00  0.00    +0.000 C 
ATOM     22  C   UNL     1     -11.922  42.783  20.495  0.00  0.00    +0.000 C 
ATOM     23  C   UNL     1     -12.315  43.305  21.878  0.00  0.00    +0.000 C 
ATOM     24  C   UNL     1      -1.382  41.667  16.532  0.00  0.00    +0.000 C 
ATOM     25  C   UNL     1      -4.054  40.714  15.989  0.00  0.00    +0.000 C 
ATOM     26  C   UNL     1      -0.871  42.650  19.356  0.00  0.00    +0.000 C 
ATOM     27  C   UNL     1      -3.044  40.798  14.840  0.00  0.00    +0.000 C 
ATOM     28  C   UNL     1      -1.629  40.675  15.401  0.00  0.00    +0.000 C 
ATOM     29  C   UNL     1      -3.226  42.074  14.014  0.00  0.00    +0.000 C 
ENDROOT
BRANCH  14  30
ATOM     30  O   UNL     1      -2.329  44.019  18.034  0.00  0.00    +0.000 OA
ATOM     31  H   UNL     1      -1.608  44.000  17.374  0.00  0.00    +0.000 HD
ENDBRANCH  14  30
BRANCH  23  32
ATOM     32  O   UNL     1     -13.661  43.763  21.819  0.00  0.00    +0.000 OA
ATOM     33  H   UNL     1     -13.739  44.534  22.407  0.00  0.00    +0.000 HD
ENDBRANCH  23  32
TORSDOF 2
ENDMDL
MODEL 2
REMARK VINA RESULT:      -7.6      7.744     12.318
REMARK  Name = 
REMARK  5 active torsions:
REMARK  status: ('A' for Active; 'I' for Inactive)
REMARK    1  A    between atoms: O_1  and  C_16
REMARK    2  A    between atoms: O_3  and  C_25
REMARK    3  A    between atoms: C_11  and  C_22
REMARK    4  A    between atoms: C_16  and  C_28
REMARK    5  A    between atoms: C_29  and  C_31
REMARK                            x       y       z     vdW  Elec       q    Type
REMARK                         _______ _______ _______ _____ _____    ______ ____
ROOT
ATOM      1  O   UNL     1      -5.691  42.241  10.030  0.00  0.00    +0.000 OA
ATOM      2  N   UNL     1     -14.382  40.225  13.280  0.00  0.00    +0.000 NA
ATOM      3  C   UNL     1     -10.780  39.856  11.970  0.00  0.00    +0.000 C 
ATOM      4  C   UNL     1     -10.063  40.108  10.617  0.00  0.00    +0.000 C 
ATOM      5  C   UNL     1      -8.524  40.530  12.416  0.00  0.00    +0.000 C 
ATOM      6  C   UNL     1      -8.836  40.962  10.977  0.00  0.00    +0.000 C 
ATOM      7  C   UNL     1     -12.261  40.281  11.970  0.00  0.00    +0.000 C 
ATOM      8  C   UNL     1      -9.915  40.554  13.041  0.00  0.00    +0.000 C 
ATOM      9  C   UNL     1      -7.385  41.370  13.053  0.00  0.00    +0.000 C 
ATOM     10  C   UNL     1     -12.972  39.647  10.755  0.00  0.00    +0.000 C 
ATOM     11  C   UNL     1     -10.956  40.780   9.580  0.00  0.00    +0.000 C 
ATOM     12  C   UNL     1      -6.132  41.155  12.151  0.00  0.00    +0.000 C 
ATOM     13  C   UNL     1     -12.305  40.081   9.425  0.00  0.00    +0.000 C 
ATOM     14  C   UNL     1     -14.504  39.920  10.795  0.00  0.00    +0.000 C 
ATOM     15  C   UNL     1      -7.626  40.817  10.066  0.00  0.00    +0.000 C 
ATOM     16  C   UNL     1     -12.951  39.876  13.280  0.00  0.00    +0.000 C 
ATOM     17  C   UNL     1     -15.103  39.507  12.192  0.00  0.00    +0.000 C 
ATOM     18  C   UNL     1      -7.055  40.833  14.469  0.00  0.00    +0.000 C 
ATOM     19  C   UNL     1      -6.430  41.518  10.694  0.00  0.00    +0.000 C 
ATOM     20  C   UNL     1      -7.763  42.869  13.161  0.00  0.00    +0.000 C 
ATOM     21  C   UNL     1      -4.883  41.837  12.709  0.00  0.00    +0.000 C 
ATOM     22  C   UNL     1      -5.779  41.440  15.060  0.00  0.00    +0.000 C 
ATOM     23  C   UNL     1      -4.578  41.328  14.119  0.00  0.00    +0.000 C 
ATOM     24  C   UNL     1     -16.621  39.811  12.262  0.00  0.00    +0.000 C 
ATOM     25  C   UNL     1     -14.940  39.903  14.609  0.00  0.00    +0.000 C 
ATOM     26  C   UNL     1     -15.217  39.194   9.645  0.00  0.00    +0.000 C 
ATOM     27  C   UNL     1     -16.422  40.271  14.738  0.00  0.00    +0.000 C 
ATOM     28  C   UNL     1     -17.216  39.561  13.643  0.00  0.00    +0.000 C 
ATOM     29  C   UNL     1     -16.636  41.787  14.712  0.00  0.00    +0.000 C 
ENDROOT
BRANCH  14  30
ATOM     30  O   UNL     1     -14.711  41.330  10.609  0.00  0.00    +0.000 OA
ATOM     31  H   UNL     1     -15.201  41.406   9.766  0.00  0.00    +0.000 HD
ENDBRANCH  14  30
BRANCH  23  32
ATOM     32  O   UNL     1      -3.500  42.069  14.678  0.00  0.00    +0.000 OA
ATOM     33  H   UNL     1      -3.264  41.657  15.527  0.00  0.00    +0.000 HD
ENDBRANCH  23  32
TORSDOF 2
ENDMDL
MODEL 3
REMARK VINA RESULT:      -7.6     20.385     23.639
REMARK  Name = 
REMARK  5 active torsions:
REMARK  status: ('A' for Active; 'I' for Inactive)
REMARK    1  A    between atoms: O_1  and  C_16
REMARK    2  A    between atoms: O_3  and  C_25
REMARK    3  A    between atoms: C_11  and  C_22
REMARK    4  A    between atoms: C_16  and  C_28
REMARK    5  A    between atoms: C_29  and  C_31
REMARK                            x       y       z     vdW  Elec       q    Type
REMARK                         _______ _______ _______ _____ _____    ______ ____
ROOT
ATOM      1  O   UNL     1      10.692  45.638   9.785  0.00  0.00    +0.000 OA
ATOM      2  N   UNL     1      14.813  53.678  12.704  0.00  0.00    +0.000 NA
ATOM      3  C   UNL     1      13.345  50.119  12.652  0.00  0.00    +0.000 C 
ATOM      4  C   UNL     1      11.924  49.510  12.522  0.00  0.00    +0.000 C 
ATOM      5  C   UNL     1      13.518  48.015  11.519  0.00  0.00    +0.000 C 
ATOM      6  C   UNL     1      12.051  48.452  11.413  0.00  0.00    +0.000 C 
ATOM      7  C   UNL     1      13.373  51.652  12.505  0.00  0.00    +0.000 C 
ATOM      8  C   UNL     1      14.223  49.363  11.633  0.00  0.00    +0.000 C 
ATOM      9  C   UNL     1      13.926  47.031  10.390  0.00  0.00    +0.000 C 
ATOM     10  C   UNL     1      12.333  52.275  13.462  0.00  0.00    +0.000 C 
ATOM     11  C   UNL     1      10.850  50.549  12.216  0.00  0.00    +0.000 C 
ATOM     12  C   UNL     1      12.991  45.793  10.537  0.00  0.00    +0.000 C 
ATOM     13  C   UNL     1      10.907  51.747  13.160  0.00  0.00    +0.000 C 
ATOM     14  C   UNL     1      12.430  53.828  13.464  0.00  0.00    +0.000 C 
ATOM     15  C   UNL     1      11.098  47.270  11.501  0.00  0.00    +0.000 C 
ATOM     16  C   UNL     1      14.776  52.208  12.786  0.00  0.00    +0.000 C 
ATOM     17  C   UNL     1      13.913  54.290  13.721  0.00  0.00    +0.000 C 
ATOM     18  C   UNL     1      15.387  46.557  10.599  0.00  0.00    +0.000 C 
ATOM     19  C   UNL     1      11.518  46.204  10.498  0.00  0.00    +0.000 C 
ATOM     20  C   UNL     1      13.805  47.678   8.988  0.00  0.00    +0.000 C 
ATOM     21  C   UNL     1      13.341  44.674   9.555  0.00  0.00    +0.000 C 
ATOM     22  C   UNL     1      15.779  45.397   9.679  0.00  0.00    +0.000 C 
ATOM     23  C   UNL     1      14.793  44.231   9.742  0.00  0.00    +0.000 C 
ATOM     24  C   UNL     1      14.033  55.835  13.684  0.00  0.00    +0.000 C 
ATOM     25  C   UNL     1      16.212  54.119  12.878  0.00  0.00    +0.000 C 
ATOM     26  C   UNL     1      11.469  54.433  14.498  0.00  0.00    +0.000 C 
ATOM     27  C   UNL     1      16.376  55.638  12.763  0.00  0.00    +0.000 C 
ATOM     28  C   UNL     1      15.473  56.323  13.786  0.00  0.00    +0.000 C 
ATOM     29  C   UNL     1      16.110  56.133  11.338  0.00  0.00    +0.000 C 
ENDROOT
BRANCH  14  30
ATOM     30  O   UNL     1      12.023  54.302  12.169  0.00  0.00    +0.000 OA
ATOM     31  H   UNL     1      12.713  53.983  11.553  0.00  0.00    +0.000 HD
ENDBRANCH  14  30
BRANCH  23  32
ATOM     32  O   UNL     1      15.145  43.291   8.733  0.00  0.00    +0.000 OA
ATOM     33  H   UNL     1      16.046  43.500   8.432  0.00  0.00    +0.000 HD
ENDBRANCH  23  32
TORSDOF 2
ENDMDL
MODEL 4
REMARK VINA RESULT:      -7.5     19.671     24.067
REMARK  Name = 
REMARK  5 active torsions:
REMARK  status: ('A' for Active; 'I' for Inactive)
REMARK    1  A    between atoms: O_1  and  C_16
REMARK    2  A    between atoms: O_3  and  C_25
REMARK    3  A    between atoms: C_11  and  C_22
REMARK    4  A    between atoms: C_16  and  C_28
REMARK    5  A    between atoms: C_29  and  C_31
REMARK                            x       y       z     vdW  Elec       q    Type
REMARK                         _______ _______ _______ _____ _____    ______ ____
ROOT
ATOM      1  O   UNL     1      13.901  43.369   8.330  0.00  0.00    +0.000 OA
ATOM      2  N   UNL     1      13.514  51.721  12.829  0.00  0.00    +0.000 NA
ATOM      3  C   UNL     1      13.752  47.943  12.124  0.00  0.00    +0.000 C 
ATOM      4  C   UNL     1      12.785  46.855  11.587  0.00  0.00    +0.000 C 
ATOM      5  C   UNL     1      15.030  46.319  10.912  0.00  0.00    +0.000 C 
ATOM      6  C   UNL     1      13.571  46.151  10.468  0.00  0.00    +0.000 C 
ATOM      7  C   UNL     1      13.150  49.362  12.110  0.00  0.00    +0.000 C 
ATOM      8  C   UNL     1      15.053  47.792  11.308  0.00  0.00    +0.000 C 
ATOM      9  C   UNL     1      16.036  45.797   9.851  0.00  0.00    +0.000 C 
ATOM     10  C   UNL     1      11.776  49.339  12.814  0.00  0.00    +0.000 C 
ATOM     11  C   UNL     1      11.456  47.420  11.098  0.00  0.00    +0.000 C 
ATOM     12  C   UNL     1      15.712  44.285   9.656  0.00  0.00    +0.000 C 
ATOM     13  C   UNL     1      10.804  48.353  12.117  0.00  0.00    +0.000 C 
ATOM     14  C   UNL     1      11.197  50.776  12.963  0.00  0.00    +0.000 C 
ATOM     15  C   UNL     1      13.219  44.693  10.216  0.00  0.00    +0.000 C 
ATOM     16  C   UNL     1      14.093  50.368  12.784  0.00  0.00    +0.000 C 
ATOM     17  C   UNL     1      12.256  51.734  13.626  0.00  0.00    +0.000 C 
ATOM     18  C   UNL     1      17.485  45.912  10.389  0.00  0.00    +0.000 C 
ATOM     19  C   UNL     1      14.245  44.079   9.273  0.00  0.00    +0.000 C 
ATOM     20  C   UNL     1      15.932  46.583   8.520  0.00  0.00    +0.000 C 
ATOM     21  C   UNL     1      16.694  43.592   8.712  0.00  0.00    +0.000 C 
ATOM     22  C   UNL     1      18.511  45.187   9.513  0.00  0.00    +0.000 C 
ATOM     23  C   UNL     1      18.127  43.735   9.229  0.00  0.00    +0.000 C 
ATOM     24  C   UNL     1      11.708  53.179  13.743  0.00  0.00    +0.000 C 
ATOM     25  C   UNL     1      14.524  52.642  13.391  0.00  0.00    +0.000 C 
ATOM     26  C   UNL     1       9.885  50.755  13.761  0.00  0.00    +0.000 C 
ATOM     27  C   UNL     1      14.043  54.095  13.440  0.00  0.00    +0.000 C 
ATOM     28  C   UNL     1      12.749  54.171  14.249  0.00  0.00    +0.000 C 
ATOM     29  C   UNL     1      13.880  54.690  12.039  0.00  0.00    +0.000 C 
ENDROOT
BRANCH  14  30
ATOM     30  O   UNL     1      10.894  51.273  11.648  0.00  0.00    +0.000 OA
ATOM     31  H   UNL     1      10.034  51.730  11.741  0.00  0.00    +0.000 HD
ENDBRANCH  14  30
BRANCH  23  32
ATOM     32  O   UNL     1      19.040  43.208   8.273  0.00  0.00    +0.000 OA
ATOM     33  H   UNL     1      19.940  43.324   8.625  0.00  0.00    +0.000 HD
ENDBRANCH  23  32
TORSDOF 2
ENDMDL
MODEL 5
REMARK VINA RESULT:      -7.4     16.708     20.497
REMARK  Name = 
REMARK  5 active torsions:
REMARK  status: ('A' for Active; 'I' for Inactive)
REMARK    1  A    between atoms: O_1  and  C_16
REMARK    2  A    between atoms: O_3  and  C_25
REMARK    3  A    between atoms: C_11  and  C_22
REMARK    4  A    between atoms: C_16  and  C_28
REMARK    5  A    between atoms: C_29  and  C_31
REMARK                            x       y       z     vdW  Elec       q    Type
REMARK                         _______ _______ _______ _____ _____    ______ ____
ROOT
ATOM      1  O   UNL     1      12.568  40.684  17.982  0.00  0.00    +0.000 OA
ATOM      2  N   UNL     1       9.442  31.934  16.027  0.00  0.00    +0.000 NA
ATOM      3  C   UNL     1      10.509  35.615  15.656  0.00  0.00    +0.000 C 
ATOM      4  C   UNL     1       9.948  36.983  16.127  0.00  0.00    +0.000 C 
ATOM      5  C   UNL     1      12.348  37.102  16.041  0.00  0.00    +0.000 C 
ATOM      6  C   UNL     1      11.143  37.690  16.787  0.00  0.00    +0.000 C 
ATOM      7  C   UNL     1       9.713  34.407  16.187  0.00  0.00    +0.000 C 
ATOM      8  C   UNL     1      12.003  35.616  16.044  0.00  0.00    +0.000 C 
ATOM      9  C   UNL     1      13.701  37.574  16.637  0.00  0.00    +0.000 C 
ATOM     10  C   UNL     1       8.213  34.611  15.879  0.00  0.00    +0.000 C 
ATOM     11  C   UNL     1       8.756  36.851  17.069  0.00  0.00    +0.000 C 
ATOM     12  C   UNL     1      13.709  39.128  16.515  0.00  0.00    +0.000 C 
ATOM     13  C   UNL     1       7.679  35.914  16.526  0.00  0.00    +0.000 C 
ATOM     14  C   UNL     1       7.385  33.348  16.258  0.00  0.00    +0.000 C 
ATOM     15  C   UNL     1      11.133  39.211  16.739  0.00  0.00    +0.000 C 
ATOM     16  C   UNL     1      10.224  33.097  15.574  0.00  0.00    +0.000 C 
ATOM     17  C   UNL     1       8.016  32.058  15.612  0.00  0.00    +0.000 C 
ATOM     18  C   UNL     1      14.877  37.020  15.792  0.00  0.00    +0.000 C 
ATOM     19  C   UNL     1      12.484  39.742  17.196  0.00  0.00    +0.000 C 
ATOM     20  C   UNL     1      13.879  37.112  18.105  0.00  0.00    +0.000 C 
ATOM     21  C   UNL     1      15.034  39.744  16.964  0.00  0.00    +0.000 C 
ATOM     22  C   UNL     1      16.227  37.644  16.159  0.00  0.00    +0.000 C 
ATOM     23  C   UNL     1      16.196  39.172  16.150  0.00  0.00    +0.000 C 
ATOM     24  C   UNL     1       7.226  30.787  16.014  0.00  0.00    +0.000 C 
ATOM     25  C   UNL     1      10.064  30.711  15.480  0.00  0.00    +0.000 C 
ATOM     26  C   UNL     1       5.915  33.517  15.847  0.00  0.00    +0.000 C 
ATOM     27  C   UNL     1       9.355  29.430  15.930  0.00  0.00    +0.000 C 
ATOM     28  C   UNL     1       7.883  29.499  15.529  0.00  0.00    +0.000 C 
ATOM     29  C   UNL     1       9.531  29.177  17.430  0.00  0.00    +0.000 C 
ENDROOT
BRANCH  14  30
ATOM     30  O   UNL     1       7.420  33.205  17.688  0.00  0.00    +0.000 OA
ATOM     31  H   UNL     1       7.687  34.084  18.025  0.00  0.00    +0.000 HD
ENDBRANCH  14  30
BRANCH  23  32
ATOM     32  O   UNL     1      17.431  39.649  16.671  0.00  0.00    +0.000 OA
ATOM     33  H   UNL     1      17.615  40.511  16.259  0.00  0.00    +0.000 HD
ENDBRANCH  23  32
TORSDOF 2
ENDMDL
MODEL 6
REMARK VINA RESULT:      -7.2     31.133     33.704
REMARK  Name = 
REMARK  5 active torsions:
REMARK  status: ('A' for Active; 'I' for Inactive)
REMARK    1  A    between atoms: O_1  and  C_16
REMARK    2  A    between atoms: O_3  and  C_25
REMARK    3  A    between atoms: C_11  and  C_22
REMARK    4  A    between atoms: C_16  and  C_28
REMARK    5  A    between atoms: C_29  and  C_31
REMARK                            x       y       z     vdW  Elec       q    Type
REMARK                         _______ _______ _______ _____ _____    ______ ____
ROOT
ATOM      1  O   UNL     1       2.555  61.467  -5.977  0.00  0.00    +0.000 OA
ATOM      2  N   UNL     1       9.275  55.805  -9.574  0.00  0.00    +0.000 NA
ATOM      3  C   UNL     1       6.806  57.476  -7.137  0.00  0.00    +0.000 C 
ATOM      4  C   UNL     1       6.682  58.873  -6.472  0.00  0.00    +0.000 C 
ATOM      5  C   UNL     1       4.482  57.977  -6.842  0.00  0.00    +0.000 C 
ATOM      6  C   UNL     1       5.234  59.310  -6.748  0.00  0.00    +0.000 C 
ATOM      7  C   UNL     1       7.971  57.374  -8.140  0.00  0.00    +0.000 C 
ATOM      8  C   UNL     1       5.418  57.170  -7.737  0.00  0.00    +0.000 C 
ATOM      9  C   UNL     1       2.997  58.161  -7.258  0.00  0.00    +0.000 C 
ATOM     10  C   UNL     1       9.270  57.866  -7.465  0.00  0.00    +0.000 C 
ATOM     11  C   UNL     1       7.703  59.879  -6.992  0.00  0.00    +0.000 C 
ATOM     12  C   UNL     1       2.350  59.059  -6.161  0.00  0.00    +0.000 C 
ATOM     13  C   UNL     1       9.128  59.331  -6.976  0.00  0.00    +0.000 C 
ATOM     14  C   UNL     1      10.504  57.638  -8.386  0.00  0.00    +0.000 C 
ATOM     15  C   UNL     1       4.608  60.244  -5.723  0.00  0.00    +0.000 C 
ATOM     16  C   UNL     1       8.133  55.937  -8.654  0.00  0.00    +0.000 C 
ATOM     17  C   UNL     1      10.552  56.147  -8.887  0.00  0.00    +0.000 C 
ATOM     18  C   UNL     1       2.268  56.793  -7.251  0.00  0.00    +0.000 C 
ATOM     19  C   UNL     1       3.116  60.373  -5.998  0.00  0.00    +0.000 C 
ATOM     20  C   UNL     1       2.866  58.792  -8.667  0.00  0.00    +0.000 C 
ATOM     21  C   UNL     1       0.847  59.247  -6.370  0.00  0.00    +0.000 C 
ATOM     22  C   UNL     1       0.749  56.921  -7.401  0.00  0.00    +0.000 C 
ATOM     23  C   UNL     1       0.134  57.894  -6.394  0.00  0.00    +0.000 C 
ATOM     24  C   UNL     1      11.753  55.915  -9.839  0.00  0.00    +0.000 C 
ATOM     25  C   UNL     1       9.292  54.426 -10.102  0.00  0.00    +0.000 C 
ATOM     26  C   UNL     1      11.802  58.028  -7.663  0.00  0.00    +0.000 C 
ATOM     27  C   UNL     1      10.419  54.189 -11.112  0.00  0.00    +0.000 C 
ATOM     28  C   UNL     1      11.760  54.523 -10.462  0.00  0.00    +0.000 C 
ATOM     29  C   UNL     1      10.197  54.974 -12.408  0.00  0.00    +0.000 C 
ENDROOT
BRANCH  14  30
ATOM     30  O   UNL     1      10.372  58.500  -9.529  0.00  0.00    +0.000 OA
ATOM     31  H   UNL     1      11.283  58.787  -9.738  0.00  0.00    +0.000 HD
ENDBRANCH  14  30
BRANCH  23  32
ATOM     32  O   UNL     1      -1.237  58.076  -6.727  0.00  0.00    +0.000 OA
ATOM     33  H   UNL     1      -1.328  57.959  -7.688  0.00  0.00    +0.000 HD
ENDBRANCH  23  32
TORSDOF 2
ENDMDL
MODEL 7
REMARK VINA RESULT:      -7.0     19.727     24.138
REMARK  Name = 
REMARK  5 active torsions:
REMARK  status: ('A' for Active; 'I' for Inactive)
REMARK    1  A    between atoms: O_1  and  C_16
REMARK    2  A    between atoms: O_3  and  C_25
REMARK    3  A    between atoms: C_11  and  C_22
REMARK    4  A    between atoms: C_16  and  C_28
REMARK    5  A    between atoms: C_29  and  C_31
REMARK                            x       y       z     vdW  Elec       q    Type
REMARK                         _______ _______ _______ _____ _____    ______ ____
ROOT
ATOM      1  O   UNL     1       9.887  46.055  11.295  0.00  0.00    +0.000 OA
ATOM      2  N   UNL     1      19.362  45.911  10.696  0.00  0.00    +0.000 NA
ATOM      3  C   UNL     1      15.647  46.533   9.900  0.00  0.00    +0.000 C 
ATOM      4  C   UNL     1      14.434  45.645   9.515  0.00  0.00    +0.000 C 
ATOM      5  C   UNL     1      13.659  47.528  10.794  0.00  0.00    +0.000 C 
ATOM      6  C   UNL     1      13.318  46.065  10.486  0.00  0.00    +0.000 C 
ATOM      7  C   UNL     1      16.923  45.729  10.215  0.00  0.00    +0.000 C 
ATOM      8  C   UNL     1      15.159  47.436  11.053  0.00  0.00    +0.000 C 
ATOM      9  C   UNL     1      12.731  48.137  11.880  0.00  0.00    +0.000 C 
ATOM     10  C   UNL     1      17.205  44.747   9.056  0.00  0.00    +0.000 C 
ATOM     11  C   UNL     1      14.736  44.152   9.584  0.00  0.00    +0.000 C 
ATOM     12  C   UNL     1      11.282  48.037  11.316  0.00  0.00    +0.000 C 
ATOM     13  C   UNL     1      16.016  43.777   8.841  0.00  0.00    +0.000 C 
ATOM     14  C   UNL     1      18.567  44.021   9.254  0.00  0.00    +0.000 C 
ATOM     15  C   UNL     1      11.892  45.908   9.978  0.00  0.00    +0.000 C 
ATOM     16  C   UNL     1      18.119  46.661  10.446  0.00  0.00    +0.000 C 
ATOM     17  C   UNL     1      19.716  45.064   9.523  0.00  0.00    +0.000 C 
ATOM     18  C   UNL     1      13.064  49.637  12.085  0.00  0.00    +0.000 C 
ATOM     19  C   UNL     1      10.932  46.596  10.939  0.00  0.00    +0.000 C 
ATOM     20  C   UNL     1      12.871  47.403  13.237  0.00  0.00    +0.000 C 
ATOM     21  C   UNL     1      10.250  48.699  12.229  0.00  0.00    +0.000 C 
ATOM     22  C   UNL     1      12.033  50.369  12.949  0.00  0.00    +0.000 C 
ATOM     23  C   UNL     1      10.600  50.171  12.455  0.00  0.00    +0.000 C 
ATOM     24  C   UNL     1      21.073  44.353   9.763  0.00  0.00    +0.000 C 
ATOM     25  C   UNL     1      20.434  46.877  11.014  0.00  0.00    +0.000 C 
ATOM     26  C   UNL     1      18.891  43.132   8.045  0.00  0.00    +0.000 C 
ATOM     27  C   UNL     1      21.768  46.200  11.340  0.00  0.00    +0.000 C 
ATOM     28  C   UNL     1      22.185  45.314  10.167  0.00  0.00    +0.000 C 
ATOM     29  C   UNL     1      21.706  45.420  12.656  0.00  0.00    +0.000 C 
ENDROOT
BRANCH  14  30
ATOM     30  O   UNL     1      18.453  43.164  10.402  0.00  0.00    +0.000 OA
ATOM     31  H   UNL     1      19.066  42.421  10.227  0.00  0.00    +0.000 HD
ENDBRANCH  14  30
BRANCH  23  32
ATOM     32  O   UNL     1       9.713  50.736  13.415  0.00  0.00    +0.000 OA
ATOM     33  H   UNL     1       9.270  50.004  13.878  0.00  0.00    +0.000 HD
ENDBRANCH  23  32
TORSDOF 2
ENDMDL
MODEL 8
REMARK VINA RESULT:      -7.0     21.209     22.561
REMARK  Name = 
REMARK  5 active torsions:
REMARK  status: ('A' for Active; 'I' for Inactive)
REMARK    1  A    between atoms: O_1  and  C_16
REMARK    2  A    between atoms: O_3  and  C_25
REMARK    3  A    between atoms: C_11  and  C_22
REMARK    4  A    between atoms: C_16  and  C_28
REMARK    5  A    between atoms: C_29  and  C_31
REMARK                            x       y       z     vdW  Elec       q    Type
REMARK                         _______ _______ _______ _____ _____    ______ ____
ROOT
ATOM      1  O   UNL     1      -2.759  61.326  15.605  0.00  0.00    +0.000 OA
ATOM      2  N   UNL     1      -2.375  64.192   6.561  0.00  0.00    +0.000 NA
ATOM      3  C   UNL     1      -1.574  62.416   9.882  0.00  0.00    +0.000 C 
ATOM      4  C   UNL     1      -1.052  62.857  11.275  0.00  0.00    +0.000 C 
ATOM      5  C   UNL     1      -2.537  60.985  11.546  0.00  0.00    +0.000 C 
ATOM      6  C   UNL     1      -2.041  62.239  12.277  0.00  0.00    +0.000 C 
ATOM      7  C   UNL     1      -1.816  63.591   8.915  0.00  0.00    +0.000 C 
ATOM      8  C   UNL     1      -2.818  61.545  10.155  0.00  0.00    +0.000 C 
ATOM      9  C   UNL     1      -3.667  60.255  12.319  0.00  0.00    +0.000 C 
ATOM     10  C   UNL     1      -0.552  64.476   8.861  0.00  0.00    +0.000 C 
ATOM     11  C   UNL     1      -0.942  64.371  11.424  0.00  0.00    +0.000 C 
ATOM     12  C   UNL     1      -3.061  59.859  13.699  0.00  0.00    +0.000 C 
ATOM     13  C   UNL     1      -0.188  65.021  10.266  0.00  0.00    +0.000 C 
ATOM     14  C   UNL     1      -0.690  65.589   7.783  0.00  0.00    +0.000 C 
ATOM     15  C   UNL     1      -1.483  61.910  13.654  0.00  0.00    +0.000 C 
ATOM     16  C   UNL     1      -2.190  63.086   7.516  0.00  0.00    +0.000 C 
ATOM     17  C   UNL     1      -1.114  64.969   6.399  0.00  0.00    +0.000 C 
ATOM     18  C   UNL     1      -4.066  58.954  11.578  0.00  0.00    +0.000 C 
ATOM     19  C   UNL     1      -2.499  61.081  14.429  0.00  0.00    +0.000 C 
ATOM     20  C   UNL     1      -4.925  61.145  12.480  0.00  0.00    +0.000 C 
ATOM     21  C   UNL     1      -4.025  59.029  14.547  0.00  0.00    +0.000 C 
ATOM     22  C   UNL     1      -4.989  58.052  12.402  0.00  0.00    +0.000 C 
ATOM     23  C   UNL     1      -4.441  57.761  13.799  0.00  0.00    +0.000 C 
ATOM     24  C   UNL     1      -1.296  66.071   5.324  0.00  0.00    +0.000 C 
ATOM     25  C   UNL     1      -2.836  63.628   5.277  0.00  0.00    +0.000 C 
ATOM     26  C   UNL     1       0.612  66.393   7.659  0.00  0.00    +0.000 C 
ATOM     27  C   UNL     1      -3.107  64.701   4.217  0.00  0.00    +0.000 C 
ATOM     28  C   UNL     1      -1.844  65.533   4.007  0.00  0.00    +0.000 C 
ATOM     29  C   UNL     1      -4.314  65.570   4.582  0.00  0.00    +0.000 C 
ENDROOT
BRANCH  14  30
ATOM     30  O   UNL     1      -1.719  66.498   8.209  0.00  0.00    +0.000 OA
ATOM     31  H   UNL     1      -1.948  66.214   9.117  0.00  0.00    +0.000 HD
ENDBRANCH  14  30
BRANCH  23  32
ATOM     32  O   UNL     1      -5.442  57.070  14.539  0.00  0.00    +0.000 OA
ATOM     33  H   UNL     1      -4.993  56.459  15.149  0.00  0.00    +0.000 HD
ENDBRANCH  23  32
TORSDOF 2
ENDMDL
MODEL 9
REMARK VINA RESULT:      -6.8     28.750     32.192
REMARK  Name = 
REMARK  5 active torsions:
REMARK  status: ('A' for Active; 'I' for Inactive)
REMARK    1  A    between atoms: O_1  and  C_16
REMARK    2  A    between atoms: O_3  and  C_25
REMARK    3  A    between atoms: C_11  and  C_22
REMARK    4  A    between atoms: C_16  and  C_28
REMARK    5  A    between atoms: C_29  and  C_31
REMARK                            x       y       z     vdW  Elec       q    Type
REMARK                         _______ _______ _______ _____ _____    ______ ____
ROOT
ATOM      1  O   UNL     1      21.665  47.720   2.289  0.00  0.00    +0.000 OA
ATOM      2  N   UNL     1      16.264  55.515   1.819  0.00  0.00    +0.000 NA
ATOM      3  C   UNL     1      17.626  51.958   1.254  0.00  0.00    +0.000 C 
ATOM      4  C   UNL     1      18.867  51.347   0.551  0.00  0.00    +0.000 C 
ATOM      5  C   UNL     1      18.261  49.965   2.423  0.00  0.00    +0.000 C 
ATOM      6  C   UNL     1      19.477  50.394   1.592  0.00  0.00    +0.000 C 
ATOM      7  C   UNL     1      17.623  53.499   1.268  0.00  0.00    +0.000 C 
ATOM      8  C   UNL     1      17.570  51.306   2.651  0.00  0.00    +0.000 C 
ATOM      9  C   UNL     1      18.656  49.091   3.643  0.00  0.00    +0.000 C 
ATOM     10  C   UNL     1      17.854  54.022  -0.166  0.00  0.00    +0.000 C 
ATOM     11  C   UNL     1      19.862  52.397   0.068  0.00  0.00    +0.000 C 
ATOM     12  C   UNL     1      19.370  47.833   3.061  0.00  0.00    +0.000 C 
ATOM     13  C   UNL     1      19.198  53.507  -0.743  0.00  0.00    +0.000 C 
ATOM     14  C   UNL     1      17.706  55.570  -0.231  0.00  0.00    +0.000 C 
ATOM     15  C   UNL     1      20.239  49.197   1.041  0.00  0.00    +0.000 C 
ATOM     16  C   UNL     1      16.310  54.043   1.845  0.00  0.00    +0.000 C 
ATOM     17  C   UNL     1      16.346  56.024   0.421  0.00  0.00    +0.000 C 
ATOM     18  C   UNL     1      17.385  48.616   4.392  0.00  0.00    +0.000 C 
ATOM     19  C   UNL     1      20.553  48.230   2.174  0.00  0.00    +0.000 C 
ATOM     20  C   UNL     1      19.564  49.859   4.635  0.00  0.00    +0.000 C 
ATOM     21  C   UNL     1      19.729  46.811   4.139  0.00  0.00    +0.000 C 
ATOM     22  C   UNL     1      17.674  47.547   5.450  0.00  0.00    +0.000 C 
ATOM     23  C   UNL     1      18.476  46.369   4.898  0.00  0.00    +0.000 C 
ATOM     24  C   UNL     1      16.203  57.567   0.401  0.00  0.00    +0.000 C 
ATOM     25  C   UNL     1      15.022  55.955   2.486  0.00  0.00    +0.000 C 
ATOM     26  C   UNL     1      17.827  56.069  -1.678  0.00  0.00    +0.000 C 
ATOM     27  C   UNL     1      14.892  57.479   2.558  0.00  0.00    +0.000 C 
ATOM     28  C   UNL     1      14.969  58.060   1.148  0.00  0.00    +0.000 C 
ATOM     29  C   UNL     1      15.937  58.096   3.493  0.00  0.00    +0.000 C 
ENDROOT
BRANCH  14  30
ATOM     30  O   UNL     1      18.787  56.152   0.518  0.00  0.00    +0.000 OA
ATOM     31  H   UNL     1      19.064  56.933  -0.002  0.00  0.00    +0.000 HD
ENDBRANCH  14  30
BRANCH  23  32
ATOM     32  O   UNL     1      18.842  45.527   5.985  0.00  0.00    +0.000 OA
ATOM     33  H   UNL     1      18.790  44.605   5.678  0.00  0.00    +0.000 HD
ENDBRANCH  23  32
TORSDOF 2
ENDMDL
