MODEL 1
REMARK VINA RESULT:      -6.9      0.000      0.000
REMARK  Name = PhIP.pdbqt.pdb
REMARK  2 active torsions:
REMARK  status: ('A' for Active; 'I' for Inactive)
REMARK    1  A    between atoms: N_4  and  C_9
REMARK    2  A    between atoms: C_7  and  C_10
REMARK                            x       y       z     vdW  Elec       q    Type
REMARK                         _______ _______ _______ _____ _____    ______ ____
ROOT
ATOM      1  N   UNL     1       9.022  32.851  15.745  0.00  0.00    +0.000 N 
ATOM      2  N   UNL     1       7.623  34.558  16.642  0.00  0.00    +0.000 NA
ATOM      3  N   UNL     1       5.585  33.244  16.741  0.00  0.00    +0.000 NA
ATOM      4  C   UNL     1       7.793  32.294  15.930  0.00  0.00    +0.000 C 
ATOM      5  C   UNL     1       6.951  33.445  16.500  0.00  0.00    +0.000 C 
ATOM      6  C   UNL     1       5.740  31.009  15.675  0.00  0.00    +0.000 C 
ATOM      7  C   UNL     1       7.143  31.244  15.528  0.00  0.00    +0.000 C 
ATOM      8  C   UNL     1       8.861  34.178  16.149  0.00  0.00    +0.000 C 
ATOM      9  C   UNL     1       9.895  32.469  14.648  0.00  0.00    +0.000 C 
ATOM     10  C   UNL     1       5.248  32.195  16.321  0.00  0.00    +0.000 C 
ENDROOT
BRANCH   6  11
ATOM     11  C   UNL     1       4.995  29.815  15.325  0.00  0.00    +0.000 A 
ATOM     12  C   UNL     1       3.648  29.690  15.670  0.00  0.00    +0.000 A 
ATOM     13  C   UNL     1       5.611  28.769  14.636  0.00  0.00    +0.000 A 
ATOM     14  C   UNL     1       2.930  28.544  15.335  0.00  0.00    +0.000 A 
ATOM     15  C   UNL     1       4.898  27.620  14.298  0.00  0.00    +0.000 A 
ATOM     16  C   UNL     1       3.556  27.508  14.649  0.00  0.00    +0.000 A 
ENDBRANCH   6  11
BRANCH   8  17
ATOM     17  N   UNL     1       9.827  35.190  16.009  0.00  0.00    +0.000 NA
ATOM     18  H   UNL     1      10.660  35.034  16.566  0.00  0.00    +0.000 HD
ATOM     19  H   UNL     1      10.013  35.424  15.042  0.00  0.00    +0.000 HD
ENDBRANCH   8  17
TORSDOF 2
ENDMDL
MODEL 2
REMARK VINA RESULT:      -6.4     22.113     23.470
REMARK  Name = PhIP.pdbqt.pdb
REMARK  2 active torsions:
REMARK  status: ('A' for Active; 'I' for Inactive)
REMARK    1  A    between atoms: N_4  and  C_9
REMARK    2  A    between atoms: C_7  and  C_10
REMARK                            x       y       z     vdW  Elec       q    Type
REMARK                         _______ _______ _______ _____ _____    ______ ____
ROOT
ATOM      1  N   UNL     1     -14.762  34.658  24.989  0.00  0.00    +0.000 N 
ATOM      2  N   UNL     1     -17.129  34.737  25.246  0.00  0.00    +0.000 NA
ATOM      3  N   UNL     1     -17.607  32.594  24.212  0.00  0.00    +0.000 NA
ATOM      4  C   UNL     1     -15.250  33.485  24.497  0.00  0.00    +0.000 C 
ATOM      5  C   UNL     1     -16.768  33.610  24.689  0.00  0.00    +0.000 C 
ATOM      6  C   UNL     1     -15.653  31.496  23.151  0.00  0.00    +0.000 C 
ATOM      7  C   UNL     1     -14.840  32.520  23.731  0.00  0.00    +0.000 C 
ATOM      8  C   UNL     1     -15.900  35.362  25.387  0.00  0.00    +0.000 C 
ATOM      9  C   UNL     1     -13.594  35.315  24.427  0.00  0.00    +0.000 C 
ATOM     10  C   UNL     1     -16.985  31.814  23.584  0.00  0.00    +0.000 C 
ENDROOT
BRANCH   6  11
ATOM     11  C   UNL     1     -15.223  30.352  22.370  0.00  0.00    +0.000 A 
ATOM     12  C   UNL     1     -15.556  30.247  21.018  0.00  0.00    +0.000 A 
ATOM     13  C   UNL     1     -14.465  29.336  22.956  0.00  0.00    +0.000 A 
ATOM     14  C   UNL     1     -15.144  29.149  20.266  0.00  0.00    +0.000 A 
ATOM     15  C   UNL     1     -14.050  28.235  22.208  0.00  0.00    +0.000 A 
ATOM     16  C   UNL     1     -14.391  28.143  20.862  0.00  0.00    +0.000 A 
ENDBRANCH   6  11
BRANCH   8  17
ATOM     17  N   UNL     1     -15.913  36.695  25.833  0.00  0.00    +0.000 NA
ATOM     18  H   UNL     1     -15.922  36.784  26.844  0.00  0.00    +0.000 HD
ATOM     19  H   UNL     1     -15.218  37.270  25.374  0.00  0.00    +0.000 HD
ENDBRANCH   8  17
TORSDOF 2
ENDMDL
MODEL 3
REMARK VINA RESULT:      -5.8     13.347     14.725
REMARK  Name = PhIP.pdbqt.pdb
REMARK  2 active torsions:
REMARK  status: ('A' for Active; 'I' for Inactive)
REMARK    1  A    between atoms: N_4  and  C_9
REMARK    2  A    between atoms: C_7  and  C_10
REMARK                            x       y       z     vdW  Elec       q    Type
REMARK                         _______ _______ _______ _____ _____    ______ ____
ROOT
ATOM      1  N   UNL     1       1.366  20.502   5.926  0.00  0.00    +0.000 N 
ATOM      2  N   UNL     1       2.643  22.240   4.915  0.00  0.00    +0.000 NA
ATOM      3  N   UNL     1       4.633  21.971   6.278  0.00  0.00    +0.000 NA
ATOM      4  C   UNL     1       2.585  20.497   6.532  0.00  0.00    +0.000 C 
ATOM      5  C   UNL     1       3.345  21.637   5.839  0.00  0.00    +0.000 C 
ATOM      6  C   UNL     1       4.391  20.376   8.162  0.00  0.00    +0.000 C 
ATOM      7  C   UNL     1       3.116  20.022   7.619  0.00  0.00    +0.000 C 
ATOM      8  C   UNL     1       1.443  21.555   5.011  0.00  0.00    +0.000 C 
ATOM      9  C   UNL     1       0.141  20.170   6.632  0.00  0.00    +0.000 C 
ATOM     10  C   UNL     1       4.898  21.370   7.258  0.00  0.00    +0.000 C 
ENDROOT
BRANCH   6  11
ATOM     11  C   UNL     1       5.057  19.803   9.316  0.00  0.00    +0.000 A 
ATOM     12  C   UNL     1       4.427  19.781  10.562  0.00  0.00    +0.000 A 
ATOM     13  C   UNL     1       6.340  19.262   9.202  0.00  0.00    +0.000 A 
ATOM     14  C   UNL     1       5.065  19.231  11.673  0.00  0.00    +0.000 A 
ATOM     15  C   UNL     1       6.982  18.712  10.310  0.00  0.00    +0.000 A 
ATOM     16  C   UNL     1       6.343  18.697  11.546  0.00  0.00    +0.000 A 
ENDBRANCH   6  11
BRANCH   8  17
ATOM     17  N   UNL     1       0.371  22.041   4.243  0.00  0.00    +0.000 NA
ATOM     18  H   UNL     1      -0.527  21.654   4.512  0.00  0.00    +0.000 HD
ATOM     19  H   UNL     1       0.376  23.049   4.155  0.00  0.00    +0.000 HD
ENDBRANCH   8  17
TORSDOF 2
ENDMDL
MODEL 4
REMARK VINA RESULT:      -5.8     30.834     32.755
REMARK  Name = PhIP.pdbqt.pdb
REMARK  2 active torsions:
REMARK  status: ('A' for Active; 'I' for Inactive)
REMARK    1  A    between atoms: N_4  and  C_9
REMARK    2  A    between atoms: C_7  and  C_10
REMARK                            x       y       z     vdW  Elec       q    Type
REMARK                         _______ _______ _______ _____ _____    ______ ____
ROOT
ATOM      1  N   UNL     1      -0.314  64.544   7.915  0.00  0.00    +0.000 N 
ATOM      2  N   UNL     1      -1.015  63.188   6.086  0.00  0.00    +0.000 NA
ATOM      3  N   UNL     1      -2.285  61.579   7.384  0.00  0.00    +0.000 NA
ATOM      4  C   UNL     1      -1.109  63.566   8.433  0.00  0.00    +0.000 C 
ATOM      5  C   UNL     1      -1.515  62.735   7.207  0.00  0.00    +0.000 C 
ATOM      6  C   UNL     1      -2.068  61.827   9.843  0.00  0.00    +0.000 C 
ATOM      7  C   UNL     1      -1.354  63.042   9.596  0.00  0.00    +0.000 C 
ATOM      8  C   UNL     1      -0.270  64.261   6.548  0.00  0.00    +0.000 C 
ATOM      9  C   UNL     1       0.822  65.090   8.637  0.00  0.00    +0.000 C 
ATOM     10  C   UNL     1      -2.401  61.339   8.533  0.00  0.00    +0.000 C 
ENDROOT
BRANCH   6  11
ATOM     11  C   UNL     1      -2.441  61.259  11.124  0.00  0.00    +0.000 A 
ATOM     12  C   UNL     1      -3.222  60.103  11.188  0.00  0.00    +0.000 A 
ATOM     13  C   UNL     1      -2.024  61.856  12.315  0.00  0.00    +0.000 A 
ATOM     14  C   UNL     1      -3.583  59.555  12.418  0.00  0.00    +0.000 A 
ATOM     15  C   UNL     1      -2.382  61.312  13.548  0.00  0.00    +0.000 A 
ATOM     16  C   UNL     1      -3.162  60.160  13.598  0.00  0.00    +0.000 A 
ENDBRANCH   6  11
BRANCH   8  17
ATOM     17  N   UNL     1       0.546  64.918   5.611  0.00  0.00    +0.000 NA
ATOM     18  H   UNL     1       0.611  65.919   5.763  0.00  0.00    +0.000 HD
ATOM     19  H   UNL     1       1.439  64.461   5.479  0.00  0.00    +0.000 HD
ENDBRANCH   8  17
TORSDOF 2
ENDMDL
MODEL 5
REMARK VINA RESULT:      -5.6     31.032     32.775
REMARK  Name = PhIP.pdbqt.pdb
REMARK  2 active torsions:
REMARK  status: ('A' for Active; 'I' for Inactive)
REMARK    1  A    between atoms: N_4  and  C_9
REMARK    2  A    between atoms: C_7  and  C_10
REMARK                            x       y       z     vdW  Elec       q    Type
REMARK                         _______ _______ _______ _____ _____    ______ ____
ROOT
ATOM      1  N   UNL     1      -1.188  63.108   6.741  0.00  0.00    +0.000 N 
ATOM      2  N   UNL     1       0.438  64.590   7.654  0.00  0.00    +0.000 NA
ATOM      3  N   UNL     1       0.275  63.824   9.951  0.00  0.00    +0.000 NA
ATOM      4  C   UNL     1      -1.083  62.808   8.066  0.00  0.00    +0.000 C 
ATOM      5  C   UNL     1      -0.030  63.798   8.584  0.00  0.00    +0.000 C 
ATOM      6  C   UNL     1      -1.560  62.210  10.377  0.00  0.00    +0.000 C 
ATOM      7  C   UNL     1      -1.770  62.169   8.963  0.00  0.00    +0.000 C 
ATOM      8  C   UNL     1      -0.301  64.172   6.559  0.00  0.00    +0.000 C 
ATOM      9  C   UNL     1      -2.442  63.004   6.014  0.00  0.00    +0.000 C 
ATOM     10  C   UNL     1      -0.465  63.125  10.547  0.00  0.00    +0.000 C 
ENDROOT
BRANCH   6  11
ATOM     11  C   UNL     1      -2.241  61.443  11.402  0.00  0.00    +0.000 A 
ATOM     12  C   UNL     1      -2.078  61.757  12.753  0.00  0.00    +0.000 A 
ATOM     13  C   UNL     1      -3.076  60.378  11.056  0.00  0.00    +0.000 A 
ATOM     14  C   UNL     1      -2.732  61.021  13.740  0.00  0.00    +0.000 A 
ATOM     15  C   UNL     1      -3.732  59.639  12.039  0.00  0.00    +0.000 A 
ATOM     16  C   UNL     1      -3.559  59.962  13.382  0.00  0.00    +0.000 A 
ENDBRANCH   6  11
BRANCH   8  17
ATOM     17  N   UNL     1      -0.164  64.919   5.377  0.00  0.00    +0.000 NA
ATOM     18  H   UNL     1      -0.605  64.487   4.572  0.00  0.00    +0.000 HD
ATOM     19  H   UNL     1      -0.396  65.896   5.500  0.00  0.00    +0.000 HD
ENDBRANCH   8  17
TORSDOF 2
ENDMDL
MODEL 6
REMARK VINA RESULT:      -5.5     13.165     14.696
REMARK  Name = PhIP.pdbqt.pdb
REMARK  2 active torsions:
REMARK  status: ('A' for Active; 'I' for Inactive)
REMARK    1  A    between atoms: N_4  and  C_9
REMARK    2  A    between atoms: C_7  and  C_10
REMARK                            x       y       z     vdW  Elec       q    Type
REMARK                         _______ _______ _______ _____ _____    ______ ____
ROOT
ATOM      1  N   UNL     1       1.831  19.894   7.133  0.00  0.00    +0.000 N 
ATOM      2  N   UNL     1       0.459  20.446   9.001  0.00  0.00    +0.000 NA
ATOM      3  N   UNL     1       2.217  20.415  10.674  0.00  0.00    +0.000 NA
ATOM      4  C   UNL     1       2.655  19.977   8.215  0.00  0.00    +0.000 C 
ATOM      5  C   UNL     1       1.708  20.327   9.372  0.00  0.00    +0.000 C 
ATOM      6  C   UNL     1       4.410  19.590   9.858  0.00  0.00    +0.000 C 
ATOM      7  C   UNL     1       3.854  19.597   8.541  0.00  0.00    +0.000 C 
ATOM      8  C   UNL     1       0.559  20.149   7.652  0.00  0.00    +0.000 C 
ATOM      9  C   UNL     1       2.058  18.955   6.049  0.00  0.00    +0.000 C 
ATOM     10  C   UNL     1       3.341  20.056  10.697  0.00  0.00    +0.000 C 
ENDROOT
BRANCH   6  11
ATOM     11  C   UNL     1       5.767  19.264  10.250  0.00  0.00    +0.000 A 
ATOM     12  C   UNL     1       6.117  19.178  11.599  0.00  0.00    +0.000 A 
ATOM     13  C   UNL     1       6.749  19.029   9.285  0.00  0.00    +0.000 A 
ATOM     14  C   UNL     1       7.422  18.865  11.978  0.00  0.00    +0.000 A 
ATOM     15  C   UNL     1       8.055  18.716   9.659  0.00  0.00    +0.000 A 
ATOM     16  C   UNL     1       8.391  18.634  11.007  0.00  0.00    +0.000 A 
ENDBRANCH   6  11
BRANCH   8  17
ATOM     17  N   UNL     1      -0.645  20.036   6.936  0.00  0.00    +0.000 NA
ATOM     18  H   UNL     1      -0.620  20.487   6.028  0.00  0.00    +0.000 HD
ATOM     19  H   UNL     1      -1.003  19.089   6.916  0.00  0.00    +0.000 HD
ENDBRANCH   8  17
TORSDOF 2
ENDMDL
MODEL 7
REMARK VINA RESULT:      -5.5     20.050     21.839
REMARK  Name = PhIP.pdbqt.pdb
REMARK  2 active torsions:
REMARK  status: ('A' for Active; 'I' for Inactive)
REMARK    1  A    between atoms: N_4  and  C_9
REMARK    2  A    between atoms: C_7  and  C_10
REMARK                            x       y       z     vdW  Elec       q    Type
REMARK                         _______ _______ _______ _____ _____    ______ ____
ROOT
ATOM      1  N   UNL     1     -13.635  40.955   8.287  0.00  0.00    +0.000 N 
ATOM      2  N   UNL     1     -12.345  39.174   7.373  0.00  0.00    +0.000 NA
ATOM      3  N   UNL     1     -11.531  38.290   9.481  0.00  0.00    +0.000 NA
ATOM      4  C   UNL     1     -13.106  40.273   9.340  0.00  0.00    +0.000 C 
ATOM      5  C   UNL     1     -12.289  39.153   8.680  0.00  0.00    +0.000 C 
ATOM      6  C   UNL     1     -12.079  39.674  11.466  0.00  0.00    +0.000 C 
ATOM      7  C   UNL     1     -12.899  40.472  10.607  0.00  0.00    +0.000 C 
ATOM      8  C   UNL     1     -13.139  40.290   7.164  0.00  0.00    +0.000 C 
ATOM      9  C   UNL     1     -13.846  42.392   8.314  0.00  0.00    +0.000 C 
ATOM     10  C   UNL     1     -11.538  38.663  10.600  0.00  0.00    +0.000 C 
ENDROOT
BRANCH   6  11
ATOM     11  C   UNL     1     -11.897  39.806  12.898  0.00  0.00    +0.000 A 
ATOM     12  C   UNL     1     -10.646  40.128  13.430  0.00  0.00    +0.000 A 
ATOM     13  C   UNL     1     -12.969  39.616  13.772  0.00  0.00    +0.000 A 
ATOM     14  C   UNL     1     -10.469  40.255  14.807  0.00  0.00    +0.000 A 
ATOM     15  C   UNL     1     -12.798  39.742  15.150  0.00  0.00    +0.000 A 
ATOM     16  C   UNL     1     -11.545  40.062  15.666  0.00  0.00    +0.000 A 
ENDBRANCH   6  11
BRANCH   8  17
ATOM     17  N   UNL     1     -13.299  40.715   5.834  0.00  0.00    +0.000 NA
ATOM     18  H   UNL     1     -13.353  39.952   5.168  0.00  0.00    +0.000 HD
ATOM     19  H   UNL     1     -14.029  41.408   5.728  0.00  0.00    +0.000 HD
ENDBRANCH   8  17
TORSDOF 2
ENDMDL
MODEL 8
REMARK VINA RESULT:      -5.4     21.550     23.090
REMARK  Name = PhIP.pdbqt.pdb
REMARK  2 active torsions:
REMARK  status: ('A' for Active; 'I' for Inactive)
REMARK    1  A    between atoms: N_4  and  C_9
REMARK    2  A    between atoms: C_7  and  C_10
REMARK                            x       y       z     vdW  Elec       q    Type
REMARK                         _______ _______ _______ _____ _____    ______ ____
ROOT
ATOM      1  N   UNL     1       1.180  25.539  -3.019  0.00  0.00    +0.000 N 
ATOM      2  N   UNL     1       1.804  27.791  -3.485  0.00  0.00    +0.000 NA
ATOM      3  N   UNL     1       0.388  28.089  -5.434  0.00  0.00    +0.000 NA
ATOM      4  C   UNL     1       0.441  25.937  -4.092  0.00  0.00    +0.000 C 
ATOM      5  C   UNL     1       0.897  27.383  -4.336  0.00  0.00    +0.000 C 
ATOM      6  C   UNL     1      -0.746  26.026  -6.217  0.00  0.00    +0.000 C 
ATOM      7  C   UNL     1      -0.260  25.383  -5.035  0.00  0.00    +0.000 C 
ATOM      8  C   UNL     1       1.977  26.647  -2.722  0.00  0.00    +0.000 C 
ATOM      9  C   UNL     1       1.650  24.174  -2.858  0.00  0.00    +0.000 C 
ATOM     10  C   UNL     1      -0.254  27.372  -6.116  0.00  0.00    +0.000 C 
ENDROOT
BRANCH   6  11
ATOM     11  C   UNL     1      -1.606  25.470  -7.243  0.00  0.00    +0.000 A 
ATOM     12  C   UNL     1      -1.455  25.846  -8.579  0.00  0.00    +0.000 A 
ATOM     13  C   UNL     1      -2.601  24.547  -6.914  0.00  0.00    +0.000 A 
ATOM     14  C   UNL     1      -2.280  25.313  -9.568  0.00  0.00    +0.000 A 
ATOM     15  C   UNL     1      -3.430  24.011  -7.898  0.00  0.00    +0.000 A 
ATOM     16  C   UNL     1      -3.268  24.396  -9.226  0.00  0.00    +0.000 A 
ENDBRANCH   6  11
BRANCH   8  17
ATOM     17  N   UNL     1       3.012  26.669  -1.772  0.00  0.00    +0.000 NA
ATOM     18  H   UNL     1       2.947  25.925  -1.086  0.00  0.00    +0.000 HD
ATOM     19  H   UNL     1       3.929  26.765  -2.191  0.00  0.00    +0.000 HD
ENDBRANCH   8  17
TORSDOF 2
ENDMDL
MODEL 9
REMARK VINA RESULT:      -5.1     34.513     35.991
REMARK  Name = PhIP.pdbqt.pdb
REMARK  2 active torsions:
REMARK  status: ('A' for Active; 'I' for Inactive)
REMARK    1  A    between atoms: N_4  and  C_9
REMARK    2  A    between atoms: C_7  and  C_10
REMARK                            x       y       z     vdW  Elec       q    Type
REMARK                         _______ _______ _______ _____ _____    ______ ____
ROOT
ATOM      1  N   UNL     1      -1.095  58.937  -9.284  0.00  0.00    +0.000 N 
ATOM      2  N   UNL     1      -2.179  58.413  -7.228  0.00  0.00    +0.000 NA
ATOM      3  N   UNL     1      -0.208  57.628  -6.049  0.00  0.00    +0.000 NA
ATOM      4  C   UNL     1      -0.127  58.505  -8.428  0.00  0.00    +0.000 C 
ATOM      5  C   UNL     1      -0.894  58.183  -7.138  0.00  0.00    +0.000 C 
ATOM      6  C   UNL     1       1.827  57.428  -7.453  0.00  0.00    +0.000 C 
ATOM      7  C   UNL     1       1.095  58.069  -8.500  0.00  0.00    +0.000 C 
ATOM      8  C   UNL     1      -2.275  58.838  -8.543  0.00  0.00    +0.000 C 
ATOM      9  C   UNL     1      -1.045  58.681 -10.712  0.00  0.00    +0.000 C 
ATOM     10  C   UNL     1       0.898  57.360  -6.360  0.00  0.00    +0.000 C 
ENDROOT
BRANCH   6  11
ATOM     11  C   UNL     1       3.217  57.014  -7.463  0.00  0.00    +0.000 A 
ATOM     12  C   UNL     1       4.141  57.601  -6.597  0.00  0.00    +0.000 A 
ATOM     13  C   UNL     1       3.656  56.018  -8.338  0.00  0.00    +0.000 A 
ATOM     14  C   UNL     1       5.478  57.205  -6.604  0.00  0.00    +0.000 A 
ATOM     15  C   UNL     1       4.991  55.618  -8.350  0.00  0.00    +0.000 A 
ATOM     16  C   UNL     1       5.902  56.213  -7.482  0.00  0.00    +0.000 A 
ENDBRANCH   6  11
BRANCH   8  17
ATOM     17  N   UNL     1      -3.569  59.043  -9.051  0.00  0.00    +0.000 NA
ATOM     18  H   UNL     1      -3.647  58.861 -10.046  0.00  0.00    +0.000 HD
ATOM     19  H   UNL     1      -4.286  58.597  -8.493  0.00  0.00    +0.000 HD
ENDBRANCH   8  17
TORSDOF 2
ENDMDL
