MODEL 1
REMARK VINA RESULT:      -7.1      0.000      0.000
REMARK  Name = Piroxicam.pdbqt.pdb
REMARK  3 active torsions:
REMARK  status: ('A' for Active; 'I' for Inactive)
REMARK    1  A    between atoms: C_7  and  C_14
REMARK    2  A    between atoms: C_8  and  O_24
REMARK    3  A    between atoms: N_16  and  C_18
REMARK                            x       y       z     vdW  Elec       q    Type
REMARK                         _______ _______ _______ _____ _____    ______ ____
ROOT
ATOM      1  S   UNL     1       9.994  31.480  15.397  0.00  0.00    +0.000 S 
ATOM      2  O   UNL     1      10.010  32.195  14.134  0.00  0.00    +0.000 OA
ATOM      3  O   UNL     1      11.103  30.628  15.780  0.00  0.00    +0.000 OA
ATOM      4  N   UNL     1       9.634  32.600  16.656  0.00  0.00    +0.000 N 
ATOM      5  C   UNL     1       8.539  30.506  15.393  0.00  0.00    +0.000 A 
ATOM      6  C   UNL     1       7.341  31.138  15.719  0.00  0.00    +0.000 A 
ATOM      7  C   UNL     1       8.374  33.266  16.486  0.00  0.00    +0.000 C 
ATOM      8  C   UNL     1       7.298  32.577  16.040  0.00  0.00    +0.000 C 
ATOM      9  C   UNL     1       8.619  29.149  15.101  0.00  0.00    +0.000 A 
ATOM     10  C   UNL     1       9.862  32.188  18.052  0.00  0.00    +0.000 C 
ATOM     11  C   UNL     1       6.179  30.363  15.706  0.00  0.00    +0.000 A 
ATOM     12  C   UNL     1       7.451  28.396  15.108  0.00  0.00    +0.000 A 
ATOM     13  C   UNL     1       6.232  29.002  15.404  0.00  0.00    +0.000 A 
ENDROOT
BRANCH   7  14
ATOM     14  C   UNL     1       8.289  34.731  16.796  0.00  0.00    +0.000 C 
ATOM     15  O   UNL     1       7.601  35.108  17.742  0.00  0.00    +0.000 OA
ATOM     16  N   UNL     1       9.010  35.544  15.959  0.00  0.00    +0.000 N 
ATOM     17  H   UNL     1       9.605  35.146  15.242  0.00  0.00    +0.000 HD
BRANCH  16  18
ATOM     18  C   UNL     1       9.079  36.937  16.011  0.00  0.00    +0.000 A 
ATOM     19  N   UNL     1      10.048  37.414  16.818  0.00  0.00    +0.000 NA
ATOM     20  C   UNL     1      10.162  38.760  16.904  0.00  0.00    +0.000 A 
ATOM     21  C   UNL     1       9.359  39.656  16.221  0.00  0.00    +0.000 A 
ATOM     22  C   UNL     1       8.373  39.132  15.397  0.00  0.00    +0.000 A 
ATOM     23  C   UNL     1       8.225  37.754  15.285  0.00  0.00    +0.000 A 
ENDBRANCH  16  18
ENDBRANCH   7  14
BRANCH   8  24
ATOM     24  O   UNL     1       6.048  33.142  15.853  0.00  0.00    +0.000 OA
ATOM     25  H   UNL     1       6.147  34.079  15.565  0.00  0.00    +0.000 HD
ENDBRANCH   8  24
TORSDOF 3
ENDMDL
MODEL 2
REMARK VINA RESULT:      -7.0      5.329      7.257
REMARK  Name = Piroxicam.pdbqt.pdb
REMARK  3 active torsions:
REMARK  status: ('A' for Active; 'I' for Inactive)
REMARK    1  A    between atoms: C_7  and  C_14
REMARK    2  A    between atoms: C_8  and  O_24
REMARK    3  A    between atoms: N_16  and  C_18
REMARK                            x       y       z     vdW  Elec       q    Type
REMARK                         _______ _______ _______ _____ _____    ______ ____
ROOT
ATOM      1  S   UNL     1      11.408  30.124  15.730  0.00  0.00    +0.000 S 
ATOM      2  O   UNL     1      11.372  30.790  14.442  0.00  0.00    +0.000 OA
ATOM      3  O   UNL     1      12.178  30.677  16.828  0.00  0.00    +0.000 OA
ATOM      4  N   UNL     1       9.790  29.809  16.230  0.00  0.00    +0.000 N 
ATOM      5  C   UNL     1      11.985  28.499  15.429  0.00  0.00    +0.000 A 
ATOM      6  C   UNL     1      11.064  27.566  14.957  0.00  0.00    +0.000 A 
ATOM      7  C   UNL     1       9.055  28.991  15.308  0.00  0.00    +0.000 C 
ATOM      8  C   UNL     1       9.658  27.939  14.707  0.00  0.00    +0.000 C 
ATOM      9  C   UNL     1      13.312  28.178  15.692  0.00  0.00    +0.000 A 
ATOM     10  C   UNL     1       9.548  29.424  17.631  0.00  0.00    +0.000 C 
ATOM     11  C   UNL     1      11.526  26.272  14.708  0.00  0.00    +0.000 A 
ATOM     12  C   UNL     1      13.746  26.881  15.448  0.00  0.00    +0.000 A 
ATOM     13  C   UNL     1      12.857  25.930  14.952  0.00  0.00    +0.000 A 
ENDROOT
BRANCH   7  14
ATOM     14  C   UNL     1       7.625  29.339  15.021  0.00  0.00    +0.000 C 
ATOM     15  O   UNL     1       7.352  30.460  14.596  0.00  0.00    +0.000 OA
ATOM     16  N   UNL     1       6.722  28.339  15.274  0.00  0.00    +0.000 N 
ATOM     17  H   UNL     1       7.039  27.420  15.561  0.00  0.00    +0.000 HD
BRANCH  16  18
ATOM     18  C   UNL     1       5.337  28.413  15.120  0.00  0.00    +0.000 A 
ATOM     19  N   UNL     1       4.735  29.309  15.927  0.00  0.00    +0.000 NA
ATOM     20  C   UNL     1       3.392  29.425  15.816  0.00  0.00    +0.000 A 
ATOM     21  C   UNL     1       2.616  28.693  14.936  0.00  0.00    +0.000 A 
ATOM     22  C   UNL     1       3.266  27.781  14.117  0.00  0.00    +0.000 A 
ATOM     23  C   UNL     1       4.646  27.633  14.203  0.00  0.00    +0.000 A 
ENDBRANCH  16  18
ENDBRANCH   7  14
BRANCH   8  24
ATOM     24  O   UNL     1       9.022  27.098  13.809  0.00  0.00    +0.000 OA
ATOM     25  H   UNL     1       9.182  27.412  12.890  0.00  0.00    +0.000 HD
ENDBRANCH   8  24
TORSDOF 3
ENDMDL
MODEL 3
REMARK VINA RESULT:      -6.8     11.878     13.591
REMARK  Name = Piroxicam.pdbqt.pdb
REMARK  3 active torsions:
REMARK  status: ('A' for Active; 'I' for Inactive)
REMARK    1  A    between atoms: C_7  and  C_14
REMARK    2  A    between atoms: C_8  and  O_24
REMARK    3  A    between atoms: N_16  and  C_18
REMARK                            x       y       z     vdW  Elec       q    Type
REMARK                         _______ _______ _______ _____ _____    ______ ____
ROOT
ATOM      1  S   UNL     1      -3.290  40.895  17.192  0.00  0.00    +0.000 S 
ATOM      2  O   UNL     1      -2.621  39.607  17.233  0.00  0.00    +0.000 OA
ATOM      3  O   UNL     1      -4.412  41.174  18.067  0.00  0.00    +0.000 OA
ATOM      4  N   UNL     1      -2.101  42.134  17.325  0.00  0.00    +0.000 N 
ATOM      5  C   UNL     1      -3.823  41.122  15.540  0.00  0.00    +0.000 A 
ATOM      6  C   UNL     1      -2.880  41.566  14.615  0.00  0.00    +0.000 A 
ATOM      7  C   UNL     1      -1.113  42.094  16.285  0.00  0.00    +0.000 C 
ATOM      8  C   UNL     1      -1.482  41.821  15.011  0.00  0.00    +0.000 C 
ATOM      9  C   UNL     1      -5.152  40.887  15.205  0.00  0.00    +0.000 A 
ATOM     10  C   UNL     1      -2.545  43.508  17.618  0.00  0.00    +0.000 C 
ATOM     11  C   UNL     1      -3.302  41.738  13.296  0.00  0.00    +0.000 A 
ATOM     12  C   UNL     1      -5.551  41.078  13.888  0.00  0.00    +0.000 A 
ATOM     13  C   UNL     1      -4.628  41.497  12.933  0.00  0.00    +0.000 A 
ENDROOT
BRANCH   7  14
ATOM     14  C   UNL     1       0.321  42.341  16.646  0.00  0.00    +0.000 C 
ATOM     15  O   UNL     1       0.933  41.495  17.296  0.00  0.00    +0.000 OA
ATOM     16  N   UNL     1       0.832  43.536  16.208  0.00  0.00    +0.000 N 
ATOM     17  H   UNL     1       0.278  44.148  15.620  0.00  0.00    +0.000 HD
BRANCH  16  18
ATOM     18  C   UNL     1       2.122  44.019  16.432  0.00  0.00    +0.000 A 
ATOM     19  N   UNL     1       3.074  43.428  15.681  0.00  0.00    +0.000 NA
ATOM     20  C   UNL     1       4.344  43.861  15.855  0.00  0.00    +0.000 A 
ATOM     21  C   UNL     1       4.714  44.858  16.740  0.00  0.00    +0.000 A 
ATOM     22  C   UNL     1       3.710  45.447  17.495  0.00  0.00    +0.000 A 
ATOM     23  C   UNL     1       2.393  45.028  17.345  0.00  0.00    +0.000 A 
ENDBRANCH  16  18
ENDBRANCH   7  14
BRANCH   8  24
ATOM     24  O   UNL     1      -0.594  41.767  13.950  0.00  0.00    +0.000 OA
ATOM     25  H   UNL     1      -0.021  42.568  13.956  0.00  0.00    +0.000 HD
ENDBRANCH   8  24
TORSDOF 3
ENDMDL
MODEL 4
REMARK VINA RESULT:      -6.5      2.116      6.953
REMARK  Name = Piroxicam.pdbqt.pdb
REMARK  3 active torsions:
REMARK  status: ('A' for Active; 'I' for Inactive)
REMARK    1  A    between atoms: C_7  and  C_14
REMARK    2  A    between atoms: C_8  and  O_24
REMARK    3  A    between atoms: N_16  and  C_18
REMARK                            x       y       z     vdW  Elec       q    Type
REMARK                         _______ _______ _______ _____ _____    ______ ____
ROOT
ATOM      1  S   UNL     1      10.619  36.267  17.803  0.00  0.00    +0.000 S 
ATOM      2  O   UNL     1       9.940  36.043  19.065  0.00  0.00    +0.000 OA
ATOM      3  O   UNL     1      11.952  36.837  17.770  0.00  0.00    +0.000 OA
ATOM      4  N   UNL     1      10.565  34.810  16.885  0.00  0.00    +0.000 N 
ATOM      5  C   UNL     1       9.567  37.296  16.854  0.00  0.00    +0.000 A 
ATOM      6  C   UNL     1       8.502  36.690  16.190  0.00  0.00    +0.000 A 
ATOM      7  C   UNL     1       9.232  34.351  16.618  0.00  0.00    +0.000 C 
ATOM      8  C   UNL     1       8.262  35.238  16.295  0.00  0.00    +0.000 C 
ATOM      9  C   UNL     1       9.832  38.658  16.763  0.00  0.00    +0.000 A 
ATOM     10  C   UNL     1      11.443  34.685  15.709  0.00  0.00    +0.000 C 
ATOM     11  C   UNL     1       7.658  37.511  15.441  0.00  0.00    +0.000 A 
ATOM     12  C   UNL     1       8.985  39.453  16.001  0.00  0.00    +0.000 A 
ATOM     13  C   UNL     1       7.896  38.883  15.345  0.00  0.00    +0.000 A 
ENDROOT
BRANCH   7  14
ATOM     14  C   UNL     1       8.944  32.883  16.720  0.00  0.00    +0.000 C 
ATOM     15  O   UNL     1       9.405  32.243  17.664  0.00  0.00    +0.000 OA
ATOM     16  N   UNL     1       8.170  32.371  15.711  0.00  0.00    +0.000 N 
ATOM     17  H   UNL     1       7.776  32.981  15.005  0.00  0.00    +0.000 HD
BRANCH  16  18
ATOM     18  C   UNL     1       7.783  31.039  15.556  0.00  0.00    +0.000 A 
ATOM     19  N   UNL     1       8.797  30.195  15.277  0.00  0.00    +0.000 NA
ATOM     20  C   UNL     1       8.478  28.890  15.121  0.00  0.00    +0.000 A 
ATOM     21  C   UNL     1       7.196  28.381  15.231  0.00  0.00    +0.000 A 
ATOM     22  C   UNL     1       6.176  29.276  15.521  0.00  0.00    +0.000 A 
ATOM     23  C   UNL     1       6.465  30.625  15.688  0.00  0.00    +0.000 A 
ENDBRANCH  16  18
ENDBRANCH   7  14
BRANCH   8  24
ATOM     24  O   UNL     1       6.953  34.878  16.019  0.00  0.00    +0.000 OA
ATOM     25  H   UNL     1       6.425  34.889  16.850  0.00  0.00    +0.000 HD
ENDBRANCH   8  24
TORSDOF 3
ENDMDL
MODEL 5
REMARK VINA RESULT:      -6.3     16.581     18.316
REMARK  Name = Piroxicam.pdbqt.pdb
REMARK  3 active torsions:
REMARK  status: ('A' for Active; 'I' for Inactive)
REMARK    1  A    between atoms: C_7  and  C_14
REMARK    2  A    between atoms: C_8  and  O_24
REMARK    3  A    between atoms: N_16  and  C_18
REMARK                            x       y       z     vdW  Elec       q    Type
REMARK                         _______ _______ _______ _____ _____    ______ ____
ROOT
ATOM      1  S   UNL     1       3.769  19.240   6.403  0.00  0.00    +0.000 S 
ATOM      2  O   UNL     1       3.245  17.907   6.172  0.00  0.00    +0.000 OA
ATOM      3  O   UNL     1       5.095  19.604   5.943  0.00  0.00    +0.000 OA
ATOM      4  N   UNL     1       2.607  20.388   5.858  0.00  0.00    +0.000 N 
ATOM      5  C   UNL     1       3.707  19.500   8.134  0.00  0.00    +0.000 A 
ATOM      6  C   UNL     1       2.482  19.871   8.685  0.00  0.00    +0.000 A 
ATOM      7  C   UNL     1       1.336  20.272   6.513  0.00  0.00    +0.000 C 
ATOM      8  C   UNL     1       1.279  20.023   7.843  0.00  0.00    +0.000 C 
ATOM      9  C   UNL     1       4.863  19.364   8.894  0.00  0.00    +0.000 A 
ATOM     10  C   UNL     1       3.024  21.792   5.699  0.00  0.00    +0.000 C 
ATOM     11  C   UNL     1       2.429  20.069  10.065  0.00  0.00    +0.000 A 
ATOM     12  C   UNL     1       4.789  19.579  10.265  0.00  0.00    +0.000 A 
ATOM     13  C   UNL     1       3.573  19.926  10.852  0.00  0.00    +0.000 A 
ENDROOT
BRANCH   7  14
ATOM     14  C   UNL     1       0.089  20.414   5.693  0.00  0.00    +0.000 C 
ATOM     15  O   UNL     1      -0.106  19.643   4.754  0.00  0.00    +0.000 OA
ATOM     16  N   UNL     1      -0.746  21.432   6.076  0.00  0.00    +0.000 N 
ATOM     17  H   UNL     1      -0.542  21.980   6.903  0.00  0.00    +0.000 HD
BRANCH  16  18
ATOM     18  C   UNL     1      -1.948  21.794   5.467  0.00  0.00    +0.000 A 
ATOM     19  N   UNL     1      -1.813  22.668   4.449  0.00  0.00    +0.000 NA
ATOM     20  C   UNL     1      -2.948  23.050   3.819  0.00  0.00    +0.000 A 
ATOM     21  C   UNL     1      -4.214  22.602   4.152  0.00  0.00    +0.000 A 
ATOM     22  C   UNL     1      -4.317  21.701   5.202  0.00  0.00    +0.000 A 
ATOM     23  C   UNL     1      -3.173  21.286   5.874  0.00  0.00    +0.000 A 
ENDBRANCH  16  18
ENDBRANCH   7  14
BRANCH   8  24
ATOM     24  O   UNL     1       0.096  19.900   8.552  0.00  0.00    +0.000 OA
ATOM     25  H   UNL     1      -0.635  19.662   7.937  0.00  0.00    +0.000 HD
ENDBRANCH   8  24
TORSDOF 3
ENDMDL
MODEL 6
REMARK VINA RESULT:      -6.1     31.235     33.892
REMARK  Name = Piroxicam.pdbqt.pdb
REMARK  3 active torsions:
REMARK  status: ('A' for Active; 'I' for Inactive)
REMARK    1  A    between atoms: C_7  and  C_14
REMARK    2  A    between atoms: C_8  and  O_24
REMARK    3  A    between atoms: N_16  and  C_18
REMARK                            x       y       z     vdW  Elec       q    Type
REMARK                         _______ _______ _______ _____ _____    ______ ____
ROOT
ATOM      1  S   UNL     1      -0.242  64.662   9.518  0.00  0.00    +0.000 S 
ATOM      2  O   UNL     1       1.136  64.292   9.250  0.00  0.00    +0.000 OA
ATOM      3  O   UNL     1      -0.576  65.499  10.654  0.00  0.00    +0.000 OA
ATOM      4  N   UNL     1      -0.927  65.305   8.075  0.00  0.00    +0.000 N 
ATOM      5  C   UNL     1      -1.133  63.163   9.670  0.00  0.00    +0.000 A 
ATOM      6  C   UNL     1      -1.519  62.522   8.494  0.00  0.00    +0.000 A 
ATOM      7  C   UNL     1      -0.901  64.389   6.971  0.00  0.00    +0.000 C 
ATOM      8  C   UNL     1      -1.175  63.079   7.171  0.00  0.00    +0.000 C 
ATOM      9  C   UNL     1      -1.455  62.676  10.931  0.00  0.00    +0.000 A 
ATOM     10  C   UNL     1      -2.205  66.032   8.165  0.00  0.00    +0.000 C 
ATOM     11  C   UNL     1      -2.222  61.322   8.614  0.00  0.00    +0.000 A 
ATOM     12  C   UNL     1      -2.166  61.486  11.026  0.00  0.00    +0.000 A 
ATOM     13  C   UNL     1      -2.545  60.806   9.870  0.00  0.00    +0.000 A 
ENDROOT
BRANCH   7  14
ATOM     14  C   UNL     1      -0.549  64.913   5.610  0.00  0.00    +0.000 C 
ATOM     15  O   UNL     1       0.633  65.066   5.311  0.00  0.00    +0.000 OA
ATOM     16  N   UNL     1      -1.621  65.189   4.800  0.00  0.00    +0.000 N 
ATOM     17  H   UNL     1      -2.564  64.971   5.102  0.00  0.00    +0.000 HD
BRANCH  16  18
ATOM     18  C   UNL     1      -1.570  65.709   3.506  0.00  0.00    +0.000 A 
ATOM     19  N   UNL     1      -1.530  64.776   2.534  0.00  0.00    +0.000 NA
ATOM     20  C   UNL     1      -1.484  65.225   1.259  0.00  0.00    +0.000 A 
ATOM     21  C   UNL     1      -1.480  66.562   0.902  0.00  0.00    +0.000 A 
ATOM     22  C   UNL     1      -1.525  67.497   1.927  0.00  0.00    +0.000 A 
ATOM     23  C   UNL     1      -1.571  67.073   3.249  0.00  0.00    +0.000 A 
ENDBRANCH  16  18
ENDBRANCH   7  14
BRANCH   8  24
ATOM     24  O   UNL     1      -1.175  62.131   6.162  0.00  0.00    +0.000 OA
ATOM     25  H   UNL     1      -2.095  61.991   5.839  0.00  0.00    +0.000 HD
ENDBRANCH   8  24
TORSDOF 3
ENDMDL
MODEL 7
REMARK VINA RESULT:      -5.9     30.458     32.818
REMARK  Name = Piroxicam.pdbqt.pdb
REMARK  3 active torsions:
REMARK  status: ('A' for Active; 'I' for Inactive)
REMARK    1  A    between atoms: C_7  and  C_14
REMARK    2  A    between atoms: C_8  and  O_24
REMARK    3  A    between atoms: N_16  and  C_18
REMARK                            x       y       z     vdW  Elec       q    Type
REMARK                         _______ _______ _______ _____ _____    ______ ____
ROOT
ATOM      1  S   UNL     1      -0.509  63.872  10.790  0.00  0.00    +0.000 S 
ATOM      2  O   UNL     1       0.791  63.326  10.451  0.00  0.00    +0.000 OA
ATOM      3  O   UNL     1      -0.636  64.914  11.790  0.00  0.00    +0.000 OA
ATOM      4  N   UNL     1      -1.305  64.336   9.335  0.00  0.00    +0.000 N 
ATOM      5  C   UNL     1      -1.498  62.517  11.292  0.00  0.00    +0.000 A 
ATOM      6  C   UNL     1      -2.072  61.734  10.292  0.00  0.00    +0.000 A 
ATOM      7  C   UNL     1      -1.487  63.252   8.411  0.00  0.00    +0.000 C 
ATOM      8  C   UNL     1      -1.842  62.028   8.864  0.00  0.00    +0.000 C 
ATOM      9  C   UNL     1      -1.706  62.279  12.646  0.00  0.00    +0.000 A 
ATOM     10  C   UNL     1      -2.500  65.194   9.427  0.00  0.00    +0.000 C 
ATOM     11  C   UNL     1      -2.852  60.648  10.692  0.00  0.00    +0.000 A 
ATOM     12  C   UNL     1      -2.497  61.200  13.019  0.00  0.00    +0.000 A 
ATOM     13  C   UNL     1      -3.065  60.381  12.045  0.00  0.00    +0.000 A 
ENDROOT
BRANCH   7  14
ATOM     14  C   UNL     1      -1.257  63.507   6.951  0.00  0.00    +0.000 C 
ATOM     15  O   UNL     1      -0.233  63.083   6.419  0.00  0.00    +0.000 OA
ATOM     16  N   UNL     1      -2.245  64.222   6.324  0.00  0.00    +0.000 N 
ATOM     17  H   UNL     1      -3.090  64.478   6.822  0.00  0.00    +0.000 HD
BRANCH  16  18
ATOM     18  C   UNL     1      -2.263  64.615   4.985  0.00  0.00    +0.000 A 
ATOM     19  N   UNL     1      -1.218  65.386   4.619  0.00  0.00    +0.000 NA
ATOM     20  C   UNL     1      -1.183  65.793   3.330  0.00  0.00    +0.000 A 
ATOM     21  C   UNL     1      -2.138  65.468   2.383  0.00  0.00    +0.000 A 
ATOM     22  C   UNL     1      -3.199  64.672   2.791  0.00  0.00    +0.000 A 
ATOM     23  C   UNL     1      -3.269  64.235   4.109  0.00  0.00    +0.000 A 
ENDBRANCH  16  18
ENDBRANCH   7  14
BRANCH   8  24
ATOM     24  O   UNL     1      -2.040  60.931   8.042  0.00  0.00    +0.000 OA
ATOM     25  H   UNL     1      -1.891  61.190   7.104  0.00  0.00    +0.000 HD
ENDBRANCH   8  24
TORSDOF 3
ENDMDL
MODEL 8
REMARK VINA RESULT:      -5.8     20.106     21.690
REMARK  Name = Piroxicam.pdbqt.pdb
REMARK  3 active torsions:
REMARK  status: ('A' for Active; 'I' for Inactive)
REMARK    1  A    between atoms: C_7  and  C_14
REMARK    2  A    between atoms: C_8  and  O_24
REMARK    3  A    between atoms: N_16  and  C_18
REMARK                            x       y       z     vdW  Elec       q    Type
REMARK                         _______ _______ _______ _____ _____    ______ ____
ROOT
ATOM      1  S   UNL     1      -7.957  40.913  12.981  0.00  0.00    +0.000 S 
ATOM      2  O   UNL     1      -7.583  39.625  12.428  0.00  0.00    +0.000 OA
ATOM      3  O   UNL     1      -6.955  41.798  13.542  0.00  0.00    +0.000 OA
ATOM      4  N   UNL     1      -8.916  41.751  11.820  0.00  0.00    +0.000 N 
ATOM      5  C   UNL     1      -9.148  40.589  14.223  0.00  0.00    +0.000 A 
ATOM      6  C   UNL     1     -10.461  40.367  13.813  0.00  0.00    +0.000 A 
ATOM      7  C   UNL     1     -10.108  41.045  11.446  0.00  0.00    +0.000 C 
ATOM      8  C   UNL     1     -10.831  40.390  12.385  0.00  0.00    +0.000 C 
ATOM      9  C   UNL     1      -8.768  40.591  15.560  0.00  0.00    +0.000 A 
ATOM     10  C   UNL     1      -9.160  43.191  12.014  0.00  0.00    +0.000 C 
ATOM     11  C   UNL     1     -11.409  40.099  14.802  0.00  0.00    +0.000 A 
ATOM     12  C   UNL     1      -9.732  40.334  16.528  0.00  0.00    +0.000 A 
ATOM     13  C   UNL     1     -11.050  40.083  16.151  0.00  0.00    +0.000 A 
ENDROOT
BRANCH   7  14
ATOM     14  C   UNL     1     -10.515  41.038  10.003  0.00  0.00    +0.000 C 
ATOM     15  O   UNL     1      -9.673  40.796   9.140  0.00  0.00    +0.000 OA
ATOM     16  N   UNL     1     -11.837  41.320   9.771  0.00  0.00    +0.000 N 
ATOM     17  H   UNL     1     -12.480  41.443  10.545  0.00  0.00    +0.000 HD
BRANCH  16  18
ATOM     18  C   UNL     1     -12.462  41.404   8.526  0.00  0.00    +0.000 A 
ATOM     19  N   UNL     1     -12.844  40.216   8.016  0.00  0.00    +0.000 NA
ATOM     20  C   UNL     1     -13.460  40.240   6.811  0.00  0.00    +0.000 A 
ATOM     21  C   UNL     1     -13.717  41.391   6.089  0.00  0.00    +0.000 A 
ATOM     22  C   UNL     1     -13.313  42.597   6.644  0.00  0.00    +0.000 A 
ATOM     23  C   UNL     1     -12.677  42.613   7.879  0.00  0.00    +0.000 A 
ENDBRANCH  16  18
ENDBRANCH   7  14
BRANCH   8  24
ATOM     24  O   UNL     1     -11.993  39.690  12.109  0.00  0.00    +0.000 OA
ATOM     25  H   UNL     1     -12.158  39.691  11.138  0.00  0.00    +0.000 HD
ENDBRANCH   8  24
TORSDOF 3
ENDMDL
MODEL 9
REMARK VINA RESULT:      -5.7     22.792     24.530
REMARK  Name = Piroxicam.pdbqt.pdb
REMARK  3 active torsions:
REMARK  status: ('A' for Active; 'I' for Inactive)
REMARK    1  A    between atoms: C_7  and  C_14
REMARK    2  A    between atoms: C_8  and  O_24
REMARK    3  A    between atoms: N_16  and  C_18
REMARK                            x       y       z     vdW  Elec       q    Type
REMARK                         _______ _______ _______ _____ _____    ______ ____
ROOT
ATOM      1  S   UNL     1      20.387  41.209  -6.849  0.00  0.00    +0.000 S 
ATOM      2  O   UNL     1      21.308  42.112  -6.185  0.00  0.00    +0.000 OA
ATOM      3  O   UNL     1      20.558  40.874  -8.250  0.00  0.00    +0.000 OA
ATOM      4  N   UNL     1      20.245  39.777  -5.903  0.00  0.00    +0.000 N 
ATOM      5  C   UNL     1      18.790  41.899  -6.649  0.00  0.00    +0.000 A 
ATOM      6  C   UNL     1      18.145  41.686  -5.433  0.00  0.00    +0.000 A 
ATOM      7  C   UNL     1      19.775  40.017  -4.568  0.00  0.00    +0.000 C 
ATOM      8  C   UNL     1      18.790  40.920  -4.349  0.00  0.00    +0.000 C 
ATOM      9  C   UNL     1      18.206  42.601  -7.697  0.00  0.00    +0.000 A 
ATOM     10  C   UNL     1      19.616  38.591  -6.508  0.00  0.00    +0.000 C 
ATOM     11  C   UNL     1      16.876  42.244  -5.269  0.00  0.00    +0.000 A 
ATOM     12  C   UNL     1      16.936  43.136  -7.515  0.00  0.00    +0.000 A 
ATOM     13  C   UNL     1      16.274  42.964  -6.302  0.00  0.00    +0.000 A 
ENDROOT
BRANCH   7  14
ATOM     14  C   UNL     1      20.409  39.264  -3.437  0.00  0.00    +0.000 C 
ATOM     15  O   UNL     1      21.612  39.015  -3.478  0.00  0.00    +0.000 OA
ATOM     16  N   UNL     1      19.553  38.904  -2.427  0.00  0.00    +0.000 N 
ATOM     17  H   UNL     1      18.586  39.207  -2.440  0.00  0.00    +0.000 HD
BRANCH  16  18
ATOM     18  C   UNL     1      19.880  38.178  -1.282  0.00  0.00    +0.000 A 
ATOM     19  N   UNL     1      20.745  38.802  -0.457  0.00  0.00    +0.000 NA
ATOM     20  C   UNL     1      21.093  38.144   0.673  0.00  0.00    +0.000 A 
ATOM     21  C   UNL     1      20.620  36.893   1.024  0.00  0.00    +0.000 A 
ATOM     22  C   UNL     1      19.730  36.279   0.155  0.00  0.00    +0.000 A 
ATOM     23  C   UNL     1      19.349  36.923  -1.016  0.00  0.00    +0.000 A 
ENDBRANCH  16  18
ENDBRANCH   7  14
BRANCH   8  24
ATOM     24  O   UNL     1      18.277  41.208  -3.095  0.00  0.00    +0.000 OA
ATOM     25  H   UNL     1      17.351  40.880  -3.033  0.00  0.00    +0.000 HD
ENDBRANCH   8  24
TORSDOF 3
ENDMDL
