REMARK  Name = Piroxicam.pdbqt.pdb
REMARK  3 active torsions:
REMARK  status: ('A' for Active; 'I' for Inactive)
REMARK    1  A    between atoms: C_7  and  C_14
REMARK    2  A    between atoms: C_8  and  O_24
REMARK    3  A    between atoms: N_16  and  C_18
REMARK                            x       y       z     vdW  Elec       q    Type
REMARK                         _______ _______ _______ _____ _____    ______ ____
ROOT
ATOM      1  S   UNL     1       1.869  -1.718   0.539  0.00  0.00    +0.000 S 
ATOM      2  O   UNL     1       1.586  -1.608   1.958  0.00  0.00    +0.000 OA
ATOM      3  O   UNL     1       2.280  -2.983  -0.038  0.00  0.00    +0.000 OA
ATOM      4  N   UNL     1       0.539  -1.062  -0.337  0.00  0.00    +0.000 N 
ATOM      5  C   UNL     1       3.112  -0.535   0.191  0.00  0.00    +0.000 A 
ATOM      6  C   UNL     1       2.711   0.789   0.023  0.00  0.00    +0.000 A 
ATOM      7  C   UNL     1       0.270   0.313  -0.025  0.00  0.00    +0.000 C 
ATOM      8  C   UNL     1       1.294   1.181   0.149  0.00  0.00    +0.000 C 
ATOM      9  C   UNL     1       4.435  -0.942   0.063  0.00  0.00    +0.000 A 
ATOM     10  C   UNL     1       0.444  -1.333  -1.782  0.00  0.00    +0.000 C 
ATOM     11  C   UNL     1       3.703   1.734  -0.245  0.00  0.00    +0.000 A 
ATOM     12  C   UNL     1       5.403   0.015  -0.217  0.00  0.00    +0.000 A 
ATOM     13  C   UNL     1       5.040   1.352  -0.365  0.00  0.00    +0.000 A 
ENDROOT
BRANCH   7  14
ATOM     14  C   UNL     1      -1.157   0.751   0.118  0.00  0.00    +0.000 C 
ATOM     15  O   UNL     1      -1.401   1.907   0.459  0.00  0.00    +0.000 OA
ATOM     16  N   UNL     1      -2.091  -0.217  -0.149  0.00  0.00    +0.000 N 
ATOM     17  H   UNL     1      -1.805  -1.128  -0.489  0.00  0.00    +0.000 HD
BRANCH  16  18
ATOM     18  C   UNL     1      -3.477  -0.079  -0.064  0.00  0.00    +0.000 A 
ATOM     19  N   UNL     1      -4.167  -1.184  -0.412  0.00  0.00    +0.000 NA
ATOM     20  C   UNL     1      -5.516  -1.107  -0.344  0.00  0.00    +0.000 A 
ATOM     21  C   UNL     1      -6.214   0.018   0.057  0.00  0.00    +0.000 A 
ATOM     22  C   UNL     1      -5.474   1.137   0.411  0.00  0.00    +0.000 A 
ATOM     23  C   UNL     1      -4.086   1.096   0.353  0.00  0.00    +0.000 A 
ENDBRANCH  16  18
ENDBRANCH   7  14
BRANCH   8  24
ATOM     24  O   UNL     1       1.122   2.522   0.448  0.00  0.00    +0.000 OA
ATOM     25  H   UNL     1       0.162   2.720   0.541  0.00  0.00    +0.000 HD
ENDBRANCH   8  24
TORSDOF 3
