MODEL 1
REMARK VINA RESULT:      -6.4      0.000      0.000
REMARK  Name = PKR_Inhibitor.pdbqt.pdb
REMARK  0 active torsions:
REMARK  status: ('A' for Active; 'I' for Inactive)
REMARK                            x       y       z     vdW  Elec       q    Type
REMARK                         _______ _______ _______ _____ _____    ______ ____
ROOT
ATOM      1  S   UNL     1      16.457  46.392  11.164  0.00  0.00    +0.000 S 
ATOM      2  O   UNL     1      12.262  43.462   8.473  0.00  0.00    +0.000 OA
ATOM      3  N   UNL     1      14.540  43.162   8.002  0.00  0.00    +0.000 N 
ATOM      4  N   UNL     1      18.819  45.717  10.307  0.00  0.00    +0.000 NA
ATOM      5  C   UNL     1      15.494  44.645   9.450  0.00  0.00    +0.000 A 
ATOM      6  C   UNL     1      15.748  43.679   8.444  0.00  0.00    +0.000 A 
ATOM      7  C   UNL     1      14.015  44.707   9.618  0.00  0.00    +0.000 C 
ATOM      8  C   UNL     1      16.596  45.235   9.972  0.00  0.00    +0.000 A 
ATOM      9  C   UNL     1      13.437  43.718   8.650  0.00  0.00    +0.000 C 
ATOM     10  C   UNL     1      17.896  44.963   9.602  0.00  0.00    +0.000 A 
ATOM     11  C   UNL     1      17.013  43.319   7.986  0.00  0.00    +0.000 A 
ATOM     12  C   UNL     1      13.294  45.433  10.412  0.00  0.00    +0.000 C 
ATOM     13  C   UNL     1      18.098  43.991   8.595  0.00  0.00    +0.000 A 
ATOM     14  C   UNL     1      18.168  46.495  11.148  0.00  0.00    +0.000 A 
ATOM     15  H   UNL     1      14.442  42.454   7.287  0.00  0.00    +0.000 HD
ATOM     16  C   UNL     1      12.436  46.190  11.245  0.00  0.00    +0.000 C 
ATOM     17  N   UNL     1      11.072  46.100  11.254  0.00  0.00    +0.000 N 
ATOM     18  C   UNL     1      10.606  46.983  12.188  0.00  0.00    +0.000 C 
ATOM     19  H   UNL     1      10.504  45.495  10.677  0.00  0.00    +0.000 HD
ATOM     20  N   UNL     1      11.592  47.627  12.773  0.00  0.00    +0.000 NA
ATOM     21  C   UNL     1      12.738  47.140  12.192  0.00  0.00    +0.000 C 
ENDROOT
TORSDOF 0
ENDMDL
MODEL 2
REMARK VINA RESULT:      -6.3     23.664     23.848
REMARK  Name = PKR_Inhibitor.pdbqt.pdb
REMARK  0 active torsions:
REMARK  status: ('A' for Active; 'I' for Inactive)
REMARK                            x       y       z     vdW  Elec       q    Type
REMARK                         _______ _______ _______ _____ _____    ______ ____
ROOT
ATOM      1  S   UNL     1       0.089  63.852  11.142  0.00  0.00    +0.000 S 
ATOM      2  O   UNL     1      -2.787  61.238   6.861  0.00  0.00    +0.000 OA
ATOM      3  N   UNL     1      -1.218  62.944   6.496  0.00  0.00    +0.000 N 
ATOM      4  N   UNL     1       1.716  65.675  10.249  0.00  0.00    +0.000 NA
ATOM      5  C   UNL     1      -0.567  63.414   8.632  0.00  0.00    +0.000 A 
ATOM      6  C   UNL     1      -0.389  63.746   7.266  0.00  0.00    +0.000 A 
ATOM      7  C   UNL     1      -1.585  62.327   8.679  0.00  0.00    +0.000 C 
ATOM      8  C   UNL     1       0.188  64.129   9.500  0.00  0.00    +0.000 A 
ATOM      9  C   UNL     1      -1.979  62.055   7.257  0.00  0.00    +0.000 C 
ATOM     10  C   UNL     1       1.084  65.117   9.151  0.00  0.00    +0.000 A 
ATOM     11  C   UNL     1       0.482  64.722   6.789  0.00  0.00    +0.000 A 
ATOM     12  C   UNL     1      -2.084  61.691   9.691  0.00  0.00    +0.000 C 
ATOM     13  C   UNL     1       1.226  65.411   7.774  0.00  0.00    +0.000 A 
ATOM     14  C   UNL     1       1.266  65.084  11.336  0.00  0.00    +0.000 A 
ATOM     15  H   UNL     1      -1.283  62.979   5.488  0.00  0.00    +0.000 HD
ATOM     16  C   UNL     1      -2.677  60.952  10.742  0.00  0.00    +0.000 C 
ATOM     17  N   UNL     1      -3.614  59.971  10.579  0.00  0.00    +0.000 N 
ATOM     18  C   UNL     1      -3.938  59.498  11.820  0.00  0.00    +0.000 C 
ATOM     19  H   UNL     1      -4.001  59.648   9.703  0.00  0.00    +0.000 HD
ATOM     20  N   UNL     1      -3.263  60.121  12.761  0.00  0.00    +0.000 NA
ATOM     21  C   UNL     1      -2.473  61.030  12.100  0.00  0.00    +0.000 C 
ENDROOT
TORSDOF 0
ENDMDL
MODEL 3
REMARK VINA RESULT:      -6.3     23.743     23.986
REMARK  Name = PKR_Inhibitor.pdbqt.pdb
REMARK  0 active torsions:
REMARK  status: ('A' for Active; 'I' for Inactive)
REMARK                            x       y       z     vdW  Elec       q    Type
REMARK                         _______ _______ _______ _____ _____    ______ ____
ROOT
ATOM      1  S   UNL     1       0.401  64.455   8.723  0.00  0.00    +0.000 S 
ATOM      2  O   UNL     1      -2.658  60.932  12.139  0.00  0.00    +0.000 OA
ATOM      3  N   UNL     1      -2.833  60.920   9.799  0.00  0.00    +0.000 N 
ATOM      4  N   UNL     1      -0.133  64.074   6.205  0.00  0.00    +0.000 NA
ATOM      5  C   UNL     1      -1.344  62.553   9.232  0.00  0.00    +0.000 A 
ATOM      6  C   UNL     1      -2.269  61.603   8.732  0.00  0.00    +0.000 A 
ATOM      7  C   UNL     1      -1.360  62.426  10.716  0.00  0.00    +0.000 C 
ATOM      8  C   UNL     1      -0.716  63.296   8.289  0.00  0.00    +0.000 A 
ATOM      9  C   UNL     1      -2.349  61.344  11.037  0.00  0.00    +0.000 C 
ATOM     10  C   UNL     1      -0.912  63.187   6.929  0.00  0.00    +0.000 A 
ATOM     11  C   UNL     1      -2.553  61.400   7.385  0.00  0.00    +0.000 A 
ATOM     12  C   UNL     1      -0.692  63.071  11.619  0.00  0.00    +0.000 C 
ATOM     13  C   UNL     1      -1.845  62.223   6.479  0.00  0.00    +0.000 A 
ATOM     14  C   UNL     1       0.589  64.781   7.050  0.00  0.00    +0.000 A 
ATOM     15  H   UNL     1      -3.524  60.187   9.716  0.00  0.00    +0.000 HD
ATOM     16  C   UNL     1      -0.002  63.730  12.664  0.00  0.00    +0.000 C 
ATOM     17  N   UNL     1      -0.156  63.464  13.995  0.00  0.00    +0.000 N 
ATOM     18  C   UNL     1       0.675  64.302  14.684  0.00  0.00    +0.000 C 
ATOM     19  H   UNL     1      -0.772  62.774  14.404  0.00  0.00    +0.000 HD
ATOM     20  N   UNL     1       1.349  65.084  13.870  0.00  0.00    +0.000 NA
ATOM     21  C   UNL     1       0.933  64.737  12.607  0.00  0.00    +0.000 C 
ENDROOT
TORSDOF 0
ENDMDL
MODEL 4
REMARK VINA RESULT:      -6.0     22.888     24.157
REMARK  Name = PKR_Inhibitor.pdbqt.pdb
REMARK  0 active torsions:
REMARK  status: ('A' for Active; 'I' for Inactive)
REMARK                            x       y       z     vdW  Elec       q    Type
REMARK                         _______ _______ _______ _____ _____    ______ ____
ROOT
ATOM      1  S   UNL     1       4.351  60.321  -6.333  0.00  0.00    +0.000 S 
ATOM      2  O   UNL     1       4.572  54.633  -7.344  0.00  0.00    +0.000 OA
ATOM      3  N   UNL     1       2.565  55.795  -6.993  0.00  0.00    +0.000 N 
ATOM      4  N   UNL     1       1.909  61.157  -6.007  0.00  0.00    +0.000 NA
ATOM      5  C   UNL     1       3.330  57.922  -6.678  0.00  0.00    +0.000 A 
ATOM      6  C   UNL     1       2.176  57.101  -6.736  0.00  0.00    +0.000 A 
ATOM      7  C   UNL     1       4.500  57.031  -6.919  0.00  0.00    +0.000 C 
ATOM      8  C   UNL     1       3.092  59.232  -6.431  0.00  0.00    +0.000 A 
ATOM      9  C   UNL     1       3.947  55.651  -7.120  0.00  0.00    +0.000 C 
ATOM     10  C   UNL     1       1.848  59.794  -6.242  0.00  0.00    +0.000 A 
ATOM     11  C   UNL     1       0.869  57.550  -6.562  0.00  0.00    +0.000 A 
ATOM     12  C   UNL     1       5.765  57.305  -6.964  0.00  0.00    +0.000 C 
ATOM     13  C   UNL     1       0.727  58.934  -6.310  0.00  0.00    +0.000 A 
ATOM     14  C   UNL     1       3.172  61.530  -6.035  0.00  0.00    +0.000 A 
ATOM     15  H   UNL     1       1.933  55.012  -7.084  0.00  0.00    +0.000 HD
ATOM     16  C   UNL     1       7.161  57.522  -7.028  0.00  0.00    +0.000 C 
ATOM     17  N   UNL     1       8.096  56.554  -7.268  0.00  0.00    +0.000 N 
ATOM     18  C   UNL     1       9.325  57.152  -7.253  0.00  0.00    +0.000 C 
ATOM     19  H   UNL     1       7.918  55.571  -7.428  0.00  0.00    +0.000 HD
ATOM     20  N   UNL     1       9.227  58.442  -7.018  0.00  0.00    +0.000 NA
ATOM     21  C   UNL     1       7.882  58.684  -6.876  0.00  0.00    +0.000 C 
ENDROOT
TORSDOF 0
ENDMDL
MODEL 5
REMARK VINA RESULT:      -5.9     40.457     42.437
REMARK  Name = PKR_Inhibitor.pdbqt.pdb
REMARK  0 active torsions:
REMARK  status: ('A' for Active; 'I' for Inactive)
REMARK                            x       y       z     vdW  Elec       q    Type
REMARK                         _______ _______ _______ _____ _____    ______ ____
ROOT
ATOM      1  S   UNL     1     -10.142  17.396  30.204  0.00  0.00    +0.000 S 
ATOM      2  O   UNL     1     -14.171  18.988  26.374  0.00  0.00    +0.000 OA
ATOM      3  N   UNL     1     -12.322  20.325  26.920  0.00  0.00    +0.000 N 
ATOM      4  N   UNL     1      -8.291  19.204  30.476  0.00  0.00    +0.000 NA
ATOM      5  C   UNL     1     -11.259  19.011  28.454  0.00  0.00    +0.000 A 
ATOM      6  C   UNL     1     -11.221  20.246  27.759  0.00  0.00    +0.000 A 
ATOM      7  C   UNL     1     -12.484  18.299  27.991  0.00  0.00    +0.000 C 
ATOM      8  C   UNL     1     -10.234  18.803  29.314  0.00  0.00    +0.000 A 
ATOM      9  C   UNL     1     -13.144  19.200  26.989  0.00  0.00    +0.000 C 
ATOM     10  C   UNL     1      -9.197  19.681  29.544  0.00  0.00    +0.000 A 
ATOM     11  C   UNL     1     -10.229  21.212  27.906  0.00  0.00    +0.000 A 
ATOM     12  C   UNL     1     -12.956  17.142  28.329  0.00  0.00    +0.000 C 
ATOM     13  C   UNL     1      -9.202  20.900  28.826  0.00  0.00    +0.000 A 
ATOM     14  C   UNL     1      -8.695  18.017  30.881  0.00  0.00    +0.000 A 
ATOM     15  H   UNL     1     -12.531  21.106  26.313  0.00  0.00    +0.000 HD
ATOM     16  C   UNL     1     -13.537  15.891  28.645  0.00  0.00    +0.000 C 
ATOM     17  N   UNL     1     -14.691  15.402  28.100  0.00  0.00    +0.000 N 
ATOM     18  C   UNL     1     -14.922  14.173  28.654  0.00  0.00    +0.000 C 
ATOM     19  H   UNL     1     -15.273  15.859  27.412  0.00  0.00    +0.000 HD
ATOM     20  N   UNL     1     -13.984  13.853  29.518  0.00  0.00    +0.000 NA
ATOM     21  C   UNL     1     -13.115  14.917  29.521  0.00  0.00    +0.000 C 
ENDROOT
TORSDOF 0
ENDMDL
MODEL 6
REMARK VINA RESULT:      -5.8     12.709     13.803
REMARK  Name = PKR_Inhibitor.pdbqt.pdb
REMARK  0 active torsions:
REMARK  status: ('A' for Active; 'I' for Inactive)
REMARK                            x       y       z     vdW  Elec       q    Type
REMARK                         _______ _______ _______ _____ _____    ______ ____
ROOT
ATOM      1  S   UNL     1      10.267  38.091  18.640  0.00  0.00    +0.000 S 
ATOM      2  O   UNL     1       7.101  33.577  16.901  0.00  0.00    +0.000 OA
ATOM      3  N   UNL     1       7.302  35.557  15.658  0.00  0.00    +0.000 N 
ATOM      4  N   UNL     1      10.184  40.053  16.933  0.00  0.00    +0.000 NA
ATOM      5  C   UNL     1       8.679  36.787  16.999  0.00  0.00    +0.000 A 
ATOM      6  C   UNL     1       7.952  36.775  15.782  0.00  0.00    +0.000 A 
ATOM      7  C   UNL     1       8.441  35.469  17.651  0.00  0.00    +0.000 C 
ATOM      8  C   UNL     1       9.365  37.928  17.248  0.00  0.00    +0.000 A 
ATOM      9  C   UNL     1       7.534  34.701  16.735  0.00  0.00    +0.000 C 
ATOM     10  C   UNL     1       9.400  39.032  16.423  0.00  0.00    +0.000 A 
ATOM     11  C   UNL     1       7.908  37.826  14.869  0.00  0.00    +0.000 A 
ATOM     12  C   UNL     1       8.884  34.999  18.774  0.00  0.00    +0.000 C 
ATOM     13  C   UNL     1       8.659  38.972  15.220  0.00  0.00    +0.000 A 
ATOM     14  C   UNL     1      10.682  39.660  18.087  0.00  0.00    +0.000 A 
ATOM     15  H   UNL     1       6.715  35.291  14.879  0.00  0.00    +0.000 HD
ATOM     16  C   UNL     1       9.324  34.415  19.985  0.00  0.00    +0.000 C 
ATOM     17  N   UNL     1       8.990  33.162  20.418  0.00  0.00    +0.000 N 
ATOM     18  C   UNL     1       9.607  32.962  21.622  0.00  0.00    +0.000 C 
ATOM     19  H   UNL     1       8.394  32.498  19.941  0.00  0.00    +0.000 HD
ATOM     20  N   UNL     1      10.313  34.012  21.978  0.00  0.00    +0.000 NA
ATOM     21  C   UNL     1      10.143  34.925  20.965  0.00  0.00    +0.000 C 
ENDROOT
TORSDOF 0
ENDMDL
MODEL 7
REMARK VINA RESULT:      -5.8     23.688     24.571
REMARK  Name = PKR_Inhibitor.pdbqt.pdb
REMARK  0 active torsions:
REMARK  status: ('A' for Active; 'I' for Inactive)
REMARK                            x       y       z     vdW  Elec       q    Type
REMARK                         _______ _______ _______ _____ _____    ______ ____
ROOT
ATOM      1  S   UNL     1       5.188  59.603  -6.723  0.00  0.00    +0.000 S 
ATOM      2  O   UNL     1      -0.184  57.476  -6.498  0.00  0.00    +0.000 OA
ATOM      3  N   UNL     1       1.695  56.164  -7.000  0.00  0.00    +0.000 N 
ATOM      4  N   UNL     1       6.936  57.770  -7.316  0.00  0.00    +0.000 NA
ATOM      5  C   UNL     1       3.366  57.714  -6.887  0.00  0.00    +0.000 A 
ATOM      6  C   UNL     1       3.062  56.351  -7.131  0.00  0.00    +0.000 A 
ATOM      7  C   UNL     1       2.073  58.392  -6.588  0.00  0.00    +0.000 C 
ATOM      8  C   UNL     1       4.677  58.038  -6.983  0.00  0.00    +0.000 A 
ATOM      9  C   UNL     1       1.011  57.335  -6.675  0.00  0.00    +0.000 C 
ATOM     10  C   UNL     1       5.694  57.159  -7.289  0.00  0.00    +0.000 A 
ATOM     11  C   UNL     1       3.999  55.371  -7.448  0.00  0.00    +0.000 A 
ATOM     12  C   UNL     1       1.824  59.630  -6.302  0.00  0.00    +0.000 C 
ATOM     13  C   UNL     1       5.341  55.809  -7.523  0.00  0.00    +0.000 A 
ATOM     14  C   UNL     1       6.780  59.047  -7.034  0.00  0.00    +0.000 A 
ATOM     15  H   UNL     1       1.218  55.281  -7.123  0.00  0.00    +0.000 HD
ATOM     16  C   UNL     1       1.470  60.963  -5.984  0.00  0.00    +0.000 C 
ATOM     17  N   UNL     1       0.199  61.399  -5.736  0.00  0.00    +0.000 N 
ATOM     18  C   UNL     1       0.265  62.738  -5.469  0.00  0.00    +0.000 C 
ATOM     19  H   UNL     1      -0.643  60.839  -5.747  0.00  0.00    +0.000 HD
ATOM     20  N   UNL     1       1.502  63.178  -5.533  0.00  0.00    +0.000 NA
ATOM     21  C   UNL     1       2.263  62.080  -5.854  0.00  0.00    +0.000 C 
ENDROOT
TORSDOF 0
ENDMDL
MODEL 8
REMARK VINA RESULT:      -5.8     23.668     24.617
REMARK  Name = PKR_Inhibitor.pdbqt.pdb
REMARK  0 active torsions:
REMARK  status: ('A' for Active; 'I' for Inactive)
REMARK                            x       y       z     vdW  Elec       q    Type
REMARK                         _______ _______ _______ _____ _____    ______ ____
ROOT
ATOM      1  S   UNL     1      -0.851  63.503  11.318  0.00  0.00    +0.000 S 
ATOM      2  O   UNL     1       0.698  65.179   6.005  0.00  0.00    +0.000 OA
ATOM      3  N   UNL     1      -0.608  63.274   6.419  0.00  0.00    +0.000 N 
ATOM      4  N   UNL     1      -2.293  61.338  11.273  0.00  0.00    +0.000 NA
ATOM      5  C   UNL     1      -0.760  63.323   8.695  0.00  0.00    +0.000 A 
ATOM      6  C   UNL     1      -1.134  62.620   7.522  0.00  0.00    +0.000 A 
ATOM      7  C   UNL     1       0.056  64.489   8.252  0.00  0.00    +0.000 C 
ATOM      8  C   UNL     1      -1.210  62.788   9.855  0.00  0.00    +0.000 A 
ATOM      9  C   UNL     1       0.125  64.412   6.755  0.00  0.00    +0.000 C 
ATOM     10  C   UNL     1      -1.980  61.650   9.961  0.00  0.00    +0.000 A 
ATOM     11  C   UNL     1      -1.906  61.462   7.500  0.00  0.00    +0.000 A 
ATOM     12  C   UNL     1       0.624  65.424   8.945  0.00  0.00    +0.000 C 
ATOM     13  C   UNL     1      -2.328  60.984   8.762  0.00  0.00    +0.000 A 
ATOM     14  C   UNL     1      -1.751  62.246  12.058  0.00  0.00    +0.000 A 
ATOM     15  H   UNL     1      -0.729  62.978   5.460  0.00  0.00    +0.000 HD
ATOM     16  C   UNL     1       1.274  66.478   9.629  0.00  0.00    +0.000 C 
ATOM     17  N   UNL     1       1.988  67.479   9.031  0.00  0.00    +0.000 N 
ATOM     18  C   UNL     1       2.458  68.299  10.019  0.00  0.00    +0.000 C 
ATOM     19  H   UNL     1       2.146  67.596   8.039  0.00  0.00    +0.000 HD
ATOM     20  N   UNL     1       2.084  67.880  11.207  0.00  0.00    +0.000 NA
ATOM     21  C   UNL     1       1.345  66.745  10.976  0.00  0.00    +0.000 C 
ENDROOT
TORSDOF 0
ENDMDL
MODEL 9
REMARK VINA RESULT:      -5.7     39.016     41.069
REMARK  Name = PKR_Inhibitor.pdbqt.pdb
REMARK  0 active torsions:
REMARK  status: ('A' for Active; 'I' for Inactive)
REMARK                            x       y       z     vdW  Elec       q    Type
REMARK                         _______ _______ _______ _____ _____    ______ ____
ROOT
ATOM      1  S   UNL     1     -10.897  17.611  30.755  0.00  0.00    +0.000 S 
ATOM      2  O   UNL     1      -9.540  22.339  27.716  0.00  0.00    +0.000 OA
ATOM      3  N   UNL     1      -8.293  21.599  29.560  0.00  0.00    +0.000 N 
ATOM      4  N   UNL     1      -9.224  17.194  32.703  0.00  0.00    +0.000 NA
ATOM      5  C   UNL     1      -9.459  19.733  30.167  0.00  0.00    +0.000 A 
ATOM      6  C   UNL     1      -8.342  20.553  30.469  0.00  0.00    +0.000 A 
ATOM      7  C   UNL     1     -10.129  20.343  28.984  0.00  0.00    +0.000 C 
ATOM      8  C   UNL     1      -9.627  18.666  30.984  0.00  0.00    +0.000 A 
ATOM      9  C   UNL     1      -9.328  21.560  28.625  0.00  0.00    +0.000 C 
ATOM     10  C   UNL     1      -8.811  18.340  32.046  0.00  0.00    +0.000 A 
ATOM     11  C   UNL     1      -7.447  20.328  31.512  0.00  0.00    +0.000 A 
ATOM     12  C   UNL     1     -11.185  19.968  28.335  0.00  0.00    +0.000 C 
ATOM     13  C   UNL     1      -7.708  19.188  32.306  0.00  0.00    +0.000 A 
ATOM     14  C   UNL     1     -10.306  16.737  32.106  0.00  0.00    +0.000 A 
ATOM     15  H   UNL     1      -7.591  22.326  29.554  0.00  0.00    +0.000 HD
ATOM     16  C   UNL     1     -12.328  19.626  27.576  0.00  0.00    +0.000 C 
ATOM     17  N   UNL     1     -12.793  20.327  26.498  0.00  0.00    +0.000 N 
ATOM     18  C   UNL     1     -13.909  19.686  26.037  0.00  0.00    +0.000 C 
ATOM     19  H   UNL     1     -12.390  21.168  26.108  0.00  0.00    +0.000 HD
ATOM     20  N   UNL     1     -14.181  18.620  26.757  0.00  0.00    +0.000 NA
ATOM     21  C   UNL     1     -13.201  18.573  27.720  0.00  0.00    +0.000 C 
ENDROOT
TORSDOF 0
ENDMDL
