MODEL 1
REMARK VINA RESULT:      -8.6      0.000      0.000
REMARK  Name = 
REMARK  14 active torsions:
REMARK  status: ('A' for Active; 'I' for Inactive)
REMARK    1  A    between atoms: O_1  and  C_14
REMARK    2  A    between atoms: O_1  and  C_15
REMARK    3  A    between atoms: O_4  and  C_16
REMARK    4  A    between atoms: O_5  and  C_18
REMARK    5  A    between atoms: O_6  and  C_26
REMARK    6  A    between atoms: O_7  and  C_29
REMARK    7  A    between atoms: O_8  and  C_35
REMARK    8  A    between atoms: O_9  and  C_36
REMARK    9  A    between atoms: O_10  and  C_39
REMARK   10  A    between atoms: O_11  and  C_40
REMARK   11  A    between atoms: O_12  and  C_41
REMARK   12  A    between atoms: O_13  and  C_43
REMARK   13  A    between atoms: C_14  and  C_20
REMARK   14  A    between atoms: C_17  and  C_24
REMARK                            x       y       z     vdW  Elec       q    Type
REMARK                         _______ _______ _______ _____ _____    ______ ____
ROOT
ATOM      1  O   UNL     1      -8.548  42.091  10.874  0.00  0.00    +0.000 OA
ATOM      2  C   UNL     1      -7.873  41.290  11.854  0.00  0.00    +0.000 C 
ATOM      3  C   UNL     1      -7.892  39.783  11.455  0.00  0.00    +0.000 C 
ATOM      4  C   UNL     1      -9.324  39.308  11.228  0.00  0.00    +0.000 C 
ATOM      5  C   UNL     1     -10.081  40.261  10.353  0.00  0.00    +0.000 A 
ATOM      6  C   UNL     1      -9.651  41.587  10.244  0.00  0.00    +0.000 A 
ATOM      7  C   UNL     1     -11.243  39.883   9.663  0.00  0.00    +0.000 A 
ATOM      8  C   UNL     1     -10.354  42.499   9.454  0.00  0.00    +0.000 A 
ATOM      9  C   UNL     1     -11.961  40.790   8.889  0.00  0.00    +0.000 A 
ATOM     10  C   UNL     1     -11.505  42.096   8.787  0.00  0.00    +0.000 A 
ENDROOT
BRANCH   2  11
ATOM     11  C   UNL     1      -8.424  41.491  13.278  0.00  0.00    +0.000 A 
ATOM     12  C   UNL     1      -9.153  42.656  13.610  0.00  0.00    +0.000 A 
ATOM     13  C   UNL     1      -8.233  40.520  14.284  0.00  0.00    +0.000 A 
ATOM     14  C   UNL     1      -9.650  42.830  14.898  0.00  0.00    +0.000 A 
ATOM     15  C   UNL     1      -8.725  40.711  15.579  0.00  0.00    +0.000 A 
ATOM     16  C   UNL     1      -9.422  41.867  15.875  0.00  0.00    +0.000 A 
BRANCH  14  17
ATOM     17  O   UNL     1     -10.377  43.928  15.261  0.00  0.00    +0.000 OA
ATOM     18  H   UNL     1     -10.090  44.233  16.145  0.00  0.00    +0.000 HD
ENDBRANCH  14  17
BRANCH  16  19
ATOM     19  O   UNL     1      -9.906  42.053  17.138  0.00  0.00    +0.000 OA
ATOM     20  H   UNL     1     -10.871  42.165  17.015  0.00  0.00    +0.000 HD
ENDBRANCH  16  19
ENDBRANCH   2  11
BRANCH   3  21
ATOM     21  O   UNL     1      -7.127  39.528  10.243  0.00  0.00    +0.000 OA
ATOM     22  H   UNL     1      -7.797  39.457   9.534  0.00  0.00    +0.000 HD
ENDBRANCH   3  21
BRANCH   4  23
ATOM     23  O   UNL     1      -9.306  38.008  10.614  0.00  0.00    +0.000 OA
ATOM     24  H   UNL     1     -10.069  37.540  11.021  0.00  0.00    +0.000 HD
ENDBRANCH   4  23
BRANCH   7  25
ATOM     25  O   UNL     1     -11.715  38.598   9.704  0.00  0.00    +0.000 OA
ATOM     26  H   UNL     1     -11.853  38.312   8.774  0.00  0.00    +0.000 HD
ENDBRANCH   7  25
BRANCH  10  27
ATOM     27  O   UNL     1     -12.165  43.023   8.036  0.00  0.00    +0.000 OA
ATOM     28  H   UNL     1     -13.092  43.051   8.327  0.00  0.00    +0.000 HD
ENDBRANCH  10  27
BRANCH   2  29
ATOM     29  O   UNL     1      -6.456  41.622  11.815  0.00  0.00    +0.000 OA
BRANCH  29  31
ATOM     30  O   UNL     1      -4.422  44.641  12.507  0.00  0.00    +0.000 OA
ATOM     31  C   UNL     1      -6.113  43.018  11.714  0.00  0.00    +0.000 C 
ATOM     32  C   UNL     1      -4.795  43.256  12.493  0.00  0.00    +0.000 C 
ATOM     33  C   UNL     1      -5.871  43.440  10.261  0.00  0.00    +0.000 C 
ATOM     34  C   UNL     1      -5.060  44.702  10.157  0.00  0.00    +0.000 A 
ATOM     35  C   UNL     1      -4.394  45.224  11.270  0.00  0.00    +0.000 A 
ATOM     36  C   UNL     1      -4.950  45.378   8.936  0.00  0.00    +0.000 A 
ATOM     37  C   UNL     1      -3.674  46.418  11.178  0.00  0.00    +0.000 A 
ATOM     38  C   UNL     1      -4.221  46.561   8.827  0.00  0.00    +0.000 A 
ATOM     39  C   UNL     1      -3.593  47.074   9.955  0.00  0.00    +0.000 A 
BRANCH  32  40
ATOM     40  C   UNL     1      -4.923  42.803  13.941  0.00  0.00    +0.000 A 
ATOM     41  C   UNL     1      -5.680  43.541  14.865  0.00  0.00    +0.000 A 
ATOM     42  C   UNL     1      -4.348  41.586  14.349  0.00  0.00    +0.000 A 
ATOM     43  C   UNL     1      -5.891  43.041  16.148  0.00  0.00    +0.000 A 
ATOM     44  C   UNL     1      -4.546  41.099  15.644  0.00  0.00    +0.000 A 
ATOM     45  C   UNL     1      -5.332  41.824  16.534  0.00  0.00    +0.000 A 
BRANCH  43  46
ATOM     46  O   UNL     1      -6.704  43.707  17.020  0.00  0.00    +0.000 OA
ATOM     47  H   UNL     1      -6.794  43.183  17.834  0.00  0.00    +0.000 HD
ENDBRANCH  43  46
BRANCH  45  48
ATOM     48  O   UNL     1      -5.592  41.337  17.783  0.00  0.00    +0.000 OA
ATOM     49  H   UNL     1      -5.649  40.368  17.741  0.00  0.00    +0.000 HD
ENDBRANCH  45  48
ENDBRANCH  32  40
BRANCH  36  50
ATOM     50  O   UNL     1      -5.579  44.856   7.840  0.00  0.00    +0.000 OA
ATOM     51  H   UNL     1      -5.535  45.502   7.115  0.00  0.00    +0.000 HD
ENDBRANCH  36  50
BRANCH  39  52
ATOM     52  O   UNL     1      -2.894  48.237   9.817  0.00  0.00    +0.000 OA
ATOM     53  H   UNL     1      -2.140  48.222  10.431  0.00  0.00    +0.000 HD
ENDBRANCH  39  52
ENDBRANCH  29  31
ENDBRANCH   2  29
TORSDOF 14
ENDMDL
MODEL 2
REMARK VINA RESULT:      -8.3      2.658      8.629
REMARK  Name = 
REMARK  14 active torsions:
REMARK  status: ('A' for Active; 'I' for Inactive)
REMARK    1  A    between atoms: O_1  and  C_14
REMARK    2  A    between atoms: O_1  and  C_15
REMARK    3  A    between atoms: O_4  and  C_16
REMARK    4  A    between atoms: O_5  and  C_18
REMARK    5  A    between atoms: O_6  and  C_26
REMARK    6  A    between atoms: O_7  and  C_29
REMARK    7  A    between atoms: O_8  and  C_35
REMARK    8  A    between atoms: O_9  and  C_36
REMARK    9  A    between atoms: O_10  and  C_39
REMARK   10  A    between atoms: O_11  and  C_40
REMARK   11  A    between atoms: O_12  and  C_41
REMARK   12  A    between atoms: O_13  and  C_43
REMARK   13  A    between atoms: C_14  and  C_20
REMARK   14  A    between atoms: C_17  and  C_24
REMARK                            x       y       z     vdW  Elec       q    Type
REMARK                         _______ _______ _______ _____ _____    ______ ____
ROOT
ATOM      1  O   UNL     1      -4.540  42.251  15.307  0.00  0.00    +0.000 OA
ATOM      2  C   UNL     1      -5.009  41.368  14.278  0.00  0.00    +0.000 C 
ATOM      3  C   UNL     1      -4.012  40.191  14.051  0.00  0.00    +0.000 C 
ATOM      4  C   UNL     1      -2.616  40.724  13.743  0.00  0.00    +0.000 C 
ATOM      5  C   UNL     1      -2.213  41.790  14.718  0.00  0.00    +0.000 A 
ATOM      6  C   UNL     1      -3.198  42.487  15.423  0.00  0.00    +0.000 A 
ATOM      7  C   UNL     1      -0.873  42.148  14.923  0.00  0.00    +0.000 A 
ATOM      8  C   UNL     1      -2.848  43.499  16.319  0.00  0.00    +0.000 A 
ATOM      9  C   UNL     1      -0.515  43.170  15.798  0.00  0.00    +0.000 A 
ATOM     10  C   UNL     1      -1.511  43.836  16.496  0.00  0.00    +0.000 A 
ENDROOT
BRANCH   2  11
ATOM     11  C   UNL     1      -5.313  42.096  12.955  0.00  0.00    +0.000 A 
ATOM     12  C   UNL     1      -5.604  41.365  11.781  0.00  0.00    +0.000 A 
ATOM     13  C   UNL     1      -5.326  43.505  12.878  0.00  0.00    +0.000 A 
ATOM     14  C   UNL     1      -5.881  42.029  10.590  0.00  0.00    +0.000 A 
ATOM     15  C   UNL     1      -5.592  44.163  11.673  0.00  0.00    +0.000 A 
ATOM     16  C   UNL     1      -5.860  43.418  10.539  0.00  0.00    +0.000 A 
BRANCH  14  17
ATOM     17  O   UNL     1      -6.188  41.366   9.436  0.00  0.00    +0.000 OA
ATOM     18  H   UNL     1      -5.706  41.773   8.687  0.00  0.00    +0.000 HD
ENDBRANCH  14  17
BRANCH  16  19
ATOM     19  O   UNL     1      -6.123  44.060   9.363  0.00  0.00    +0.000 OA
ATOM     20  H   UNL     1      -5.243  44.190   8.955  0.00  0.00    +0.000 HD
ENDBRANCH  16  19
ENDBRANCH   2  11
BRANCH   3  21
ATOM     21  O   UNL     1      -3.924  39.318  15.213  0.00  0.00    +0.000 OA
ATOM     22  H   UNL     1      -3.238  39.725  15.781  0.00  0.00    +0.000 HD
ENDBRANCH   3  21
BRANCH   4  23
ATOM     23  O   UNL     1      -1.668  39.644  13.798  0.00  0.00    +0.000 OA
ATOM     24  H   UNL     1      -2.226  38.840  13.895  0.00  0.00    +0.000 HD
ENDBRANCH   4  23
BRANCH   7  25
ATOM     25  O   UNL     1       0.150  41.498  14.285  0.00  0.00    +0.000 OA
ATOM     26  H   UNL     1       0.791  41.220  14.976  0.00  0.00    +0.000 HD
ENDBRANCH   7  25
BRANCH  10  27
ATOM     27  O   UNL     1      -1.217  44.839  17.373  0.00  0.00    +0.000 OA
ATOM     28  H   UNL     1      -0.306  44.713  17.688  0.00  0.00    +0.000 HD
ENDBRANCH  10  27
BRANCH   2  29
ATOM     29  O   UNL     1      -6.205  40.697  14.766  0.00  0.00    +0.000 OA
BRANCH  29  31
ATOM     30  O   UNL     1      -9.658  41.786  15.554  0.00  0.00    +0.000 OA
ATOM     31  C   UNL     1      -7.203  41.518  15.404  0.00  0.00    +0.000 C 
ATOM     32  C   UNL     1      -8.602  40.976  15.019  0.00  0.00    +0.000 C 
ATOM     33  C   UNL     1      -7.092  41.461  16.931  0.00  0.00    +0.000 C 
ATOM     34  C   UNL     1      -8.363  41.882  17.615  0.00  0.00    +0.000 A 
ATOM     35  C   UNL     1      -9.555  42.021  16.898  0.00  0.00    +0.000 A 
ATOM     36  C   UNL     1      -8.380  42.137  18.992  0.00  0.00    +0.000 A 
ATOM     37  C   UNL     1     -10.725  42.450  17.530  0.00  0.00    +0.000 A 
ATOM     38  C   UNL     1      -9.544  42.549  19.637  0.00  0.00    +0.000 A 
ATOM     39  C   UNL     1     -10.708  42.708  18.895  0.00  0.00    +0.000 A 
BRANCH  32  40
ATOM     40  C   UNL     1      -8.778  40.935  13.507  0.00  0.00    +0.000 A 
ATOM     41  C   UNL     1      -8.740  39.718  12.808  0.00  0.00    +0.000 A 
ATOM     42  C   UNL     1      -9.066  42.118  12.802  0.00  0.00    +0.000 A 
ATOM     43  C   UNL     1      -9.032  39.689  11.446  0.00  0.00    +0.000 A 
ATOM     44  C   UNL     1      -9.339  42.085  11.432  0.00  0.00    +0.000 A 
ATOM     45  C   UNL     1      -9.336  40.865  10.762  0.00  0.00    +0.000 A 
BRANCH  43  46
ATOM     46  O   UNL     1      -9.091  38.498  10.780  0.00  0.00    +0.000 OA
ATOM     47  H   UNL     1      -9.451  38.648   9.890  0.00  0.00    +0.000 HD
ENDBRANCH  43  46
BRANCH  45  48
ATOM     48  O   UNL     1      -9.662  40.801   9.438  0.00  0.00    +0.000 OA
ATOM     49  H   UNL     1     -10.438  41.362   9.275  0.00  0.00    +0.000 HD
ENDBRANCH  45  48
ENDBRANCH  32  40
BRANCH  36  50
ATOM     50  O   UNL     1      -7.222  41.977  19.700  0.00  0.00    +0.000 OA
ATOM     51  H   UNL     1      -6.476  42.286  19.159  0.00  0.00    +0.000 HD
ENDBRANCH  36  50
BRANCH  39  52
ATOM     52  O   UNL     1     -11.829  43.120  19.555  0.00  0.00    +0.000 OA
ATOM     53  H   UNL     1     -11.977  44.061  19.358  0.00  0.00    +0.000 HD
ENDBRANCH  39  52
ENDBRANCH  29  31
ENDBRANCH   2  29
TORSDOF 14
ENDMDL
MODEL 3
REMARK VINA RESULT:      -8.1      2.942      7.629
REMARK  Name = 
REMARK  14 active torsions:
REMARK  status: ('A' for Active; 'I' for Inactive)
REMARK    1  A    between atoms: O_1  and  C_14
REMARK    2  A    between atoms: O_1  and  C_15
REMARK    3  A    between atoms: O_4  and  C_16
REMARK    4  A    between atoms: O_5  and  C_18
REMARK    5  A    between atoms: O_6  and  C_26
REMARK    6  A    between atoms: O_7  and  C_29
REMARK    7  A    between atoms: O_8  and  C_35
REMARK    8  A    between atoms: O_9  and  C_36
REMARK    9  A    between atoms: O_10  and  C_39
REMARK   10  A    between atoms: O_11  and  C_40
REMARK   11  A    between atoms: O_12  and  C_41
REMARK   12  A    between atoms: O_13  and  C_43
REMARK   13  A    between atoms: C_14  and  C_20
REMARK   14  A    between atoms: C_17  and  C_24
REMARK                            x       y       z     vdW  Elec       q    Type
REMARK                         _______ _______ _______ _____ _____    ______ ____
ROOT
ATOM      1  O   UNL     1      -8.664  42.492  13.523  0.00  0.00    +0.000 OA
ATOM      2  C   UNL     1      -8.962  41.104  13.323  0.00  0.00    +0.000 C 
ATOM      3  C   UNL     1      -7.751  40.356  12.686  0.00  0.00    +0.000 C 
ATOM      4  C   UNL     1      -7.328  41.034  11.387  0.00  0.00    +0.000 C 
ATOM      5  C   UNL     1      -7.206  42.518  11.562  0.00  0.00    +0.000 A 
ATOM      6  C   UNL     1      -7.889  43.147  12.607  0.00  0.00    +0.000 A 
ATOM      7  C   UNL     1      -6.459  43.316  10.683  0.00  0.00    +0.000 A 
ATOM      8  C   UNL     1      -7.809  44.531  12.776  0.00  0.00    +0.000 A 
ATOM      9  C   UNL     1      -6.390  44.699  10.831  0.00  0.00    +0.000 A 
ATOM     10  C   UNL     1      -7.066  45.296  11.885  0.00  0.00    +0.000 A 
ENDROOT
BRANCH   2  11
ATOM     11  C   UNL     1     -10.246  40.877  12.502  0.00  0.00    +0.000 A 
ATOM     12  C   UNL     1     -10.664  39.569  12.167  0.00  0.00    +0.000 A 
ATOM     13  C   UNL     1     -11.045  41.958  12.074  0.00  0.00    +0.000 A 
ATOM     14  C   UNL     1     -11.826  39.372  11.427  0.00  0.00    +0.000 A 
ATOM     15  C   UNL     1     -12.202  41.750  11.319  0.00  0.00    +0.000 A 
ATOM     16  C   UNL     1     -12.578  40.459  10.997  0.00  0.00    +0.000 A 
BRANCH  14  17
ATOM     17  O   UNL     1     -12.282  38.127  11.098  0.00  0.00    +0.000 OA
ATOM     18  H   UNL     1     -11.540  37.489  11.125  0.00  0.00    +0.000 HD
ENDBRANCH  14  17
BRANCH  16  19
ATOM     19  O   UNL     1     -13.711  40.255  10.263  0.00  0.00    +0.000 OA
ATOM     20  H   UNL     1     -13.409  39.739   9.488  0.00  0.00    +0.000 HD
ENDBRANCH  16  19
ENDBRANCH   2  11
BRANCH   3  21
ATOM     21  O   UNL     1      -6.602  40.317  13.579  0.00  0.00    +0.000 OA
ATOM     22  H   UNL     1      -6.980  40.158  14.467  0.00  0.00    +0.000 HD
ENDBRANCH   3  21
BRANCH   4  23
ATOM     23  O   UNL     1      -6.065  40.499  10.957  0.00  0.00    +0.000 OA
ATOM     24  H   UNL     1      -6.304  39.855  10.253  0.00  0.00    +0.000 HD
ENDBRANCH   4  23
BRANCH   7  25
ATOM     25  O   UNL     1      -5.746  42.772   9.648  0.00  0.00    +0.000 OA
ATOM     26  H   UNL     1      -5.070  42.178  10.044  0.00  0.00    +0.000 HD
ENDBRANCH   7  25
BRANCH  10  27
ATOM     27  O   UNL     1      -7.025  46.646  12.082  0.00  0.00    +0.000 OA
ATOM     28  H   UNL     1      -6.989  47.082  11.214  0.00  0.00    +0.000 HD
ENDBRANCH  10  27
BRANCH   2  29
ATOM     29  O   UNL     1      -9.087  40.474  14.630  0.00  0.00    +0.000 OA
BRANCH  29  31
ATOM     30  O   UNL     1     -10.777  41.661  17.706  0.00  0.00    +0.000 OA
ATOM     31  C   UNL     1      -9.280  41.344  15.762  0.00  0.00    +0.000 C 
ATOM     32  C   UNL     1     -10.468  40.805  16.597  0.00  0.00    +0.000 C 
ATOM     33  C   UNL     1      -8.050  41.370  16.674  0.00  0.00    +0.000 C 
ATOM     34  C   UNL     1      -8.374  41.848  18.062  0.00  0.00    +0.000 A 
ATOM     35  C   UNL     1      -9.699  41.968  18.492  0.00  0.00    +0.000 A 
ATOM     36  C   UNL     1      -7.351  42.179  18.959  0.00  0.00    +0.000 A 
ATOM     37  C   UNL     1      -9.997  42.450  19.769  0.00  0.00    +0.000 A 
ATOM     38  C   UNL     1      -7.635  42.645  20.240  0.00  0.00    +0.000 A 
ATOM     39  C   UNL     1      -8.960  42.782  20.632  0.00  0.00    +0.000 A 
BRANCH  32  40
ATOM     40  C   UNL     1     -11.727  40.684  15.749  0.00  0.00    +0.000 A 
ATOM     41  C   UNL     1     -12.238  39.427  15.390  0.00  0.00    +0.000 A 
ATOM     42  C   UNL     1     -12.441  41.840  15.384  0.00  0.00    +0.000 A 
ATOM     43  C   UNL     1     -13.459  39.337  14.725  0.00  0.00    +0.000 A 
ATOM     44  C   UNL     1     -13.655  41.743  14.700  0.00  0.00    +0.000 A 
ATOM     45  C   UNL     1     -14.167  40.488  14.387  0.00  0.00    +0.000 A 
BRANCH  43  46
ATOM     46  O   UNL     1     -14.008  38.115  14.458  0.00  0.00    +0.000 OA
ATOM     47  H   UNL     1     -14.293  38.090  13.530  0.00  0.00    +0.000 HD
ENDBRANCH  43  46
BRANCH  45  48
ATOM     48  O   UNL     1     -15.382  40.368  13.775  0.00  0.00    +0.000 OA
ATOM     49  H   UNL     1     -15.265  39.918  12.923  0.00  0.00    +0.000 HD
ENDBRANCH  45  48
ENDBRANCH  32  40
BRANCH  36  50
ATOM     50  O   UNL     1      -6.054  42.040  18.550  0.00  0.00    +0.000 OA
ATOM     51  H   UNL     1      -5.987  42.304  17.617  0.00  0.00    +0.000 HD
ENDBRANCH  36  50
BRANCH  39  52
ATOM     52  O   UNL     1      -9.205  43.249  21.891  0.00  0.00    +0.000 OA
ATOM     53  H   UNL     1      -8.452  43.018  22.461  0.00  0.00    +0.000 HD
ENDBRANCH  39  52
ENDBRANCH  29  31
ENDBRANCH   2  29
TORSDOF 14
ENDMDL
MODEL 4
REMARK VINA RESULT:      -7.5      3.908      7.363
REMARK  Name = 
REMARK  14 active torsions:
REMARK  status: ('A' for Active; 'I' for Inactive)
REMARK    1  A    between atoms: O_1  and  C_14
REMARK    2  A    between atoms: O_1  and  C_15
REMARK    3  A    between atoms: O_4  and  C_16
REMARK    4  A    between atoms: O_5  and  C_18
REMARK    5  A    between atoms: O_6  and  C_26
REMARK    6  A    between atoms: O_7  and  C_29
REMARK    7  A    between atoms: O_8  and  C_35
REMARK    8  A    between atoms: O_9  and  C_36
REMARK    9  A    between atoms: O_10  and  C_39
REMARK   10  A    between atoms: O_11  and  C_40
REMARK   11  A    between atoms: O_12  and  C_41
REMARK   12  A    between atoms: O_13  and  C_43
REMARK   13  A    between atoms: C_14  and  C_20
REMARK   14  A    between atoms: C_17  and  C_24
REMARK                            x       y       z     vdW  Elec       q    Type
REMARK                         _______ _______ _______ _____ _____    ______ ____
ROOT
ATOM      1  O   UNL     1     -13.180  41.523   9.512  0.00  0.00    +0.000 OA
ATOM      2  C   UNL     1     -13.684  40.203   9.759  0.00  0.00    +0.000 C 
ATOM      3  C   UNL     1     -13.794  39.388   8.435  0.00  0.00    +0.000 C 
ATOM      4  C   UNL     1     -14.648  40.135   7.416  0.00  0.00    +0.000 C 
ATOM      5  C   UNL     1     -14.233  41.572   7.307  0.00  0.00    +0.000 A 
ATOM      6  C   UNL     1     -13.540  42.171   8.363  0.00  0.00    +0.000 A 
ATOM      7  C   UNL     1     -14.552  42.362   6.193  0.00  0.00    +0.000 A 
ATOM      8  C   UNL     1     -13.163  43.514   8.295  0.00  0.00    +0.000 A 
ATOM      9  C   UNL     1     -14.199  43.706   6.124  0.00  0.00    +0.000 A 
ATOM     10  C   UNL     1     -13.500  44.272   7.179  0.00  0.00    +0.000 A 
ENDROOT
BRANCH   2  11
ATOM     11  C   UNL     1     -15.024  40.205  10.520  0.00  0.00    +0.000 A 
ATOM     12  C   UNL     1     -15.705  38.994  10.780  0.00  0.00    +0.000 A 
ATOM     13  C   UNL     1     -15.601  41.404  10.990  0.00  0.00    +0.000 A 
ATOM     14  C   UNL     1     -16.914  39.003  11.469  0.00  0.00    +0.000 A 
ATOM     15  C   UNL     1     -16.823  41.403  11.669  0.00  0.00    +0.000 A 
ATOM     16  C   UNL     1     -17.470  40.203  11.896  0.00  0.00    +0.000 A 
BRANCH  14  17
ATOM     17  O   UNL     1     -17.598  37.857  11.762  0.00  0.00    +0.000 OA
ATOM     18  H   UNL     1     -18.150  38.001  12.558  0.00  0.00    +0.000 HD
ENDBRANCH  14  17
BRANCH  16  19
ATOM     19  O   UNL     1     -18.662  40.201  12.563  0.00  0.00    +0.000 OA
ATOM     20  H   UNL     1     -18.434  39.904  13.467  0.00  0.00    +0.000 HD
ENDBRANCH  16  19
ENDBRANCH   2  11
BRANCH   3  21
ATOM     21  O   UNL     1     -12.490  39.132   7.841  0.00  0.00    +0.000 OA
ATOM     22  H   UNL     1     -11.891  38.990   8.602  0.00  0.00    +0.000 HD
ENDBRANCH   3  21
BRANCH   4  23
ATOM     23  O   UNL     1     -14.522  39.504   6.130  0.00  0.00    +0.000 OA
ATOM     24  H   UNL     1     -14.742  40.218   5.490  0.00  0.00    +0.000 HD
ENDBRANCH   4  23
BRANCH   7  25
ATOM     25  O   UNL     1     -15.211  41.842   5.110  0.00  0.00    +0.000 OA
ATOM     26  H   UNL     1     -15.290  40.874   5.257  0.00  0.00    +0.000 HD
ENDBRANCH   7  25
BRANCH  10  27
ATOM     27  O   UNL     1     -13.121  45.583   7.161  0.00  0.00    +0.000 OA
ATOM     28  H   UNL     1     -12.161  45.627   7.309  0.00  0.00    +0.000 HD
ENDBRANCH  10  27
BRANCH   2  29
ATOM     29  O   UNL     1     -12.681  39.468  10.516  0.00  0.00    +0.000 OA
BRANCH  29  31
ATOM     30  O   UNL     1     -10.374  40.485  13.231  0.00  0.00    +0.000 OA
ATOM     31  C   UNL     1     -11.611  40.234  11.103  0.00  0.00    +0.000 C 
ATOM     32  C   UNL     1     -11.376  39.721  12.546  0.00  0.00    +0.000 C 
ATOM     33  C   UNL     1     -10.298  40.059  10.333  0.00  0.00    +0.000 C 
ATOM     34  C   UNL     1      -9.095  40.422  11.158  0.00  0.00    +0.000 A 
ATOM     35  C   UNL     1      -9.200  40.615  12.539  0.00  0.00    +0.000 A 
ATOM     36  C   UNL     1      -7.838  40.569  10.559  0.00  0.00    +0.000 A 
ATOM     37  C   UNL     1      -8.088  40.991  13.296  0.00  0.00    +0.000 A 
ATOM     38  C   UNL     1      -6.718  40.928  11.305  0.00  0.00    +0.000 A 
ATOM     39  C   UNL     1      -6.856  41.141  12.671  0.00  0.00    +0.000 A 
BRANCH  32  40
ATOM     40  C   UNL     1     -12.653  39.798  13.372  0.00  0.00    +0.000 A 
ATOM     41  C   UNL     1     -13.163  41.034  13.800  0.00  0.00    +0.000 A 
ATOM     42  C   UNL     1     -13.385  38.628  13.643  0.00  0.00    +0.000 A 
ATOM     43  C   UNL     1     -14.398  41.092  14.442  0.00  0.00    +0.000 A 
ATOM     44  C   UNL     1     -14.614  38.691  14.304  0.00  0.00    +0.000 A 
ATOM     45  C   UNL     1     -15.123  39.927  14.687  0.00  0.00    +0.000 A 
BRANCH  43  46
ATOM     46  O   UNL     1     -14.944  42.299  14.775  0.00  0.00    +0.000 OA
ATOM     47  H   UNL     1     -14.281  42.826  15.252  0.00  0.00    +0.000 HD
ENDBRANCH  43  46
BRANCH  45  48
ATOM     48  O   UNL     1     -16.351  40.018  15.277  0.00  0.00    +0.000 OA
ATOM     49  H   UNL     1     -16.765  40.859  15.021  0.00  0.00    +0.000 HD
ENDBRANCH  45  48
ENDBRANCH  32  40
BRANCH  36  50
ATOM     50  O   UNL     1      -7.728  40.357   9.213  0.00  0.00    +0.000 OA
ATOM     51  H   UNL     1      -8.407  39.719   8.938  0.00  0.00    +0.000 HD
ENDBRANCH  36  50
BRANCH  39  52
ATOM     52  O   UNL     1      -5.742  41.499  13.372  0.00  0.00    +0.000 OA
ATOM     53  H   UNL     1      -5.590  40.841  14.073  0.00  0.00    +0.000 HD
ENDBRANCH  39  52
ENDBRANCH  29  31
ENDBRANCH   2  29
TORSDOF 14
ENDMDL
MODEL 5
REMARK VINA RESULT:      -6.9     26.410     31.076
REMARK  Name = 
REMARK  14 active torsions:
REMARK  status: ('A' for Active; 'I' for Inactive)
REMARK    1  A    between atoms: O_1  and  C_14
REMARK    2  A    between atoms: O_1  and  C_15
REMARK    3  A    between atoms: O_4  and  C_16
REMARK    4  A    between atoms: O_5  and  C_18
REMARK    5  A    between atoms: O_6  and  C_26
REMARK    6  A    between atoms: O_7  and  C_29
REMARK    7  A    between atoms: O_8  and  C_35
REMARK    8  A    between atoms: O_9  and  C_36
REMARK    9  A    between atoms: O_10  and  C_39
REMARK   10  A    between atoms: O_11  and  C_40
REMARK   11  A    between atoms: O_12  and  C_41
REMARK   12  A    between atoms: O_13  and  C_43
REMARK   13  A    between atoms: C_14  and  C_20
REMARK   14  A    between atoms: C_17  and  C_24
REMARK                            x       y       z     vdW  Elec       q    Type
REMARK                         _______ _______ _______ _____ _____    ______ ____
ROOT
ATOM      1  O   UNL     1       6.911  55.795  -8.799  0.00  0.00    +0.000 OA
ATOM      2  C   UNL     1       8.102  56.594  -8.807  0.00  0.00    +0.000 C 
ATOM      3  C   UNL     1       8.312  57.303  -7.435  0.00  0.00    +0.000 C 
ATOM      4  C   UNL     1       7.082  58.129  -7.067  0.00  0.00    +0.000 C 
ATOM      5  C   UNL     1       5.821  57.338  -7.248  0.00  0.00    +0.000 A 
ATOM      6  C   UNL     1       5.817  56.236  -8.108  0.00  0.00    +0.000 A 
ATOM      7  C   UNL     1       4.620  57.688  -6.615  0.00  0.00    +0.000 A 
ATOM      8  C   UNL     1       4.649  55.498  -8.310  0.00  0.00    +0.000 A 
ATOM      9  C   UNL     1       3.446  56.972  -6.826  0.00  0.00    +0.000 A 
ATOM     10  C   UNL     1       3.472  55.874  -7.673  0.00  0.00    +0.000 A 
ENDROOT
BRANCH   2  11
ATOM     11  C   UNL     1       8.137  57.610  -9.965  0.00  0.00    +0.000 A 
ATOM     12  C   UNL     1       7.126  57.610 -10.953  0.00  0.00    +0.000 A 
ATOM     13  C   UNL     1       9.162  58.574 -10.066  0.00  0.00    +0.000 A 
ATOM     14  C   UNL     1       7.162  58.532 -11.994  0.00  0.00    +0.000 A 
ATOM     15  C   UNL     1       9.197  59.487 -11.124  0.00  0.00    +0.000 A 
ATOM     16  C   UNL     1       8.200  59.453 -12.082  0.00  0.00    +0.000 A 
BRANCH  14  17
ATOM     17  O   UNL     1       6.197  58.585 -12.960  0.00  0.00    +0.000 OA
ATOM     18  H   UNL     1       6.277  59.425 -13.456  0.00  0.00    +0.000 HD
ENDBRANCH  14  17
BRANCH  16  19
ATOM     19  O   UNL     1       8.231  60.347 -13.113  0.00  0.00    +0.000 OA
ATOM     20  H   UNL     1       8.474  59.809 -13.894  0.00  0.00    +0.000 HD
ENDBRANCH  16  19
ENDBRANCH   2  11
BRANCH   3  21
ATOM     21  O   UNL     1       8.564  56.353  -6.361  0.00  0.00    +0.000 OA
ATOM     22  H   UNL     1       8.443  55.473  -6.772  0.00  0.00    +0.000 HD
ENDBRANCH   3  21
BRANCH   4  23
ATOM     23  O   UNL     1       7.184  58.556  -5.698  0.00  0.00    +0.000 OA
ATOM     24  H   UNL     1       6.264  58.805  -5.456  0.00  0.00    +0.000 HD
ENDBRANCH   4  23
BRANCH   7  25
ATOM     25  O   UNL     1       4.549  58.742  -5.743  0.00  0.00    +0.000 OA
ATOM     26  H   UNL     1       3.729  59.239  -5.956  0.00  0.00    +0.000 HD
ENDBRANCH   7  25
BRANCH  10  27
ATOM     27  O   UNL     1       2.353  55.131  -7.909  0.00  0.00    +0.000 OA
ATOM     28  H   UNL     1       2.191  54.565  -7.135  0.00  0.00    +0.000 HD
ENDBRANCH  10  27
BRANCH   2  29
ATOM     29  O   UNL     1       9.248  55.700  -8.893  0.00  0.00    +0.000 OA
BRANCH  29  31
ATOM     30  O   UNL     1      11.466  54.147 -11.422  0.00  0.00    +0.000 OA
ATOM     31  C   UNL     1       9.588  55.193 -10.199  0.00  0.00    +0.000 C 
ATOM     32  C   UNL     1      11.020  54.606 -10.139  0.00  0.00    +0.000 C 
ATOM     33  C   UNL     1       8.646  54.065 -10.632  0.00  0.00    +0.000 C 
ATOM     34  C   UNL     1       9.238  53.208 -11.716  0.00  0.00    +0.000 A 
ATOM     35  C   UNL     1      10.593  53.298 -12.046  0.00  0.00    +0.000 A 
ATOM     36  C   UNL     1       8.441  52.292 -12.415  0.00  0.00    +0.000 A 
ATOM     37  C   UNL     1      11.131  52.527 -13.080  0.00  0.00    +0.000 A 
ATOM     38  C   UNL     1       8.969  51.506 -13.436  0.00  0.00    +0.000 A 
ATOM     39  C   UNL     1      10.313  51.636 -13.764  0.00  0.00    +0.000 A 
BRANCH  32  40
ATOM     40  C   UNL     1      12.020  55.645  -9.652  0.00  0.00    +0.000 A 
ATOM     41  C   UNL     1      12.659  55.507  -8.409  0.00  0.00    +0.000 A 
ATOM     42  C   UNL     1      12.378  56.720 -10.486  0.00  0.00    +0.000 A 
ATOM     43  C   UNL     1      13.664  56.399  -8.041  0.00  0.00    +0.000 A 
ATOM     44  C   UNL     1      13.374  57.622 -10.102  0.00  0.00    +0.000 A 
ATOM     45  C   UNL     1      14.024  57.447  -8.885  0.00  0.00    +0.000 A 
BRANCH  43  46
ATOM     46  O   UNL     1      14.354  56.213  -6.877  0.00  0.00    +0.000 OA
ATOM     47  H   UNL     1      14.277  55.283  -6.606  0.00  0.00    +0.000 HD
ENDBRANCH  43  46
BRANCH  45  48
ATOM     48  O   UNL     1      15.043  58.278  -8.518  0.00  0.00    +0.000 OA
ATOM     49  H   UNL     1      14.886  58.593  -7.613  0.00  0.00    +0.000 HD
ENDBRANCH  45  48
ENDBRANCH  32  40
BRANCH  36  50
ATOM     50  O   UNL     1       7.121  52.183 -12.077  0.00  0.00    +0.000 OA
ATOM     51  H   UNL     1       6.683  53.036 -12.240  0.00  0.00    +0.000 HD
ENDBRANCH  36  50
BRANCH  39  52
ATOM     52  O   UNL     1      10.798  50.858 -14.774  0.00  0.00    +0.000 OA
ATOM     53  H   UNL     1      11.686  50.547 -14.530  0.00  0.00    +0.000 HD
ENDBRANCH  39  52
ENDBRANCH  29  31
ENDBRANCH   2  29
TORSDOF 14
ENDMDL
MODEL 6
REMARK VINA RESULT:      -6.9     18.444     23.563
REMARK  Name = 
REMARK  14 active torsions:
REMARK  status: ('A' for Active; 'I' for Inactive)
REMARK    1  A    between atoms: O_1  and  C_14
REMARK    2  A    between atoms: O_1  and  C_15
REMARK    3  A    between atoms: O_4  and  C_16
REMARK    4  A    between atoms: O_5  and  C_18
REMARK    5  A    between atoms: O_6  and  C_26
REMARK    6  A    between atoms: O_7  and  C_29
REMARK    7  A    between atoms: O_8  and  C_35
REMARK    8  A    between atoms: O_9  and  C_36
REMARK    9  A    between atoms: O_10  and  C_39
REMARK   10  A    between atoms: O_11  and  C_40
REMARK   11  A    between atoms: O_12  and  C_41
REMARK   12  A    between atoms: O_13  and  C_43
REMARK   13  A    between atoms: C_14  and  C_20
REMARK   14  A    between atoms: C_17  and  C_24
REMARK                            x       y       z     vdW  Elec       q    Type
REMARK                         _______ _______ _______ _____ _____    ______ ____
ROOT
ATOM      1  O   UNL     1      15.704  49.794  10.309  0.00  0.00    +0.000 OA
ATOM      2  C   UNL     1      15.386  48.697  11.176  0.00  0.00    +0.000 C 
ATOM      3  C   UNL     1      16.679  48.054  11.764  0.00  0.00    +0.000 C 
ATOM      4  C   UNL     1      17.623  47.632  10.643  0.00  0.00    +0.000 C 
ATOM      5  C   UNL     1      17.797  48.728   9.635  0.00  0.00    +0.000 A 
ATOM      6  C   UNL     1      16.823  49.726   9.528  0.00  0.00    +0.000 A 
ATOM      7  C   UNL     1      18.889  48.771   8.756  0.00  0.00    +0.000 A 
ATOM      8  C   UNL     1      16.952  50.744   8.581  0.00  0.00    +0.000 A 
ATOM      9  C   UNL     1      19.015  49.770   7.795  0.00  0.00    +0.000 A 
ATOM     10  C   UNL     1      18.042  50.756   7.719  0.00  0.00    +0.000 A 
ENDROOT
BRANCH   2  11
ATOM     11  C   UNL     1      14.500  47.634  10.499  0.00  0.00    +0.000 A 
ATOM     12  C   UNL     1      14.421  46.323  11.021  0.00  0.00    +0.000 A 
ATOM     13  C   UNL     1      13.733  47.938   9.354  0.00  0.00    +0.000 A 
ATOM     14  C   UNL     1      13.617  45.369  10.406  0.00  0.00    +0.000 A 
ATOM     15  C   UNL     1      12.939  46.968   8.735  0.00  0.00    +0.000 A 
ATOM     16  C   UNL     1      12.894  45.691   9.263  0.00  0.00    +0.000 A 
BRANCH  14  17
ATOM     17  O   UNL     1      13.493  44.096  10.886  0.00  0.00    +0.000 OA
ATOM     18  H   UNL     1      14.355  43.637  10.825  0.00  0.00    +0.000 HD
ENDBRANCH  14  17
BRANCH  16  19
ATOM     19  O   UNL     1      12.115  44.744   8.662  0.00  0.00    +0.000 OA
ATOM     20  H   UNL     1      12.652  44.434   7.904  0.00  0.00    +0.000 HD
ENDBRANCH  16  19
ENDBRANCH   2  11
BRANCH   3  21
ATOM     21  O   UNL     1      17.392  48.968  12.645  0.00  0.00    +0.000 OA
ATOM     22  H   UNL     1      16.700  49.560  13.005  0.00  0.00    +0.000 HD
ENDBRANCH   3  21
BRANCH   4  23
ATOM     23  O   UNL     1      18.904  47.289  11.200  0.00  0.00    +0.000 OA
ATOM     24  H   UNL     1      18.765  46.397  11.590  0.00  0.00    +0.000 HD
ENDBRANCH   4  23
BRANCH   7  25
ATOM     25  O   UNL     1      19.893  47.842   8.813  0.00  0.00    +0.000 OA
ATOM     26  H   UNL     1      20.630  48.244   9.325  0.00  0.00    +0.000 HD
ENDBRANCH   7  25
BRANCH  10  27
ATOM     27  O   UNL     1      18.120  51.763   6.803  0.00  0.00    +0.000 OA
ATOM     28  H   UNL     1      18.030  52.611   7.270  0.00  0.00    +0.000 HD
ENDBRANCH  10  27
BRANCH   2  29
ATOM     29  O   UNL     1      14.717  49.228  12.355  0.00  0.00    +0.000 OA
BRANCH  29  31
ATOM     30  O   UNL     1      11.672  51.281  12.850  0.00  0.00    +0.000 OA
ATOM     31  C   UNL     1      13.873  50.381  12.166  0.00  0.00    +0.000 C 
ATOM     32  C   UNL     1      12.605  50.207  13.039  0.00  0.00    +0.000 C 
ATOM     33  C   UNL     1      14.567  51.671  12.614  0.00  0.00    +0.000 C 
ATOM     34  C   UNL     1      13.591  52.781  12.891  0.00  0.00    +0.000 A 
ATOM     35  C   UNL     1      12.219  52.527  12.989  0.00  0.00    +0.000 A 
ATOM     36  C   UNL     1      14.039  54.096  13.065  0.00  0.00    +0.000 A 
ATOM     37  C   UNL     1      11.313  53.567  13.208  0.00  0.00    +0.000 A 
ATOM     38  C   UNL     1      13.146  55.139  13.300  0.00  0.00    +0.000 A 
ATOM     39  C   UNL     1      11.786  54.864  13.364  0.00  0.00    +0.000 A 
BRANCH  32  40
ATOM     40  C   UNL     1      11.881  48.909  12.705  0.00  0.00    +0.000 A 
ATOM     41  C   UNL     1      11.821  47.857  13.632  0.00  0.00    +0.000 A 
ATOM     42  C   UNL     1      11.190  48.784  11.486  0.00  0.00    +0.000 A 
ATOM     43  C   UNL     1      11.047  46.732  13.358  0.00  0.00    +0.000 A 
ATOM     44  C   UNL     1      10.431  47.645  11.209  0.00  0.00    +0.000 A 
ATOM     45  C   UNL     1      10.350  46.629  12.155  0.00  0.00    +0.000 A 
BRANCH  43  46
ATOM     46  O   UNL     1      10.907  45.748  14.295  0.00  0.00    +0.000 OA
ATOM     47  H   UNL     1      10.485  46.121  15.087  0.00  0.00    +0.000 HD
ENDBRANCH  43  46
BRANCH  45  48
ATOM     48  O   UNL     1       9.563  45.535  11.932  0.00  0.00    +0.000 OA
ATOM     49  H   UNL     1       8.852  45.515  12.594  0.00  0.00    +0.000 HD
ENDBRANCH  45  48
ENDBRANCH  32  40
BRANCH  36  50
ATOM     50  O   UNL     1      15.381  54.344  12.995  0.00  0.00    +0.000 OA
ATOM     51  H   UNL     1      15.752  54.329  13.894  0.00  0.00    +0.000 HD
ENDBRANCH  36  50
BRANCH  39  52
ATOM     52  O   UNL     1      10.937  55.908  13.588  0.00  0.00    +0.000 OA
ATOM     53  H   UNL     1      10.153  55.577  14.059  0.00  0.00    +0.000 HD
ENDBRANCH  39  52
ENDBRANCH  29  31
ENDBRANCH   2  29
TORSDOF 14
ENDMDL
MODEL 7
REMARK VINA RESULT:      -6.9     19.747     23.956
REMARK  Name = 
REMARK  14 active torsions:
REMARK  status: ('A' for Active; 'I' for Inactive)
REMARK    1  A    between atoms: O_1  and  C_14
REMARK    2  A    between atoms: O_1  and  C_15
REMARK    3  A    between atoms: O_4  and  C_16
REMARK    4  A    between atoms: O_5  and  C_18
REMARK    5  A    between atoms: O_6  and  C_26
REMARK    6  A    between atoms: O_7  and  C_29
REMARK    7  A    between atoms: O_8  and  C_35
REMARK    8  A    between atoms: O_9  and  C_36
REMARK    9  A    between atoms: O_10  and  C_39
REMARK   10  A    between atoms: O_11  and  C_40
REMARK   11  A    between atoms: O_12  and  C_41
REMARK   12  A    between atoms: O_13  and  C_43
REMARK   13  A    between atoms: C_14  and  C_20
REMARK   14  A    between atoms: C_17  and  C_24
REMARK                            x       y       z     vdW  Elec       q    Type
REMARK                         _______ _______ _______ _____ _____    ______ ____
ROOT
ATOM      1  O   UNL     1      16.344  48.365   8.548  0.00  0.00    +0.000 OA
ATOM      2  C   UNL     1      16.042  47.639   9.748  0.00  0.00    +0.000 C 
ATOM      3  C   UNL     1      17.141  46.576  10.053  0.00  0.00    +0.000 C 
ATOM      4  C   UNL     1      17.327  45.643   8.861  0.00  0.00    +0.000 C 
ATOM      5  C   UNL     1      17.449  46.412   7.580  0.00  0.00    +0.000 A 
ATOM      6  C   UNL     1      16.941  47.712   7.506  0.00  0.00    +0.000 A 
ATOM      7  C   UNL     1      18.022  45.859   6.425  0.00  0.00    +0.000 A 
ATOM      8  C   UNL     1      17.022  48.441   6.317  0.00  0.00    +0.000 A 
ATOM      9  C   UNL     1      18.089  46.569   5.230  0.00  0.00    +0.000 A 
ATOM     10  C   UNL     1      17.590  47.862   5.188  0.00  0.00    +0.000 A 
ENDROOT
BRANCH   2  11
ATOM     11  C   UNL     1      14.643  46.995   9.725  0.00  0.00    +0.000 A 
ATOM     12  C   UNL     1      13.542  47.686   9.171  0.00  0.00    +0.000 A 
ATOM     13  C   UNL     1      14.422  45.699  10.238  0.00  0.00    +0.000 A 
ATOM     14  C   UNL     1      12.281  47.097   9.151  0.00  0.00    +0.000 A 
ATOM     15  C   UNL     1      13.149  45.122  10.226  0.00  0.00    +0.000 A 
ATOM     16  C   UNL     1      12.089  45.830   9.689  0.00  0.00    +0.000 A 
BRANCH  14  17
ATOM     17  O   UNL     1      11.191  47.717   8.608  0.00  0.00    +0.000 OA
ATOM     18  H   UNL     1      10.914  48.457   9.186  0.00  0.00    +0.000 HD
ENDBRANCH  14  17
BRANCH  16  19
ATOM     19  O   UNL     1      10.846  45.265   9.673  0.00  0.00    +0.000 OA
ATOM     20  H   UNL     1      10.711  44.950  10.590  0.00  0.00    +0.000 HD
ENDBRANCH  16  19
ENDBRANCH   2  11
BRANCH   3  21
ATOM     21  O   UNL     1      18.426  47.190  10.358  0.00  0.00    +0.000 OA
ATOM     22  H   UNL     1      18.214  47.922  10.972  0.00  0.00    +0.000 HD
ENDBRANCH   3  21
BRANCH   4  23
ATOM     23  O   UNL     1      18.509  44.847   9.054  0.00  0.00    +0.000 OA
ATOM     24  H   UNL     1      18.198  44.083   9.588  0.00  0.00    +0.000 HD
ENDBRANCH   4  23
BRANCH   7  25
ATOM     25  O   UNL     1      18.559  44.599   6.424  0.00  0.00    +0.000 OA
ATOM     26  H   UNL     1      19.067  44.502   5.588  0.00  0.00    +0.000 HD
ENDBRANCH   7  25
BRANCH  10  27
ATOM     27  O   UNL     1      17.638  48.606   4.045  0.00  0.00    +0.000 OA
ATOM     28  H   UNL     1      17.627  49.547   4.291  0.00  0.00    +0.000 HD
ENDBRANCH  10  27
BRANCH   2  29
ATOM     29  O   UNL     1      16.151  48.556  10.873  0.00  0.00    +0.000 OA
BRANCH  29  31
ATOM     30  O   UNL     1      14.093  51.450  11.932  0.00  0.00    +0.000 OA
ATOM     31  C   UNL     1      15.547  49.856  10.721  0.00  0.00    +0.000 C 
ATOM     32  C   UNL     1      14.790  50.200  12.028  0.00  0.00    +0.000 C 
ATOM     33  C   UNL     1      16.598  50.948  10.496  0.00  0.00    +0.000 C 
ATOM     34  C   UNL     1      16.076  52.321  10.817  0.00  0.00    +0.000 A 
ATOM     35  C   UNL     1      14.870  52.492  11.504  0.00  0.00    +0.000 A 
ATOM     36  C   UNL     1      16.795  53.462  10.439  0.00  0.00    +0.000 A 
ATOM     37  C   UNL     1      14.370  53.769  11.766  0.00  0.00    +0.000 A 
ATOM     38  C   UNL     1      16.315  54.741  10.709  0.00  0.00    +0.000 A 
ATOM     39  C   UNL     1      15.100  54.883  11.367  0.00  0.00    +0.000 A 
BRANCH  32  40
ATOM     40  C   UNL     1      13.763  49.128  12.368  0.00  0.00    +0.000 A 
ATOM     41  C   UNL     1      14.145  47.936  13.001  0.00  0.00    +0.000 A 
ATOM     42  C   UNL     1      12.398  49.362  12.121  0.00  0.00    +0.000 A 
ATOM     43  C   UNL     1      13.175  47.028  13.419  0.00  0.00    +0.000 A 
ATOM     44  C   UNL     1      11.430  48.439  12.525  0.00  0.00    +0.000 A 
ATOM     45  C   UNL     1      11.824  47.280  13.188  0.00  0.00    +0.000 A 
BRANCH  43  46
ATOM     46  O   UNL     1      13.533  45.912  14.120  0.00  0.00    +0.000 OA
ATOM     47  H   UNL     1      14.256  45.461  13.652  0.00  0.00    +0.000 HD
ENDBRANCH  43  46
BRANCH  45  48
ATOM     48  O   UNL     1      10.892  46.394  13.647  0.00  0.00    +0.000 OA
ATOM     49  H   UNL     1      10.726  45.725  12.963  0.00  0.00    +0.000 HD
ENDBRANCH  45  48
ENDBRANCH  32  40
BRANCH  36  50
ATOM     50  O   UNL     1      17.986  53.298   9.790  0.00  0.00    +0.000 OA
ATOM     51  H   UNL     1      18.580  54.030  10.031  0.00  0.00    +0.000 HD
ENDBRANCH  36  50
BRANCH  39  52
ATOM     52  O   UNL     1      14.653  56.149  11.609  0.00  0.00    +0.000 OA
ATOM     53  H   UNL     1      15.405  56.695  11.898  0.00  0.00    +0.000 HD
ENDBRANCH  39  52
ENDBRANCH  29  31
ENDBRANCH   2  29
TORSDOF 14
ENDMDL
MODEL 8
REMARK VINA RESULT:      -6.8     22.464     25.047
REMARK  Name = 
REMARK  14 active torsions:
REMARK  status: ('A' for Active; 'I' for Inactive)
REMARK    1  A    between atoms: O_1  and  C_14
REMARK    2  A    between atoms: O_1  and  C_15
REMARK    3  A    between atoms: O_4  and  C_16
REMARK    4  A    between atoms: O_5  and  C_18
REMARK    5  A    between atoms: O_6  and  C_26
REMARK    6  A    between atoms: O_7  and  C_29
REMARK    7  A    between atoms: O_8  and  C_35
REMARK    8  A    between atoms: O_9  and  C_36
REMARK    9  A    between atoms: O_10  and  C_39
REMARK   10  A    between atoms: O_11  and  C_40
REMARK   11  A    between atoms: O_12  and  C_41
REMARK   12  A    between atoms: O_13  and  C_43
REMARK   13  A    between atoms: C_14  and  C_20
REMARK   14  A    between atoms: C_17  and  C_24
REMARK                            x       y       z     vdW  Elec       q    Type
REMARK                         _______ _______ _______ _____ _____    ______ ____
ROOT
ATOM      1  O   UNL     1      -0.012  20.633   5.106  0.00  0.00    +0.000 OA
ATOM      2  C   UNL     1       0.439  19.314   5.441  0.00  0.00    +0.000 C 
ATOM      3  C   UNL     1      -0.681  18.258   5.195  0.00  0.00    +0.000 C 
ATOM      4  C   UNL     1      -1.946  18.632   5.961  0.00  0.00    +0.000 C 
ATOM      5  C   UNL     1      -2.301  20.074   5.754  0.00  0.00    +0.000 A 
ATOM      6  C   UNL     1      -1.312  20.976   5.353  0.00  0.00    +0.000 A 
ATOM      7  C   UNL     1      -3.593  20.569   5.989  0.00  0.00    +0.000 A 
ATOM      8  C   UNL     1      -1.613  22.329   5.176  0.00  0.00    +0.000 A 
ATOM      9  C   UNL     1      -3.898  21.918   5.836  0.00  0.00    +0.000 A 
ATOM     10  C   UNL     1      -2.901  22.790   5.424  0.00  0.00    +0.000 A 
ENDROOT
BRANCH   2  11
ATOM     11  C   UNL     1       0.987  19.213   6.878  0.00  0.00    +0.000 A 
ATOM     12  C   UNL     1       0.865  20.300   7.772  0.00  0.00    +0.000 A 
ATOM     13  C   UNL     1       1.609  18.036   7.346  0.00  0.00    +0.000 A 
ATOM     14  C   UNL     1       1.359  20.201   9.069  0.00  0.00    +0.000 A 
ATOM     15  C   UNL     1       2.115  17.952   8.646  0.00  0.00    +0.000 A 
ATOM     16  C   UNL     1       1.991  19.038   9.493  0.00  0.00    +0.000 A 
BRANCH  14  17
ATOM     17  O   UNL     1       1.246  21.217   9.976  0.00  0.00    +0.000 OA
ATOM     18  H   UNL     1       2.120  21.394  10.379  0.00  0.00    +0.000 HD
ENDBRANCH  14  17
BRANCH  16  19
ATOM     19  O   UNL     1       2.482  18.955  10.765  0.00  0.00    +0.000 OA
ATOM     20  H   UNL     1       1.765  18.526  11.274  0.00  0.00    +0.000 HD
ENDBRANCH  16  19
ENDBRANCH   2  11
BRANCH   3  21
ATOM     21  O   UNL     1      -1.018  18.137   3.784  0.00  0.00    +0.000 OA
ATOM     22  H   UNL     1      -1.878  18.596   3.691  0.00  0.00    +0.000 HD
ENDBRANCH   3  21
BRANCH   4  23
ATOM     23  O   UNL     1      -3.036  17.805   5.520  0.00  0.00    +0.000 OA
ATOM     24  H   UNL     1      -3.398  17.423   6.351  0.00  0.00    +0.000 HD
ENDBRANCH   4  23
BRANCH   7  25
ATOM     25  O   UNL     1      -4.619  19.744   6.364  0.00  0.00    +0.000 OA
ATOM     26  H   UNL     1      -5.345  19.872   5.714  0.00  0.00    +0.000 HD
ENDBRANCH   7  25
BRANCH  10  27
ATOM     27  O   UNL     1      -3.147  24.120   5.249  0.00  0.00    +0.000 OA
ATOM     28  H   UNL     1      -2.925  24.584   6.073  0.00  0.00    +0.000 HD
ENDBRANCH  10  27
BRANCH   2  29
ATOM     29  O   UNL     1       1.469  18.929   4.486  0.00  0.00    +0.000 OA
BRANCH  29  31
ATOM     30  O   UNL     1       3.883  21.119   2.723  0.00  0.00    +0.000 OA
ATOM     31  C   UNL     1       1.870  19.921   3.520  0.00  0.00    +0.000 C 
ATOM     32  C   UNL     1       3.408  20.090   3.603  0.00  0.00    +0.000 C 
ATOM     33  C   UNL     1       1.531  19.489   2.090  0.00  0.00    +0.000 C 
ATOM     34  C   UNL     1       2.342  20.227   1.061  0.00  0.00    +0.000 A 
ATOM     35  C   UNL     1       3.453  20.990   1.430  0.00  0.00    +0.000 A 
ATOM     36  C   UNL     1       2.003  20.157  -0.296  0.00  0.00    +0.000 A 
ATOM     37  C   UNL     1       4.181  21.705   0.476  0.00  0.00    +0.000 A 
ATOM     38  C   UNL     1       2.730  20.852  -1.260  0.00  0.00    +0.000 A 
ATOM     39  C   UNL     1       3.812  21.626  -0.862  0.00  0.00    +0.000 A 
BRANCH  32  40
ATOM     40  C   UNL     1       3.846  20.458   5.014  0.00  0.00    +0.000 A 
ATOM     41  C   UNL     1       3.500  21.696   5.578  0.00  0.00    +0.000 A 
ATOM     42  C   UNL     1       4.535  19.518   5.802  0.00  0.00    +0.000 A 
ATOM     43  C   UNL     1       3.798  21.960   6.913  0.00  0.00    +0.000 A 
ATOM     44  C   UNL     1       4.848  19.796   7.135  0.00  0.00    +0.000 A 
ATOM     45  C   UNL     1       4.463  21.013   7.690  0.00  0.00    +0.000 A 
BRANCH  43  46
ATOM     46  O   UNL     1       3.381  23.123   7.494  0.00  0.00    +0.000 OA
ATOM     47  H   UNL     1       3.435  23.034   8.460  0.00  0.00    +0.000 HD
ENDBRANCH  43  46
BRANCH  45  48
ATOM     48  O   UNL     1       4.703  21.280   9.007  0.00  0.00    +0.000 OA
ATOM     49  H   UNL     1       4.869  20.446   9.476  0.00  0.00    +0.000 HD
ENDBRANCH  45  48
ENDBRANCH  32  40
BRANCH  36  50
ATOM     50  O   UNL     1       0.932  19.391  -0.664  0.00  0.00    +0.000 OA
ATOM     51  H   UNL     1       0.118  19.906  -0.536  0.00  0.00    +0.000 HD
ENDBRANCH  36  50
BRANCH  39  52
ATOM     52  O   UNL     1       4.499  22.301  -1.829  0.00  0.00    +0.000 OA
ATOM     53  H   UNL     1       4.602  21.719  -2.602  0.00  0.00    +0.000 HD
ENDBRANCH  39  52
ENDBRANCH  29  31
ENDBRANCH   2  29
TORSDOF 14
ENDMDL
MODEL 9
REMARK VINA RESULT:      -6.6     22.781     26.233
REMARK  Name = 
REMARK  14 active torsions:
REMARK  status: ('A' for Active; 'I' for Inactive)
REMARK    1  A    between atoms: O_1  and  C_14
REMARK    2  A    between atoms: O_1  and  C_15
REMARK    3  A    between atoms: O_4  and  C_16
REMARK    4  A    between atoms: O_5  and  C_18
REMARK    5  A    between atoms: O_6  and  C_26
REMARK    6  A    between atoms: O_7  and  C_29
REMARK    7  A    between atoms: O_8  and  C_35
REMARK    8  A    between atoms: O_9  and  C_36
REMARK    9  A    between atoms: O_10  and  C_39
REMARK   10  A    between atoms: O_11  and  C_40
REMARK   11  A    between atoms: O_12  and  C_41
REMARK   12  A    between atoms: O_13  and  C_43
REMARK   13  A    between atoms: C_14  and  C_20
REMARK   14  A    between atoms: C_17  and  C_24
REMARK                            x       y       z     vdW  Elec       q    Type
REMARK                         _______ _______ _______ _____ _____    ______ ____
ROOT
ATOM      1  O   UNL     1       1.132  19.666   6.232  0.00  0.00    +0.000 OA
ATOM      2  C   UNL     1       1.399  18.818   5.106  0.00  0.00    +0.000 C 
ATOM      3  C   UNL     1       1.413  17.317   5.525  0.00  0.00    +0.000 C 
ATOM      4  C   UNL     1       2.413  17.086   6.654  0.00  0.00    +0.000 C 
ATOM      5  C   UNL     1       2.249  18.103   7.743  0.00  0.00    +0.000 A 
ATOM      6  C   UNL     1       1.633  19.324   7.457  0.00  0.00    +0.000 A 
ATOM      7  C   UNL     1       2.733  17.893   9.043  0.00  0.00    +0.000 A 
ATOM      8  C   UNL     1       1.490  20.297   8.450  0.00  0.00    +0.000 A 
ATOM      9  C   UNL     1       2.613  18.863  10.033  0.00  0.00    +0.000 A 
ATOM     10  C   UNL     1       1.985  20.061   9.727  0.00  0.00    +0.000 A 
ENDROOT
BRANCH   2  11
ATOM     11  C   UNL     1       2.695  19.196   4.363  0.00  0.00    +0.000 A 
ATOM     12  C   UNL     1       3.355  20.414   4.642  0.00  0.00    +0.000 A 
ATOM     13  C   UNL     1       3.266  18.337   3.400  0.00  0.00    +0.000 A 
ATOM     14  C   UNL     1       4.526  20.747   3.969  0.00  0.00    +0.000 A 
ATOM     15  C   UNL     1       4.436  18.688   2.719  0.00  0.00    +0.000 A 
ATOM     16  C   UNL     1       5.051  19.893   3.005  0.00  0.00    +0.000 A 
BRANCH  14  17
ATOM     17  O   UNL     1       5.212  21.903   4.218  0.00  0.00    +0.000 OA
ATOM     18  H   UNL     1       5.573  21.879   5.128  0.00  0.00    +0.000 HD
ENDBRANCH  14  17
BRANCH  16  19
ATOM     19  O   UNL     1       6.195  20.234   2.343  0.00  0.00    +0.000 OA
ATOM     20  H   UNL     1       5.931  20.983   1.771  0.00  0.00    +0.000 HD
ENDBRANCH  16  19
ENDBRANCH   2  11
BRANCH   3  21
ATOM     21  O   UNL     1       0.104  16.862   5.972  0.00  0.00    +0.000 OA
ATOM     22  H   UNL     1      -0.478  17.644   5.882  0.00  0.00    +0.000 HD
ENDBRANCH   3  21
BRANCH   4  23
ATOM     23  O   UNL     1       2.224  15.768   7.199  0.00  0.00    +0.000 OA
ATOM     24  H   UNL     1       1.701  15.297   6.512  0.00  0.00    +0.000 HD
ENDBRANCH   4  23
BRANCH   7  25
ATOM     25  O   UNL     1       3.329  16.714   9.405  0.00  0.00    +0.000 OA
ATOM     26  H   UNL     1       3.807  16.879  10.247  0.00  0.00    +0.000 HD
ENDBRANCH   7  25
BRANCH  10  27
ATOM     27  O   UNL     1       1.833  21.044  10.662  0.00  0.00    +0.000 OA
ATOM     28  H   UNL     1       2.715  21.369  10.911  0.00  0.00    +0.000 HD
ENDBRANCH  10  27
BRANCH   2  29
ATOM     29  O   UNL     1       0.263  18.896   4.200  0.00  0.00    +0.000 OA
BRANCH  29  31
ATOM     30  O   UNL     1      -1.541  21.667   2.527  0.00  0.00    +0.000 OA
ATOM     31  C   UNL     1      -0.448  20.149   4.146  0.00  0.00    +0.000 C 
ATOM     32  C   UNL     1      -0.890  20.399   2.682  0.00  0.00    +0.000 C 
ATOM     33  C   UNL     1      -1.713  20.120   5.010  0.00  0.00    +0.000 C 
ATOM     34  C   UNL     1      -2.705  21.178   4.611  0.00  0.00    +0.000 A 
ATOM     35  C   UNL     1      -2.563  21.882   3.412  0.00  0.00    +0.000 A 
ATOM     36  C   UNL     1      -3.800  21.474   5.432  0.00  0.00    +0.000 A 
ATOM     37  C   UNL     1      -3.465  22.891   3.063  0.00  0.00    +0.000 A 
ATOM     38  C   UNL     1      -4.715  22.466   5.088  0.00  0.00    +0.000 A 
ATOM     39  C   UNL     1      -4.534  23.171   3.905  0.00  0.00    +0.000 A 
BRANCH  32  40
ATOM     40  C   UNL     1       0.304  20.379   1.737  0.00  0.00    +0.000 A 
ATOM     41  C   UNL     1       1.230  21.434   1.721  0.00  0.00    +0.000 A 
ATOM     42  C   UNL     1       0.536  19.256   0.923  0.00  0.00    +0.000 A 
ATOM     43  C   UNL     1       2.382  21.335   0.944  0.00  0.00    +0.000 A 
ATOM     44  C   UNL     1       1.683  19.172   0.131  0.00  0.00    +0.000 A 
ATOM     45  C   UNL     1       2.611  20.208   0.158  0.00  0.00    +0.000 A 
BRANCH  43  46
ATOM     46  O   UNL     1       3.333  22.315   0.998  0.00  0.00    +0.000 OA
ATOM     47  H   UNL     1       3.582  22.566   0.092  0.00  0.00    +0.000 HD
ENDBRANCH  43  46
BRANCH  45  48
ATOM     48  O   UNL     1       3.770  20.119  -0.560  0.00  0.00    +0.000 OA
ATOM     49  H   UNL     1       3.852  20.903  -1.127  0.00  0.00    +0.000 HD
ENDBRANCH  45  48
ENDBRANCH  32  40
BRANCH  36  50
ATOM     50  O   UNL     1      -3.955  20.769   6.593  0.00  0.00    +0.000 OA
ATOM     51  H   UNL     1      -3.407  19.967   6.551  0.00  0.00    +0.000 HD
ENDBRANCH  36  50
BRANCH  39  52
ATOM     52  O   UNL     1      -5.444  24.142   3.600  0.00  0.00    +0.000 OA
ATOM     53  H   UNL     1      -5.145  24.609   2.802  0.00  0.00    +0.000 HD
ENDBRANCH  39  52
ENDBRANCH  29  31
ENDBRANCH   2  29
TORSDOF 14
ENDMDL
