MODEL 1
REMARK VINA RESULT:      -6.3      0.000      0.000
REMARK  Name = Progesterone.pdbqt.pdb
REMARK  1 active torsions:
REMARK  status: ('A' for Active; 'I' for Inactive)
REMARK    1  A    between atoms: C_7  and  C_21
REMARK                            x       y       z     vdW  Elec       q    Type
REMARK                         _______ _______ _______ _____ _____    ______ ____
ROOT
ATOM      1  O   UNL     1       8.128  19.295  11.437  0.00  0.00    +0.000 OA
ATOM      2  C   UNL     1       1.213  19.393   8.153  0.00  0.00    +0.000 C 
ATOM      3  C   UNL     1       0.775  18.299   7.036  0.00  0.00    +0.000 C 
ATOM      4  C   UNL     1       2.226  19.107   9.187  0.00  0.00    +0.000 C 
ATOM      5  C   UNL     1       3.163  17.931   9.207  0.00  0.00    +0.000 C 
ATOM      6  C   UNL     1       4.124  17.613  10.374  0.00  0.00    +0.000 C 
ATOM      7  C   UNL     1       0.696  19.115   5.780  0.00  0.00    +0.000 C 
ATOM      8  C   UNL     1       1.851  17.308   7.068  0.00  0.00    +0.000 C 
ATOM      9  C   UNL     1       2.955  17.098   8.074  0.00  0.00    +0.000 C 
ATOM     10  C   UNL     1       1.166  20.679   7.526  0.00  0.00    +0.000 C 
ATOM     11  C   UNL     1       2.500  20.034  10.219  0.00  0.00    +0.000 C 
ATOM     12  C   UNL     1       0.875  20.499   6.060  0.00  0.00    +0.000 C 
ATOM     13  C   UNL     1       4.481  18.897  11.359  0.00  0.00    +0.000 C 
ATOM     14  C   UNL     1      -0.612  17.764   7.462  0.00  0.00    +0.000 C 
ATOM     15  C   UNL     1       3.564  19.973  11.273  0.00  0.00    +0.000 C 
ATOM     16  C   UNL     1       5.472  17.216   9.846  0.00  0.00    +0.000 C 
ATOM     17  C   UNL     1       3.509  16.508  11.274  0.00  0.00    +0.000 C 
ATOM     18  C   UNL     1       6.905  17.703  10.158  0.00  0.00    +0.000 C 
ATOM     19  C   UNL     1       5.751  19.183  11.558  0.00  0.00    +0.000 C 
ATOM     20  C   UNL     1       7.076  18.781  11.111  0.00  0.00    +0.000 C 
ENDROOT
BRANCH   7  21
ATOM     21  C   UNL     1       0.425  18.563   4.475  0.00  0.00    +0.000 C 
ATOM     22  O   UNL     1      -0.685  18.387   4.002  0.00  0.00    +0.000 OA
ATOM     23  C   UNL     1       1.484  18.217   3.481  0.00  0.00    +0.000 C 
ENDBRANCH   7  21
TORSDOF 1
ENDMDL
MODEL 2
REMARK VINA RESULT:      -6.1     28.612     30.466
REMARK  Name = Progesterone.pdbqt.pdb
REMARK  1 active torsions:
REMARK  status: ('A' for Active; 'I' for Inactive)
REMARK    1  A    between atoms: C_7  and  C_21
REMARK                            x       y       z     vdW  Elec       q    Type
REMARK                         _______ _______ _______ _____ _____    ______ ____
ROOT
ATOM      1  O   UNL     1     -14.903  28.322  23.089  0.00  0.00    +0.000 OA
ATOM      2  C   UNL     1     -17.998  35.085  24.908  0.00  0.00    +0.000 C 
ATOM      3  C   UNL     1     -18.190  35.556  26.450  0.00  0.00    +0.000 C 
ATOM      4  C   UNL     1     -16.947  34.134  24.496  0.00  0.00    +0.000 C 
ATOM      5  C   UNL     1     -16.113  33.284  25.414  0.00  0.00    +0.000 C 
ATOM      6  C   UNL     1     -14.943  32.392  24.940  0.00  0.00    +0.000 C 
ATOM      7  C   UNL     1     -19.679  35.530  26.625  0.00  0.00    +0.000 C 
ATOM      8  C   UNL     1     -17.455  34.554  27.222  0.00  0.00    +0.000 C 
ATOM      9  C   UNL     1     -16.467  33.507  26.773  0.00  0.00    +0.000 C 
ATOM     10  C   UNL     1     -19.301  35.017  24.321  0.00  0.00    +0.000 C 
ATOM     11  C   UNL     1     -16.726  33.834  23.132  0.00  0.00    +0.000 C 
ATOM     12  C   UNL     1     -20.333  35.264  25.389  0.00  0.00    +0.000 C 
ATOM     13  C   UNL     1     -14.979  31.983  23.335  0.00  0.00    +0.000 C 
ATOM     14  C   UNL     1     -17.625  36.993  26.547  0.00  0.00    +0.000 C 
ATOM     15  C   UNL     1     -15.799  32.818  22.536  0.00  0.00    +0.000 C 
ATOM     16  C   UNL     1     -14.996  31.057  25.623  0.00  0.00    +0.000 C 
ATOM     17  C   UNL     1     -13.595  33.117  25.193  0.00  0.00    +0.000 C 
ATOM     18  C   UNL     1     -14.961  29.606  25.094  0.00  0.00    +0.000 C 
ATOM     19  C   UNL     1     -14.915  30.705  23.026  0.00  0.00    +0.000 C 
ATOM     20  C   UNL     1     -14.904  29.395  23.660  0.00  0.00    +0.000 C 
ENDROOT
BRANCH   7  21
ATOM     21  C   UNL     1     -20.349  35.789  27.877  0.00  0.00    +0.000 C 
ATOM     22  O   UNL     1     -20.661  36.892  28.293  0.00  0.00    +0.000 OA
ATOM     23  C   UNL     1     -20.839  34.720  28.797  0.00  0.00    +0.000 C 
ENDBRANCH   7  21
TORSDOF 1
ENDMDL
MODEL 3
REMARK VINA RESULT:      -5.8      2.447      6.462
REMARK  Name = Progesterone.pdbqt.pdb
REMARK  1 active torsions:
REMARK  status: ('A' for Active; 'I' for Inactive)
REMARK    1  A    between atoms: C_7  and  C_21
REMARK                            x       y       z     vdW  Elec       q    Type
REMARK                         _______ _______ _______ _____ _____    ______ ____
ROOT
ATOM      1  O   UNL     1      -0.714  20.853   6.805  0.00  0.00    +0.000 OA
ATOM      2  C   UNL     1       4.489  16.966  10.858  0.00  0.00    +0.000 C 
ATOM      3  C   UNL     1       5.642  16.071  10.146  0.00  0.00    +0.000 C 
ATOM      4  C   UNL     1       3.870  18.132  10.197  0.00  0.00    +0.000 C 
ATOM      5  C   UNL     1       3.993  18.494   8.743  0.00  0.00    +0.000 C 
ATOM      6  C   UNL     1       3.424  19.789   8.125  0.00  0.00    +0.000 C 
ATOM      7  C   UNL     1       5.239  14.669  10.491  0.00  0.00    +0.000 C 
ATOM      8  C   UNL     1       5.537  16.419   8.729  0.00  0.00    +0.000 C 
ATOM      9  C   UNL     1       4.802  17.550   8.053  0.00  0.00    +0.000 C 
ATOM     10  C   UNL     1       3.692  16.078  11.648  0.00  0.00    +0.000 C 
ATOM     11  C   UNL     1       2.957  18.963  10.886  0.00  0.00    +0.000 C 
ATOM     12  C   UNL     1       4.140  14.663  11.396  0.00  0.00    +0.000 C 
ATOM     13  C   UNL     1       2.210  20.507   8.995  0.00  0.00    +0.000 C 
ATOM     14  C   UNL     1       6.981  16.465  10.813  0.00  0.00    +0.000 C 
ATOM     15  C   UNL     1       2.145  20.104  10.351  0.00  0.00    +0.000 C 
ATOM     16  C   UNL     1       2.758  19.492   6.813  0.00  0.00    +0.000 C 
ATOM     17  C   UNL     1       4.555  20.840   7.973  0.00  0.00    +0.000 C 
ATOM     18  C   UNL     1       1.362  19.830   6.244  0.00  0.00    +0.000 C 
ATOM     19  C   UNL     1       1.078  20.763   8.373  0.00  0.00    +0.000 C 
ATOM     20  C   UNL     1       0.426  20.543   7.091  0.00  0.00    +0.000 C 
ENDROOT
BRANCH   7  21
ATOM     21  C   UNL     1       5.914  13.492  10.001  0.00  0.00    +0.000 C 
ATOM     22  O   UNL     1       6.770  12.868  10.606  0.00  0.00    +0.000 OA
ATOM     23  C   UNL     1       5.582  12.817   8.711  0.00  0.00    +0.000 C 
ENDBRANCH   7  21
TORSDOF 1
ENDMDL
MODEL 4
REMARK VINA RESULT:      -5.8     29.726     31.008
REMARK  Name = Progesterone.pdbqt.pdb
REMARK  1 active torsions:
REMARK  status: ('A' for Active; 'I' for Inactive)
REMARK    1  A    between atoms: C_7  and  C_21
REMARK                            x       y       z     vdW  Elec       q    Type
REMARK                         _______ _______ _______ _____ _____    ______ ____
ROOT
ATOM      1  O   UNL     1      25.509  37.647  -1.332  0.00  0.00    +0.000 OA
ATOM      2  C   UNL     1      20.183  42.533  -3.856  0.00  0.00    +0.000 C 
ATOM      3  C   UNL     1      18.861  42.029  -4.654  0.00  0.00    +0.000 C 
ATOM      4  C   UNL     1      20.899  41.678  -2.890  0.00  0.00    +0.000 C 
ATOM      5  C   UNL     1      20.704  40.199  -2.702  0.00  0.00    +0.000 C 
ATOM      6  C   UNL     1      21.392  39.370  -1.594  0.00  0.00    +0.000 C 
ATOM      7  C   UNL     1      19.095  42.538  -6.045  0.00  0.00    +0.000 C 
ATOM      8  C   UNL     1      18.893  40.573  -4.510  0.00  0.00    +0.000 C 
ATOM      9  C   UNL     1      19.717  39.700  -3.596  0.00  0.00    +0.000 C 
ATOM     10  C   UNL     1      20.914  43.384  -4.744  0.00  0.00    +0.000 C 
ATOM     11  C   UNL     1      21.973  42.183  -2.121  0.00  0.00    +0.000 C 
ATOM     12  C   UNL     1      20.256  43.361  -6.098  0.00  0.00    +0.000 C 
ATOM     13  C   UNL     1      22.762  40.051  -0.959  0.00  0.00    +0.000 C 
ATOM     14  C   UNL     1      17.651  42.721  -3.985  0.00  0.00    +0.000 C 
ATOM     15  C   UNL     1      22.886  41.443  -1.190  0.00  0.00    +0.000 C 
ATOM     16  C   UNL     1      21.896  38.072  -2.152  0.00  0.00    +0.000 C 
ATOM     17  C   UNL     1      20.407  39.149  -0.416  0.00  0.00    +0.000 C 
ATOM     18  C   UNL     1      23.272  37.371  -2.099  0.00  0.00    +0.000 C 
ATOM     19  C   UNL     1      23.862  39.327  -0.955  0.00  0.00    +0.000 C 
ATOM     20  C   UNL     1      24.366  38.047  -1.431  0.00  0.00    +0.000 C 
ENDROOT
BRANCH   7  21
ATOM     21  C   UNL     1      18.225  42.261  -7.162  0.00  0.00    +0.000 C 
ATOM     22  O   UNL     1      17.189  42.854  -7.411  0.00  0.00    +0.000 OA
ATOM     23  C   UNL     1      18.530  41.261  -8.228  0.00  0.00    +0.000 C 
ENDBRANCH   7  21
TORSDOF 1
ENDMDL
MODEL 5
REMARK VINA RESULT:      -5.7     42.646     44.806
REMARK  Name = Progesterone.pdbqt.pdb
REMARK  1 active torsions:
REMARK  status: ('A' for Active; 'I' for Inactive)
REMARK    1  A    between atoms: C_7  and  C_21
REMARK                            x       y       z     vdW  Elec       q    Type
REMARK                         _______ _______ _______ _____ _____    ______ ____
ROOT
ATOM      1  O   UNL     1      -8.057  60.889  13.308  0.00  0.00    +0.000 OA
ATOM      2  C   UNL     1      -1.800  62.033   9.047  0.00  0.00    +0.000 C 
ATOM      3  C   UNL     1      -1.409  63.499   8.468  0.00  0.00    +0.000 C 
ATOM      4  C   UNL     1      -2.598  61.854  10.276  0.00  0.00    +0.000 C 
ATOM      5  C   UNL     1      -3.368  62.926  10.995  0.00  0.00    +0.000 C 
ATOM      6  C   UNL     1      -4.090  62.713  12.344  0.00  0.00    +0.000 C 
ATOM      7  C   UNL     1      -1.626  63.345   6.992  0.00  0.00    +0.000 C 
ATOM      8  C   UNL     1      -2.337  64.407   9.143  0.00  0.00    +0.000 C 
ATOM      9  C   UNL     1      -3.238  64.177  10.331  0.00  0.00    +0.000 C 
ATOM     10  C   UNL     1      -2.010  61.175   7.921  0.00  0.00    +0.000 C 
ATOM     11  C   UNL     1      -2.820  60.569  10.823  0.00  0.00    +0.000 C 
ATOM     12  C   UNL     1      -1.929  61.994   6.660  0.00  0.00    +0.000 C 
ATOM     13  C   UNL     1      -4.446  61.136  12.708  0.00  0.00    +0.000 C 
ATOM     14  C   UNL     1       0.082  63.725   8.809  0.00  0.00    +0.000 C 
ATOM     15  C   UNL     1      -3.693  60.183  11.979  0.00  0.00    +0.000 C 
ATOM     16  C   UNL     1      -5.444  63.360  12.319  0.00  0.00    +0.000 C 
ATOM     17  C   UNL     1      -3.212  63.259  13.501  0.00  0.00    +0.000 C 
ATOM     18  C   UNL     1      -6.861  62.841  12.654  0.00  0.00    +0.000 C 
ATOM     19  C   UNL     1      -5.695  60.841  13.002  0.00  0.00    +0.000 C 
ATOM     20  C   UNL     1      -7.014  61.454  13.045  0.00  0.00    +0.000 C 
ENDROOT
BRANCH   7  21
ATOM     21  C   UNL     1      -1.496  64.422   6.041  0.00  0.00    +0.000 C 
ATOM     22  O   UNL     1      -0.468  64.725   5.458  0.00  0.00    +0.000 OA
ATOM     23  C   UNL     1      -2.638  65.259   5.568  0.00  0.00    +0.000 C 
ENDBRANCH   7  21
TORSDOF 1
ENDMDL
MODEL 6
REMARK VINA RESULT:      -5.6     43.608     45.685
REMARK  Name = Progesterone.pdbqt.pdb
REMARK  1 active torsions:
REMARK  status: ('A' for Active; 'I' for Inactive)
REMARK    1  A    between atoms: C_7  and  C_21
REMARK                            x       y       z     vdW  Elec       q    Type
REMARK                         _______ _______ _______ _____ _____    ______ ____
ROOT
ATOM      1  O   UNL     1      -5.139  61.234  13.222  0.00  0.00    +0.000 OA
ATOM      2  C   UNL     1      -1.665  63.511   6.791  0.00  0.00    +0.000 C 
ATOM      3  C   UNL     1      -1.202  65.051   6.561  0.00  0.00    +0.000 C 
ATOM      4  C   UNL     1      -1.788  62.913   8.135  0.00  0.00    +0.000 C 
ATOM      5  C   UNL     1      -1.778  63.660   9.440  0.00  0.00    +0.000 C 
ATOM      6  C   UNL     1      -1.791  62.976  10.826  0.00  0.00    +0.000 C 
ATOM      7  C   UNL     1      -2.135  65.524   5.486  0.00  0.00    +0.000 C 
ATOM      8  C   UNL     1      -1.391  65.677   7.870  0.00  0.00    +0.000 C 
ATOM      9  C   UNL     1      -1.634  65.058   9.224  0.00  0.00    +0.000 C 
ATOM     10  C   UNL     1      -2.623  63.201   5.774  0.00  0.00    +0.000 C 
ATOM     11  C   UNL     1      -2.075  61.538   8.300  0.00  0.00    +0.000 C 
ATOM     12  C   UNL     1      -2.929  64.451   4.993  0.00  0.00    +0.000 C 
ATOM     13  C   UNL     1      -2.359  61.420  10.835  0.00  0.00    +0.000 C 
ATOM     14  C   UNL     1       0.263  65.003   6.071  0.00  0.00    +0.000 C 
ATOM     15  C   UNL     1      -2.354  60.788   9.568  0.00  0.00    +0.000 C 
ATOM     16  C   UNL     1      -2.743  63.681  11.746  0.00  0.00    +0.000 C 
ATOM     17  C   UNL     1      -0.352  62.937  11.404  0.00  0.00    +0.000 C 
ATOM     18  C   UNL     1      -3.905  63.184  12.635  0.00  0.00    +0.000 C 
ATOM     19  C   UNL     1      -3.338  61.130  11.666  0.00  0.00    +0.000 C 
ATOM     20  C   UNL     1      -4.239  61.773  12.610  0.00  0.00    +0.000 C 
ENDROOT
BRANCH   7  21
ATOM     21  C   UNL     1      -2.177  66.879   4.995  0.00  0.00    +0.000 C 
ATOM     22  O   UNL     1      -2.762  67.805   5.532  0.00  0.00    +0.000 OA
ATOM     23  C   UNL     1      -1.422  67.356   3.798  0.00  0.00    +0.000 C 
ENDBRANCH   7  21
TORSDOF 1
ENDMDL
MODEL 7
REMARK VINA RESULT:      -5.5      6.099      8.575
REMARK  Name = Progesterone.pdbqt.pdb
REMARK  1 active torsions:
REMARK  status: ('A' for Active; 'I' for Inactive)
REMARK    1  A    between atoms: C_7  and  C_21
REMARK                            x       y       z     vdW  Elec       q    Type
REMARK                         _______ _______ _______ _____ _____    ______ ____
ROOT
ATOM      1  O   UNL     1       3.131  12.817   8.389  0.00  0.00    +0.000 OA
ATOM      2  C   UNL     1      -4.037  13.704  10.929  0.00  0.00    +0.000 C 
ATOM      3  C   UNL     1      -4.843  15.103  10.759  0.00  0.00    +0.000 C 
ATOM      4  C   UNL     1      -2.959  13.295  10.008  0.00  0.00    +0.000 C 
ATOM      5  C   UNL     1      -2.280  14.173   8.993  0.00  0.00    +0.000 C 
ATOM      6  C   UNL     1      -1.239  13.666   7.971  0.00  0.00    +0.000 C 
ATOM      7  C   UNL     1      -4.945  15.604  12.169  0.00  0.00    +0.000 C 
ATOM      8  C   UNL     1      -3.991  15.899   9.875  0.00  0.00    +0.000 C 
ATOM      9  C   UNL     1      -2.814  15.490   9.025  0.00  0.00    +0.000 C 
ATOM     10  C   UNL     1      -3.921  13.450  12.332  0.00  0.00    +0.000 C 
ATOM     11  C   UNL     1      -2.357  12.019  10.107  0.00  0.00    +0.000 C 
ATOM     12  C   UNL     1      -4.455  14.635  13.090  0.00  0.00    +0.000 C 
ATOM     13  C   UNL     1      -0.493  12.243   8.376  0.00  0.00    +0.000 C 
ATOM     14  C   UNL     1      -6.230  14.746  10.176  0.00  0.00    +0.000 C 
ATOM     15  C   UNL     1      -1.182  11.478   9.350  0.00  0.00    +0.000 C 
ATOM     16  C   UNL     1      -0.090  14.626   7.877  0.00  0.00    +0.000 C 
ATOM     17  C   UNL     1      -1.920  13.445   6.594  0.00  0.00    +0.000 C 
ATOM     18  C   UNL     1       1.441  14.443   7.976  0.00  0.00    +0.000 C 
ATOM     19  C   UNL     1       0.823  12.224   8.394  0.00  0.00    +0.000 C 
ATOM     20  C   UNL     1       1.962  13.118   8.250  0.00  0.00    +0.000 C 
ENDROOT
BRANCH   7  21
ATOM     21  C   UNL     1      -5.509  16.881  12.533  0.00  0.00    +0.000 C 
ATOM     22  O   UNL     1      -6.488  17.391  12.014  0.00  0.00    +0.000 OA
ATOM     23  C   UNL     1      -5.020  17.715  13.671  0.00  0.00    +0.000 C 
ENDBRANCH   7  21
TORSDOF 1
ENDMDL
MODEL 8
REMARK VINA RESULT:      -5.4     36.390     38.012
REMARK  Name = Progesterone.pdbqt.pdb
REMARK  1 active torsions:
REMARK  status: ('A' for Active; 'I' for Inactive)
REMARK    1  A    between atoms: C_7  and  C_21
REMARK                            x       y       z     vdW  Elec       q    Type
REMARK                         _______ _______ _______ _____ _____    ______ ____
ROOT
ATOM      1  O   UNL     1      22.803  48.524  -7.261  0.00  0.00    +0.000 OA
ATOM      2  C   UNL     1      20.841  50.578  -0.152  0.00  0.00    +0.000 C 
ATOM      3  C   UNL     1      21.236  49.682   1.144  0.00  0.00    +0.000 C 
ATOM      4  C   UNL     1      21.634  50.565  -1.396  0.00  0.00    +0.000 C 
ATOM      5  C   UNL     1      22.709  49.575  -1.750  0.00  0.00    +0.000 C 
ATOM      6  C   UNL     1      23.593  49.674  -3.013  0.00  0.00    +0.000 C 
ATOM      7  C   UNL     1      19.910  49.150   1.600  0.00  0.00    +0.000 C 
ATOM      8  C   UNL     1      22.160  48.679   0.613  0.00  0.00    +0.000 C 
ATOM      9  C   UNL     1      22.877  48.617  -0.713  0.00  0.00    +0.000 C 
ATOM     10  C   UNL     1      19.412  50.632  -0.209  0.00  0.00    +0.000 C 
ATOM     11  C   UNL     1      21.337  51.445  -2.463  0.00  0.00    +0.000 C 
ATOM     12  C   UNL     1      18.845  49.729   0.853  0.00  0.00    +0.000 C 
ATOM     13  C   UNL     1      22.965  50.597  -4.238  0.00  0.00    +0.000 C 
ATOM     14  C   UNL     1      21.853  50.650   2.179  0.00  0.00    +0.000 C 
ATOM     15  C   UNL     1      21.946  51.494  -3.832  0.00  0.00    +0.000 C 
ATOM     16  C   UNL     1      23.737  48.326  -3.656  0.00  0.00    +0.000 C 
ATOM     17  C   UNL     1      24.969  50.288  -2.643  0.00  0.00    +0.000 C 
ATOM     18  C   UNL     1      23.522  47.825  -5.102  0.00  0.00    +0.000 C 
ATOM     19  C   UNL     1      22.863  50.048  -5.430  0.00  0.00    +0.000 C 
ATOM     20  C   UNL     1      23.050  48.768  -6.097  0.00  0.00    +0.000 C 
ENDROOT
BRANCH   7  21
ATOM     21  C   UNL     1      19.747  48.212   2.684  0.00  0.00    +0.000 C 
ATOM     22  O   UNL     1      20.038  47.028   2.640  0.00  0.00    +0.000 OA
ATOM     23  C   UNL     1      19.283  48.591   4.051  0.00  0.00    +0.000 C 
ENDBRANCH   7  21
TORSDOF 1
ENDMDL
MODEL 9
REMARK VINA RESULT:      -5.2     17.758     19.720
REMARK  Name = Progesterone.pdbqt.pdb
REMARK  1 active torsions:
REMARK  status: ('A' for Active; 'I' for Inactive)
REMARK    1  A    between atoms: C_7  and  C_21
REMARK                            x       y       z     vdW  Elec       q    Type
REMARK                         _______ _______ _______ _____ _____    ______ ____
ROOT
ATOM      1  O   UNL     1      -2.817   5.854  24.421  0.00  0.00    +0.000 OA
ATOM      2  C   UNL     1      -7.729  11.159  21.902  0.00  0.00    +0.000 C 
ATOM      3  C   UNL     1      -9.241  10.784  21.441  0.00  0.00    +0.000 C 
ATOM      4  C   UNL     1      -6.978  10.355  22.886  0.00  0.00    +0.000 C 
ATOM      5  C   UNL     1      -7.355   8.988  23.384  0.00  0.00    +0.000 C 
ATOM      6  C   UNL     1      -6.599   8.238  24.504  0.00  0.00    +0.000 C 
ATOM      7  C   UNL     1      -9.205  11.008  19.959  0.00  0.00    +0.000 C 
ATOM      8  C   UNL     1      -9.402   9.390  21.856  0.00  0.00    +0.000 C 
ATOM      9  C   UNL     1      -8.560   8.540  22.775  0.00  0.00    +0.000 C 
ATOM     10  C   UNL     1      -7.063  11.706  20.759  0.00  0.00    +0.000 C 
ATOM     11  C   UNL     1      -5.712  10.773  23.358  0.00  0.00    +0.000 C 
ATOM     12  C   UNL     1      -7.966  11.585  19.561  0.00  0.00    +0.000 C 
ATOM     13  C   UNL     1      -5.045   8.750  24.765  0.00  0.00    +0.000 C 
ATOM     14  C   UNL     1     -10.181  11.785  22.152  0.00  0.00    +0.000 C 
ATOM     15  C   UNL     1      -4.760  10.039  24.253  0.00  0.00    +0.000 C 
ATOM     16  C   UNL     1      -6.415   6.796  24.133  0.00  0.00    +0.000 C 
ATOM     17  C   UNL     1      -7.360   8.396  25.847  0.00  0.00    +0.000 C 
ATOM     18  C   UNL     1      -5.176   5.873  24.095  0.00  0.00    +0.000 C 
ATOM     19  C   UNL     1      -4.088   7.847  24.730  0.00  0.00    +0.000 C 
ATOM     20  C   UNL     1      -3.884   6.436  24.434  0.00  0.00    +0.000 C 
ENDROOT
BRANCH   7  21
ATOM     21  C   UNL     1     -10.306  10.718  19.073  0.00  0.00    +0.000 C 
ATOM     22  O   UNL     1     -10.569   9.620  18.614  0.00  0.00    +0.000 OA
ATOM     23  C   UNL     1     -11.338  11.720  18.670  0.00  0.00    +0.000 C 
ENDBRANCH   7  21
TORSDOF 1
ENDMDL
