MODEL 1
REMARK VINA RESULT:      -8.4      0.000      0.000
REMARK  Name = Quercetin.pdbqt.pdb
REMARK  6 active torsions:
REMARK  status: ('A' for Active; 'I' for Inactive)
REMARK    1  A    between atoms: C_5  and  C_12
REMARK    2  A    between atoms: C_6  and  O_22
REMARK    3  A    between atoms: C_8  and  O_24
REMARK    4  A    between atoms: C_10  and  O_26
REMARK    5  A    between atoms: C_15  and  O_18
REMARK    6  A    between atoms: C_17  and  O_20
REMARK                            x       y       z     vdW  Elec       q    Type
REMARK                         _______ _______ _______ _____ _____    ______ ____
ROOT
ATOM      1  O   UNL     1       3.920  30.937  15.770  0.00  0.00    +0.000 OA
ATOM      2  O   UNL     1       4.258  27.205  14.194  0.00  0.00    +0.000 OA
ATOM      3  C   UNL     1       5.314  29.053  15.146  0.00  0.00    +0.000 A 
ATOM      4  C   UNL     1       5.142  30.328  15.672  0.00  0.00    +0.000 A 
ATOM      5  C   UNL     1       2.793  30.250  15.341  0.00  0.00    +0.000 A 
ATOM      6  C   UNL     1       2.811  29.014  14.799  0.00  0.00    +0.000 A 
ATOM      7  C   UNL     1       4.130  28.329  14.672  0.00  0.00    +0.000 A 
ATOM      8  C   UNL     1       6.595  28.492  15.075  0.00  0.00    +0.000 A 
ATOM      9  C   UNL     1       6.242  31.050  16.130  0.00  0.00    +0.000 A 
ATOM     10  C   UNL     1       7.511  30.483  16.057  0.00  0.00    +0.000 A 
ATOM     11  C   UNL     1       7.697  29.208  15.532  0.00  0.00    +0.000 A 
ENDROOT
BRANCH   5  12
ATOM     12  C   UNL     1       1.564  31.032  15.537  0.00  0.00    +0.000 A 
ATOM     13  C   UNL     1       1.305  32.171  14.767  0.00  0.00    +0.000 A 
ATOM     14  C   UNL     1       0.607  30.599  16.464  0.00  0.00    +0.000 A 
ATOM     15  C   UNL     1       0.118  32.870  14.947  0.00  0.00    +0.000 A 
ATOM     16  C   UNL     1      -0.590  31.293  16.630  0.00  0.00    +0.000 A 
ATOM     17  C   UNL     1      -0.834  32.418  15.855  0.00  0.00    +0.000 A 
BRANCH  15  18
ATOM     18  O   UNL     1      -0.078  34.022  14.244  0.00  0.00    +0.000 OA
ATOM     19  H   UNL     1      -1.023  34.249  14.325  0.00  0.00    +0.000 HD
ENDBRANCH  15  18
BRANCH  17  20
ATOM     20  O   UNL     1      -2.030  33.063  15.978  0.00  0.00    +0.000 OA
ATOM     21  H   UNL     1      -2.721  32.409  15.767  0.00  0.00    +0.000 HD
ENDBRANCH  17  20
ENDBRANCH   5  12
BRANCH   6  22
ATOM     22  O   UNL     1       1.705  28.330  14.330  0.00  0.00    +0.000 OA
ATOM     23  H   UNL     1       1.125  28.930  13.836  0.00  0.00    +0.000 HD
ENDBRANCH   6  22
BRANCH   8  24
ATOM     24  O   UNL     1       6.838  27.244  14.568  0.00  0.00    +0.000 OA
ATOM     25  H   UNL     1       7.024  27.333  13.604  0.00  0.00    +0.000 HD
ENDBRANCH   8  24
BRANCH  10  26
ATOM     26  O   UNL     1       8.573  31.209  16.511  0.00  0.00    +0.000 OA
ATOM     27  H   UNL     1       9.041  30.676  17.179  0.00  0.00    +0.000 HD
ENDBRANCH  10  26
TORSDOF 6
ENDMDL
MODEL 2
REMARK VINA RESULT:      -8.2      1.644      3.320
REMARK  Name = Quercetin.pdbqt.pdb
REMARK  6 active torsions:
REMARK  status: ('A' for Active; 'I' for Inactive)
REMARK    1  A    between atoms: C_5  and  C_12
REMARK    2  A    between atoms: C_6  and  O_22
REMARK    3  A    between atoms: C_8  and  O_24
REMARK    4  A    between atoms: C_10  and  O_26
REMARK    5  A    between atoms: C_15  and  O_18
REMARK    6  A    between atoms: C_17  and  O_20
REMARK                            x       y       z     vdW  Elec       q    Type
REMARK                         _______ _______ _______ _____ _____    ______ ____
ROOT
ATOM      1  O   UNL     1       1.871  30.482  15.068  0.00  0.00    +0.000 OA
ATOM      2  O   UNL     1       4.701  32.438  17.233  0.00  0.00    +0.000 OA
ATOM      3  C   UNL     1       4.154  30.626  15.872  0.00  0.00    +0.000 A 
ATOM      4  C   UNL     1       3.147  29.996  15.150  0.00  0.00    +0.000 A 
ATOM      5  C   UNL     1       1.562  31.667  15.719  0.00  0.00    +0.000 A 
ATOM      6  C   UNL     1       2.434  32.379  16.466  0.00  0.00    +0.000 A 
ATOM      7  C   UNL     1       3.830  31.869  16.580  0.00  0.00    +0.000 A 
ATOM      8  C   UNL     1       5.439  30.071  15.913  0.00  0.00    +0.000 A 
ATOM      9  C   UNL     1       3.414  28.811  14.466  0.00  0.00    +0.000 A 
ATOM     10  C   UNL     1       4.694  28.268  14.512  0.00  0.00    +0.000 A 
ATOM     11  C   UNL     1       5.711  28.888  15.231  0.00  0.00    +0.000 A 
ENDROOT
BRANCH   5  12
ATOM     12  C   UNL     1       0.161  32.061  15.512  0.00  0.00    +0.000 A 
ATOM     13  C   UNL     1      -0.173  33.373  15.161  0.00  0.00    +0.000 A 
ATOM     14  C   UNL     1      -0.851  31.097  15.607  0.00  0.00    +0.000 A 
ATOM     15  C   UNL     1      -1.502  33.709  14.935  0.00  0.00    +0.000 A 
ATOM     16  C   UNL     1      -2.182  31.434  15.362  0.00  0.00    +0.000 A 
ATOM     17  C   UNL     1      -2.496  32.739  15.010  0.00  0.00    +0.000 A 
BRANCH  15  18
ATOM     18  O   UNL     1      -1.814  35.011  14.674  0.00  0.00    +0.000 OA
ATOM     19  H   UNL     1      -1.376  35.552  15.356  0.00  0.00    +0.000 HD
ENDBRANCH  15  18
BRANCH  17  20
ATOM     20  O   UNL     1      -3.790  33.053  14.716  0.00  0.00    +0.000 OA
ATOM     21  H   UNL     1      -4.017  33.832  15.258  0.00  0.00    +0.000 HD
ENDBRANCH  17  20
ENDBRANCH   5  12
BRANCH   6  22
ATOM     22  O   UNL     1       2.135  33.539  17.155  0.00  0.00    +0.000 OA
ATOM     23  H   UNL     1       1.755  34.198  16.552  0.00  0.00    +0.000 HD
ENDBRANCH   6  22
BRANCH   8  24
ATOM     24  O   UNL     1       6.476  30.635  16.605  0.00  0.00    +0.000 OA
ATOM     25  H   UNL     1       7.298  30.532  16.070  0.00  0.00    +0.000 HD
ENDBRANCH   8  24
BRANCH  10  26
ATOM     26  O   UNL     1       4.931  27.108  13.834  0.00  0.00    +0.000 OA
ATOM     27  H   UNL     1       4.094  26.818  13.429  0.00  0.00    +0.000 HD
ENDBRANCH  10  26
TORSDOF 6
ENDMDL
MODEL 3
REMARK VINA RESULT:      -8.0      1.761      6.694
REMARK  Name = Quercetin.pdbqt.pdb
REMARK  6 active torsions:
REMARK  status: ('A' for Active; 'I' for Inactive)
REMARK    1  A    between atoms: C_5  and  C_12
REMARK    2  A    between atoms: C_6  and  O_22
REMARK    3  A    between atoms: C_8  and  O_24
REMARK    4  A    between atoms: C_10  and  O_26
REMARK    5  A    between atoms: C_15  and  O_18
REMARK    6  A    between atoms: C_17  and  O_20
REMARK                            x       y       z     vdW  Elec       q    Type
REMARK                         _______ _______ _______ _____ _____    ______ ____
ROOT
ATOM      1  O   UNL     1       5.188  30.553  15.923  0.00  0.00    +0.000 OA
ATOM      2  O   UNL     1       4.123  27.187  13.909  0.00  0.00    +0.000 OA
ATOM      3  C   UNL     1       3.451  29.087  15.081  0.00  0.00    +0.000 A 
ATOM      4  C   UNL     1       3.870  30.223  15.763  0.00  0.00    +0.000 A 
ATOM      5  C   UNL     1       6.158  29.731  15.368  0.00  0.00    +0.000 A 
ATOM      6  C   UNL     1       5.897  28.591  14.691  0.00  0.00    +0.000 A 
ATOM      7  C   UNL     1       4.470  28.202  14.508  0.00  0.00    +0.000 A 
ATOM      8  C   UNL     1       2.083  28.810  14.956  0.00  0.00    +0.000 A 
ATOM      9  C   UNL     1       2.933  31.088  16.325  0.00  0.00    +0.000 A 
ATOM     10  C   UNL     1       1.577  30.805  16.195  0.00  0.00    +0.000 A 
ATOM     11  C   UNL     1       1.143  29.671  15.515  0.00  0.00    +0.000 A 
ENDROOT
BRANCH   5  12
ATOM     12  C   UNL     1       7.516  30.238  15.609  0.00  0.00    +0.000 A 
ATOM     13  C   UNL     1       8.037  31.290  14.849  0.00  0.00    +0.000 A 
ATOM     14  C   UNL     1       8.279  29.704  16.656  0.00  0.00    +0.000 A 
ATOM     15  C   UNL     1       9.309  31.775  15.124  0.00  0.00    +0.000 A 
ATOM     16  C   UNL     1       9.549  30.204  16.940  0.00  0.00    +0.000 A 
ATOM     17  C   UNL     1      10.049  31.251  16.179  0.00  0.00    +0.000 A 
BRANCH  15  18
ATOM     18  O   UNL     1       9.830  32.745  14.319  0.00  0.00    +0.000 OA
ATOM     19  H   UNL     1      10.783  32.801  14.518  0.00  0.00    +0.000 HD
ENDBRANCH  15  18
BRANCH  17  20
ATOM     20  O   UNL     1      11.268  31.776  16.494  0.00  0.00    +0.000 OA
ATOM     21  H   UNL     1      11.539  31.365  17.336  0.00  0.00    +0.000 HD
ENDBRANCH  17  20
ENDBRANCH   5  12
BRANCH   6  22
ATOM     22  O   UNL     1       6.849  27.738  14.165  0.00  0.00    +0.000 OA
ATOM     23  H   UNL     1       6.450  26.880  13.953  0.00  0.00    +0.000 HD
ENDBRANCH   6  22
BRANCH   8  24
ATOM     24  O   UNL     1       1.599  27.710  14.301  0.00  0.00    +0.000 OA
ATOM     25  H   UNL     1       2.093  27.613  13.454  0.00  0.00    +0.000 HD
ENDBRANCH   8  24
BRANCH  10  26
ATOM     26  O   UNL     1       0.678  31.666  16.753  0.00  0.00    +0.000 OA
ATOM     27  H   UNL     1       0.880  32.564  16.433  0.00  0.00    +0.000 HD
ENDBRANCH  10  26
TORSDOF 6
ENDMDL
MODEL 4
REMARK VINA RESULT:      -7.6      1.697      7.353
REMARK  Name = Quercetin.pdbqt.pdb
REMARK  6 active torsions:
REMARK  status: ('A' for Active; 'I' for Inactive)
REMARK    1  A    between atoms: C_5  and  C_12
REMARK    2  A    between atoms: C_6  and  O_22
REMARK    3  A    between atoms: C_8  and  O_24
REMARK    4  A    between atoms: C_10  and  O_26
REMARK    5  A    between atoms: C_15  and  O_18
REMARK    6  A    between atoms: C_17  and  O_20
REMARK                            x       y       z     vdW  Elec       q    Type
REMARK                         _______ _______ _______ _____ _____    ______ ____
ROOT
ATOM      1  O   UNL     1       1.281  30.675  14.780  0.00  0.00    +0.000 OA
ATOM      2  O   UNL     1       1.153  33.948  17.188  0.00  0.00    +0.000 OA
ATOM      3  C   UNL     1       0.031  32.531  15.715  0.00  0.00    +0.000 A 
ATOM      4  C   UNL     1       0.132  31.406  14.903  0.00  0.00    +0.000 A 
ATOM      5  C   UNL     1       2.399  31.056  15.508  0.00  0.00    +0.000 A 
ATOM      6  C   UNL     1       2.451  32.131  16.324  0.00  0.00    +0.000 A 
ATOM      7  C   UNL     1       1.215  32.951  16.471  0.00  0.00    +0.000 A 
ATOM      8  C   UNL     1      -1.178  33.233  15.792  0.00  0.00    +0.000 A 
ATOM      9  C   UNL     1      -0.970  30.976  14.166  0.00  0.00    +0.000 A 
ATOM     10  C   UNL     1      -2.167  31.679  14.250  0.00  0.00    +0.000 A 
ATOM     11  C   UNL     1      -2.281  32.806  15.058  0.00  0.00    +0.000 A 
ENDROOT
BRANCH   5  12
ATOM     12  C   UNL     1       3.538  30.154  15.281  0.00  0.00    +0.000 A 
ATOM     13  C   UNL     1       4.836  30.531  15.639  0.00  0.00    +0.000 A 
ATOM     14  C   UNL     1       3.315  28.875  14.756  0.00  0.00    +0.000 A 
ATOM     15  C   UNL     1       5.889  29.645  15.448  0.00  0.00    +0.000 A 
ATOM     16  C   UNL     1       4.371  27.982  14.581  0.00  0.00    +0.000 A 
ATOM     17  C   UNL     1       5.653  28.370  14.946  0.00  0.00    +0.000 A 
BRANCH  15  18
ATOM     18  O   UNL     1       7.157  30.062  15.728  0.00  0.00    +0.000 OA
ATOM     19  H   UNL     1       7.766  29.419  15.318  0.00  0.00    +0.000 HD
ENDBRANCH  15  18
BRANCH  17  20
ATOM     20  O   UNL     1       6.676  27.474  14.827  0.00  0.00    +0.000 OA
ATOM     21  H   UNL     1       7.091  27.409  15.707  0.00  0.00    +0.000 HD
ENDBRANCH  17  20
ENDBRANCH   5  12
BRANCH   6  22
ATOM     22  O   UNL     1       3.565  32.549  17.026  0.00  0.00    +0.000 OA
ATOM     23  H   UNL     1       3.307  32.871  17.904  0.00  0.00    +0.000 HD
ENDBRANCH   6  22
BRANCH   8  24
ATOM     24  O   UNL     1      -1.348  34.348  16.567  0.00  0.00    +0.000 OA
ATOM     25  H   UNL     1      -2.230  34.737  16.361  0.00  0.00    +0.000 HD
ENDBRANCH   8  24
BRANCH  10  26
ATOM     26  O   UNL     1      -3.231  31.238  13.519  0.00  0.00    +0.000 OA
ATOM     27  H   UNL     1      -4.047  31.531  13.963  0.00  0.00    +0.000 HD
ENDBRANCH  10  26
TORSDOF 6
ENDMDL
MODEL 5
REMARK VINA RESULT:      -7.1      1.775      2.147
REMARK  Name = Quercetin.pdbqt.pdb
REMARK  6 active torsions:
REMARK  status: ('A' for Active; 'I' for Inactive)
REMARK    1  A    between atoms: C_5  and  C_12
REMARK    2  A    between atoms: C_6  and  O_22
REMARK    3  A    between atoms: C_8  and  O_24
REMARK    4  A    between atoms: C_10  and  O_26
REMARK    5  A    between atoms: C_15  and  O_18
REMARK    6  A    between atoms: C_17  and  O_20
REMARK                            x       y       z     vdW  Elec       q    Type
REMARK                         _______ _______ _______ _____ _____    ______ ____
ROOT
ATOM      1  O   UNL     1       3.948  32.903  15.618  0.00  0.00    +0.000 OA
ATOM      2  O   UNL     1       3.593  28.866  15.299  0.00  0.00    +0.000 OA
ATOM      3  C   UNL     1       4.989  30.713  15.572  0.00  0.00    +0.000 A 
ATOM      4  C   UNL     1       5.053  32.098  15.671  0.00  0.00    +0.000 A 
ATOM      5  C   UNL     1       2.699  32.317  15.475  0.00  0.00    +0.000 A 
ATOM      6  C   UNL     1       2.487  30.989  15.353  0.00  0.00    +0.000 A 
ATOM      7  C   UNL     1       3.674  30.088  15.399  0.00  0.00    +0.000 A 
ATOM      8  C   UNL     1       6.163  29.951  15.633  0.00  0.00    +0.000 A 
ATOM      9  C   UNL     1       6.285  32.731  15.833  0.00  0.00    +0.000 A 
ATOM     10  C   UNL     1       7.445  31.965  15.894  0.00  0.00    +0.000 A 
ATOM     11  C   UNL     1       7.394  30.579  15.795  0.00  0.00    +0.000 A 
ENDROOT
BRANCH   5  12
ATOM     12  C   UNL     1       1.620  33.315  15.459  0.00  0.00    +0.000 A 
ATOM     13  C   UNL     1       1.650  34.393  14.569  0.00  0.00    +0.000 A 
ATOM     14  C   UNL     1       0.514  33.154  16.304  0.00  0.00    +0.000 A 
ATOM     15  C   UNL     1       0.599  35.301  14.550  0.00  0.00    +0.000 A 
ATOM     16  C   UNL     1      -0.547  34.057  16.271  0.00  0.00    +0.000 A 
ATOM     17  C   UNL     1      -0.504  35.119  15.378  0.00  0.00    +0.000 A 
BRANCH  15  18
ATOM     18  O   UNL     1       0.686  36.389  13.733  0.00  0.00    +0.000 OA
ATOM     19  H   UNL     1       1.635  36.582  13.613  0.00  0.00    +0.000 HD
ENDBRANCH  15  18
BRANCH  17  20
ATOM     20  O   UNL     1      -1.568  35.969  15.307  0.00  0.00    +0.000 OA
ATOM     21  H   UNL     1      -1.238  36.850  15.567  0.00  0.00    +0.000 HD
ENDBRANCH  17  20
ENDBRANCH   5  12
BRANCH   6  22
ATOM     22  O   UNL     1       1.255  30.389  15.170  0.00  0.00    +0.000 OA
ATOM     23  H   UNL     1       1.076  29.763  15.890  0.00  0.00    +0.000 HD
ENDBRANCH   6  22
BRANCH   8  24
ATOM     24  O   UNL     1       6.174  28.586  15.540  0.00  0.00    +0.000 OA
ATOM     25  H   UNL     1       7.025  28.258  15.912  0.00  0.00    +0.000 HD
ENDBRANCH   8  24
BRANCH  10  26
ATOM     26  O   UNL     1       8.638  32.608  16.052  0.00  0.00    +0.000 OA
ATOM     27  H   UNL     1       9.328  32.079  15.613  0.00  0.00    +0.000 HD
ENDBRANCH  10  26
TORSDOF 6
ENDMDL
MODEL 6
REMARK VINA RESULT:      -7.0     11.905     13.994
REMARK  Name = Quercetin.pdbqt.pdb
REMARK  6 active torsions:
REMARK  status: ('A' for Active; 'I' for Inactive)
REMARK    1  A    between atoms: C_5  and  C_12
REMARK    2  A    between atoms: C_6  and  O_22
REMARK    3  A    between atoms: C_8  and  O_24
REMARK    4  A    between atoms: C_10  and  O_26
REMARK    5  A    between atoms: C_15  and  O_18
REMARK    6  A    between atoms: C_17  and  O_20
REMARK                            x       y       z     vdW  Elec       q    Type
REMARK                         _______ _______ _______ _____ _____    ______ ____
ROOT
ATOM      1  O   UNL     1       0.228  42.258  15.516  0.00  0.00    +0.000 OA
ATOM      2  O   UNL     1      -2.158  41.777  18.772  0.00  0.00    +0.000 OA
ATOM      3  C   UNL     1      -1.834  41.432  16.489  0.00  0.00    +0.000 A 
ATOM      4  C   UNL     1      -0.981  41.627  15.408  0.00  0.00    +0.000 A 
ATOM      5  C   UNL     1       0.638  42.713  16.761  0.00  0.00    +0.000 A 
ATOM      6  C   UNL     1      -0.091  42.604  17.893  0.00  0.00    +0.000 A 
ATOM      7  C   UNL     1      -1.417  41.928  17.804  0.00  0.00    +0.000 A 
ATOM      8  C   UNL     1      -3.058  40.778  16.305  0.00  0.00    +0.000 A 
ATOM      9  C   UNL     1      -1.342  41.172  14.142  0.00  0.00    +0.000 A 
ATOM     10  C   UNL     1      -2.560  40.523  13.969  0.00  0.00    +0.000 A 
ATOM     11  C   UNL     1      -3.423  40.322  15.041  0.00  0.00    +0.000 A 
ENDROOT
BRANCH   5  12
ATOM     12  C   UNL     1       1.965  43.343  16.708  0.00  0.00    +0.000 A 
ATOM     13  C   UNL     1       3.054  42.680  16.135  0.00  0.00    +0.000 A 
ATOM     14  C   UNL     1       2.130  44.651  17.183  0.00  0.00    +0.000 A 
ATOM     15  C   UNL     1       4.289  43.314  16.064  0.00  0.00    +0.000 A 
ATOM     16  C   UNL     1       3.366  45.291  17.095  0.00  0.00    +0.000 A 
ATOM     17  C   UNL     1       4.436  44.620  16.519  0.00  0.00    +0.000 A 
BRANCH  15  18
ATOM     18  O   UNL     1       5.356  42.620  15.576  0.00  0.00    +0.000 OA
ATOM     19  H   UNL     1       5.728  42.107  16.319  0.00  0.00    +0.000 HD
ENDBRANCH  15  18
BRANCH  17  20
ATOM     20  O   UNL     1       5.629  45.268  16.383  0.00  0.00    +0.000 OA
ATOM     21  H   UNL     1       5.427  46.146  16.011  0.00  0.00    +0.000 HD
ENDBRANCH  17  20
ENDBRANCH   5  12
BRANCH   6  22
ATOM     22  O   UNL     1       0.282  43.086  19.133  0.00  0.00    +0.000 OA
ATOM     23  H   UNL     1       1.088  42.640  19.438  0.00  0.00    +0.000 HD
ENDBRANCH   6  22
BRANCH   8  24
ATOM     24  O   UNL     1      -3.947  40.554  17.321  0.00  0.00    +0.000 OA
ATOM     25  H   UNL     1      -4.039  41.387  17.841  0.00  0.00    +0.000 HD
ENDBRANCH   8  24
BRANCH  10  26
ATOM     26  O   UNL     1      -2.891  40.087  12.719  0.00  0.00    +0.000 OA
ATOM     27  H   UNL     1      -3.862  40.112  12.637  0.00  0.00    +0.000 HD
ENDBRANCH  10  26
TORSDOF 6
ENDMDL
MODEL 7
REMARK VINA RESULT:      -6.9     19.065     20.358
REMARK  Name = Quercetin.pdbqt.pdb
REMARK  6 active torsions:
REMARK  status: ('A' for Active; 'I' for Inactive)
REMARK    1  A    between atoms: C_5  and  C_12
REMARK    2  A    between atoms: C_6  and  O_22
REMARK    3  A    between atoms: C_8  and  O_24
REMARK    4  A    between atoms: C_10  and  O_26
REMARK    5  A    between atoms: C_15  and  O_18
REMARK    6  A    between atoms: C_17  and  O_20
REMARK                            x       y       z     vdW  Elec       q    Type
REMARK                         _______ _______ _______ _____ _____    ______ ____
ROOT
ATOM      1  O   UNL     1      13.920  46.258  11.569  0.00  0.00    +0.000 OA
ATOM      2  O   UNL     1      10.727  46.558   9.072  0.00  0.00    +0.000 OA
ATOM      3  C   UNL     1      11.734  47.186  11.078  0.00  0.00    +0.000 A 
ATOM      4  C   UNL     1      12.850  47.045  11.897  0.00  0.00    +0.000 A 
ATOM      5  C   UNL     1      13.909  45.579  10.359  0.00  0.00    +0.000 A 
ATOM      6  C   UNL     1      12.890  45.613   9.474  0.00  0.00    +0.000 A 
ATOM      7  C   UNL     1      11.706  46.456   9.807  0.00  0.00    +0.000 A 
ATOM      8  C   UNL     1      10.673  48.008  11.478  0.00  0.00    +0.000 A 
ATOM      9  C   UNL     1      12.914  47.720  13.114  0.00  0.00    +0.000 A 
ATOM     10  C   UNL     1      11.855  48.535  13.502  0.00  0.00    +0.000 A 
ATOM     11  C   UNL     1      10.733  48.684  12.693  0.00  0.00    +0.000 A 
ENDROOT
BRANCH   5  12
ATOM     12  C   UNL     1      15.139  44.802  10.151  0.00  0.00    +0.000 A 
ATOM     13  C   UNL     1      15.459  44.286   8.892  0.00  0.00    +0.000 A 
ATOM     14  C   UNL     1      16.035  44.627  11.213  0.00  0.00    +0.000 A 
ATOM     15  C   UNL     1      16.647  43.587   8.715  0.00  0.00    +0.000 A 
ATOM     16  C   UNL     1      17.234  43.939  11.029  0.00  0.00    +0.000 A 
ATOM     17  C   UNL     1      17.539  43.437   9.771  0.00  0.00    +0.000 A 
BRANCH  15  18
ATOM     18  O   UNL     1      16.901  43.022   7.500  0.00  0.00    +0.000 OA
ATOM     19  H   UNL     1      17.839  43.195   7.295  0.00  0.00    +0.000 HD
ENDBRANCH  15  18
BRANCH  17  20
ATOM     20  O   UNL     1      18.738  42.815   9.579  0.00  0.00    +0.000 OA
ATOM     21  H   UNL     1      19.298  43.439   9.081  0.00  0.00    +0.000 HD
ENDBRANCH  17  20
ENDBRANCH   5  12
BRANCH   6  22
ATOM     22  O   UNL     1      12.842  44.914   8.282  0.00  0.00    +0.000 OA
ATOM     23  H   UNL     1      12.900  45.526   7.532  0.00  0.00    +0.000 HD
ENDBRANCH   6  22
BRANCH   8  24
ATOM     24  O   UNL     1       9.545  48.192  10.725  0.00  0.00    +0.000 OA
ATOM     25  H   UNL     1       9.566  49.105  10.354  0.00  0.00    +0.000 HD
ENDBRANCH   8  24
BRANCH  10  26
ATOM     26  O   UNL     1      11.941  49.185  14.698  0.00  0.00    +0.000 OA
ATOM     27  H   UNL     1      11.428  50.010  14.632  0.00  0.00    +0.000 HD
ENDBRANCH  10  26
TORSDOF 6
ENDMDL
MODEL 8
REMARK VINA RESULT:      -6.9      2.590      3.711
REMARK  Name = Quercetin.pdbqt.pdb
REMARK  6 active torsions:
REMARK  status: ('A' for Active; 'I' for Inactive)
REMARK    1  A    between atoms: C_5  and  C_12
REMARK    2  A    between atoms: C_6  and  O_22
REMARK    3  A    between atoms: C_8  and  O_24
REMARK    4  A    between atoms: C_10  and  O_26
REMARK    5  A    between atoms: C_15  and  O_18
REMARK    6  A    between atoms: C_17  and  O_20
REMARK                            x       y       z     vdW  Elec       q    Type
REMARK                         _______ _______ _______ _____ _____    ______ ____
ROOT
ATOM      1  O   UNL     1       5.749  33.910  16.000  0.00  0.00    +0.000 OA
ATOM      2  O   UNL     1       7.186  30.112  15.829  0.00  0.00    +0.000 OA
ATOM      3  C   UNL     1       7.607  32.369  16.232  0.00  0.00    +0.000 A 
ATOM      4  C   UNL     1       7.064  33.648  16.272  0.00  0.00    +0.000 A 
ATOM      5  C   UNL     1       4.907  32.854  15.685  0.00  0.00    +0.000 A 
ATOM      6  C   UNL     1       5.298  31.564  15.597  0.00  0.00    +0.000 A 
ATOM      7  C   UNL     1       6.727  31.250  15.880  0.00  0.00    +0.000 A 
ATOM      8  C   UNL     1       8.963  32.175  16.521  0.00  0.00    +0.000 A 
ATOM      9  C   UNL     1       7.868  34.739  16.599  0.00  0.00    +0.000 A 
ATOM     10  C   UNL     1       9.214  34.535  16.886  0.00  0.00    +0.000 A 
ATOM     11  C   UNL     1       9.770  33.261  16.849  0.00  0.00    +0.000 A 
ENDROOT
BRANCH   5  12
ATOM     12  C   UNL     1       3.527  33.302  15.445  0.00  0.00    +0.000 A 
ATOM     13  C   UNL     1       3.186  33.984  14.274  0.00  0.00    +0.000 A 
ATOM     14  C   UNL     1       2.526  32.988  16.373  0.00  0.00    +0.000 A 
ATOM     15  C   UNL     1       1.867  34.363  14.056  0.00  0.00    +0.000 A 
ATOM     16  C   UNL     1       1.200  33.354  16.143  0.00  0.00    +0.000 A 
ATOM     17  C   UNL     1       0.878  34.027  14.973  0.00  0.00    +0.000 A 
BRANCH  15  18
ATOM     18  O   UNL     1       1.571  35.099  12.946  0.00  0.00    +0.000 OA
ATOM     19  H   UNL     1       2.253  34.897  12.279  0.00  0.00    +0.000 HD
ENDBRANCH  15  18
BRANCH  17  20
ATOM     20  O   UNL     1      -0.428  34.335  14.724  0.00  0.00    +0.000 OA
ATOM     21  H   UNL     1      -0.482  35.308  14.686  0.00  0.00    +0.000 HD
ENDBRANCH  17  20
ENDBRANCH   5  12
BRANCH   6  22
ATOM     22  O   UNL     1       4.483  30.504  15.247  0.00  0.00    +0.000 OA
ATOM     23  H   UNL     1       4.466  29.845  15.958  0.00  0.00    +0.000 HD
ENDBRANCH   6  22
BRANCH   8  24
ATOM     24  O   UNL     1       9.564  30.945  16.499  0.00  0.00    +0.000 OA
ATOM     25  H   UNL     1      10.399  30.999  17.020  0.00  0.00    +0.000 HD
ENDBRANCH   8  24
BRANCH  10  26
ATOM     26  O   UNL     1       9.980  35.619  17.204  0.00  0.00    +0.000 OA
ATOM     27  H   UNL     1       9.843  35.821  18.147  0.00  0.00    +0.000 HD
ENDBRANCH  10  26
TORSDOF 6
ENDMDL
MODEL 9
REMARK VINA RESULT:      -6.8     10.545     13.556
REMARK  Name = Quercetin.pdbqt.pdb
REMARK  6 active torsions:
REMARK  status: ('A' for Active; 'I' for Inactive)
REMARK    1  A    between atoms: C_5  and  C_12
REMARK    2  A    between atoms: C_6  and  O_22
REMARK    3  A    between atoms: C_8  and  O_24
REMARK    4  A    between atoms: C_10  and  O_26
REMARK    5  A    between atoms: C_15  and  O_18
REMARK    6  A    between atoms: C_17  and  O_20
REMARK                            x       y       z     vdW  Elec       q    Type
REMARK                         _______ _______ _______ _____ _____    ______ ____
ROOT
ATOM      1  O   UNL     1       1.824  42.859  16.217  0.00  0.00    +0.000 OA
ATOM      2  O   UNL     1       0.400  44.923  19.416  0.00  0.00    +0.000 OA
ATOM      3  C   UNL     1       2.118  44.606  17.873  0.00  0.00    +0.000 A 
ATOM      4  C   UNL     1       2.559  43.866  16.781  0.00  0.00    +0.000 A 
ATOM      5  C   UNL     1       0.574  42.567  16.741  0.00  0.00    +0.000 A 
ATOM      6  C   UNL     1       0.025  43.192  17.805  0.00  0.00    +0.000 A 
ATOM      7  C   UNL     1       0.806  44.289  18.445  0.00  0.00    +0.000 A 
ATOM      8  C   UNL     1       2.924  45.623  18.400  0.00  0.00    +0.000 A 
ATOM      9  C   UNL     1       3.801  44.135  16.210  0.00  0.00    +0.000 A 
ATOM     10  C   UNL     1       4.594  45.148  16.740  0.00  0.00    +0.000 A 
ATOM     11  C   UNL     1       4.165  45.895  17.833  0.00  0.00    +0.000 A 
ENDROOT
BRANCH   5  12
ATOM     12  C   UNL     1      -0.091  41.480  16.008  0.00  0.00    +0.000 A 
ATOM     13  C   UNL     1      -0.851  41.743  14.864  0.00  0.00    +0.000 A 
ATOM     14  C   UNL     1       0.088  40.154  16.423  0.00  0.00    +0.000 A 
ATOM     15  C   UNL     1      -1.437  40.692  14.169  0.00  0.00    +0.000 A 
ATOM     16  C   UNL     1      -0.488  39.100  15.714  0.00  0.00    +0.000 A 
ATOM     17  C   UNL     1      -1.235  39.378  14.578  0.00  0.00    +0.000 A 
BRANCH  15  18
ATOM     18  O   UNL     1      -2.240  40.977  13.104  0.00  0.00    +0.000 OA
ATOM     19  H   UNL     1      -2.953  41.557  13.431  0.00  0.00    +0.000 HD
ENDBRANCH  15  18
BRANCH  17  20
ATOM     20  O   UNL     1      -1.750  38.343  13.853  0.00  0.00    +0.000 OA
ATOM     21  H   UNL     1      -1.001  37.758  13.634  0.00  0.00    +0.000 HD
ENDBRANCH  17  20
ENDBRANCH   5  12
BRANCH   6  22
ATOM     22  O   UNL     1      -1.201  42.889  18.366  0.00  0.00    +0.000 OA
ATOM     23  H   UNL     1      -1.645  42.198  17.850  0.00  0.00    +0.000 HD
ENDBRANCH   6  22
BRANCH   8  24
ATOM     24  O   UNL     1       2.555  46.389  19.473  0.00  0.00    +0.000 OA
ATOM     25  H   UNL     1       2.851  47.314  19.309  0.00  0.00    +0.000 HD
ENDBRANCH   8  24
BRANCH  10  26
ATOM     26  O   UNL     1       5.806  45.392  16.164  0.00  0.00    +0.000 OA
ATOM     27  H   UNL     1       5.670  46.009  15.422  0.00  0.00    +0.000 HD
ENDBRANCH  10  26
TORSDOF 6
ENDMDL
