MODEL 1
REMARK VINA RESULT:      -8.4      0.000      0.000
REMARK  Name = 
REMARK  11 active torsions:
REMARK  status: ('A' for Active; 'I' for Inactive)
REMARK    1  A    between atoms: O_2  and  C_16
REMARK    2  A    between atoms: O_2  and  C_18
REMARK    3  A    between atoms: O_3  and  C_12
REMARK    4  A    between atoms: O_4  and  C_13
REMARK    5  A    between atoms: O_5  and  C_14
REMARK    6  A    between atoms: O_8  and  C_24
REMARK    7  A    between atoms: O_9  and  C_29
REMARK    8  A    between atoms: O_10  and  C_30
REMARK    9  A    between atoms: O_11  and  C_32
REMARK   10  A    between atoms: C_15  and  C_17
REMARK   11  A    between atoms: C_19  and  C_23
REMARK                            x       y       z     vdW  Elec       q    Type
REMARK                         _______ _______ _______ _____ _____    ______ ____
ROOT
ATOM      1  O   UNL     1       5.307  29.668  15.703  0.00  0.00    +0.000 OA
ATOM      2  O   UNL     1       5.382  33.700  15.259  0.00  0.00    +0.000 OA
ATOM      3  C   UNL     1       6.596  31.710  15.640  0.00  0.00    +0.000 A 
ATOM      4  C   UNL     1       6.500  30.366  15.670  0.00  0.00    +0.000 A 
ATOM      5  C   UNL     1       5.338  32.504  15.518  0.00  0.00    +0.000 A 
ATOM      6  C   UNL     1       4.067  31.764  15.691  0.00  0.00    +0.000 A 
ATOM      7  C   UNL     1       4.134  30.372  15.762  0.00  0.00    +0.000 A 
ATOM      8  C   UNL     1       2.815  32.390  15.769  0.00  0.00    +0.000 A 
ATOM      9  C   UNL     1       2.971  29.610  15.898  0.00  0.00    +0.000 A 
ATOM     10  C   UNL     1       1.647  31.633  15.909  0.00  0.00    +0.000 A 
ATOM     11  C   UNL     1       1.739  30.246  15.970  0.00  0.00    +0.000 A 
ENDROOT
BRANCH   4  12
ATOM     12  C   UNL     1       7.682  29.480  15.702  0.00  0.00    +0.000 A 
ATOM     13  C   UNL     1       7.800  28.444  14.759  0.00  0.00    +0.000 A 
ATOM     14  C   UNL     1       8.701  29.657  16.656  0.00  0.00    +0.000 A 
ATOM     15  C   UNL     1       8.902  27.597  14.800  0.00  0.00    +0.000 A 
ATOM     16  C   UNL     1       9.802  28.799  16.692  0.00  0.00    +0.000 A 
ATOM     17  C   UNL     1       9.889  27.774  15.765  0.00  0.00    +0.000 A 
BRANCH  15  18
ATOM     18  O   UNL     1       9.058  26.569  13.912  0.00  0.00    +0.000 OA
ATOM     19  H   UNL     1       8.639  26.822  13.071  0.00  0.00    +0.000 HD
ENDBRANCH  15  18
BRANCH  17  20
ATOM     20  O   UNL     1      10.964  26.933  15.803  0.00  0.00    +0.000 OA
ATOM     21  H   UNL     1      11.332  26.955  14.896  0.00  0.00    +0.000 HD
ENDBRANCH  17  20
ENDBRANCH   4  12
BRANCH   8  22
ATOM     22  O   UNL     1       2.712  33.751  15.734  0.00  0.00    +0.000 OA
ATOM     23  H   UNL     1       2.508  34.064  14.838  0.00  0.00    +0.000 HD
ENDBRANCH   8  22
BRANCH  11  24
ATOM     24  O   UNL     1       0.632  29.463  16.105  0.00  0.00    +0.000 OA
ATOM     25  H   UNL     1       0.116  29.759  16.873  0.00  0.00    +0.000 HD
ENDBRANCH  11  24
BRANCH   3  26
ATOM     26  O   UNL     1       7.799  32.399  15.609  0.00  0.00    +0.000 OA
BRANCH  26  32
ATOM     27  O   UNL     1       8.095  34.626  16.440  0.00  0.00    +0.000 OA
ATOM     28  C   UNL     1      10.473  33.067  16.919  0.00  0.00    +0.000 C 
ATOM     29  C   UNL     1      10.538  34.559  16.574  0.00  0.00    +0.000 C 
ATOM     30  C   UNL     1       9.148  32.719  17.599  0.00  0.00    +0.000 C 
ATOM     31  C   UNL     1       9.309  34.939  15.740  0.00  0.00    +0.000 C 
ATOM     32  C   UNL     1       7.958  33.239  16.762  0.00  0.00    +0.000 C 
ATOM     33  C   UNL     1       9.281  36.431  15.427  0.00  0.00    +0.000 C 
BRANCH  28  34
ATOM     34  O   UNL     1      11.573  32.753  17.794  0.00  0.00    +0.000 OA
ATOM     35  H   UNL     1      11.262  31.989  18.323  0.00  0.00    +0.000 HD
ENDBRANCH  28  34
BRANCH  29  36
ATOM     36  O   UNL     1      11.756  34.822  15.870  0.00  0.00    +0.000 OA
ATOM     37  H   UNL     1      12.145  35.605  16.308  0.00  0.00    +0.000 HD
ENDBRANCH  29  36
BRANCH  30  38
ATOM     38  O   UNL     1       9.177  33.298  18.921  0.00  0.00    +0.000 OA
ATOM     39  H   UNL     1       9.390  34.244  18.820  0.00  0.00    +0.000 HD
ENDBRANCH  30  38
ENDBRANCH  26  32
ENDBRANCH   3  26
TORSDOF 10
ENDMDL
MODEL 2
REMARK VINA RESULT:      -8.2      1.791      4.878
REMARK  Name = 
REMARK  11 active torsions:
REMARK  status: ('A' for Active; 'I' for Inactive)
REMARK    1  A    between atoms: O_2  and  C_16
REMARK    2  A    between atoms: O_2  and  C_18
REMARK    3  A    between atoms: O_3  and  C_12
REMARK    4  A    between atoms: O_4  and  C_13
REMARK    5  A    between atoms: O_5  and  C_14
REMARK    6  A    between atoms: O_8  and  C_24
REMARK    7  A    between atoms: O_9  and  C_29
REMARK    8  A    between atoms: O_10  and  C_30
REMARK    9  A    between atoms: O_11  and  C_32
REMARK   10  A    between atoms: C_15  and  C_17
REMARK   11  A    between atoms: C_19  and  C_23
REMARK                            x       y       z     vdW  Elec       q    Type
REMARK                         _______ _______ _______ _____ _____    ______ ____
ROOT
ATOM      1  O   UNL     1       5.478  31.420  16.022  0.00  0.00    +0.000 OA
ATOM      2  O   UNL     1       5.946  27.587  14.776  0.00  0.00    +0.000 OA
ATOM      3  C   UNL     1       6.908  29.724  15.066  0.00  0.00    +0.000 A 
ATOM      4  C   UNL     1       6.705  30.946  15.598  0.00  0.00    +0.000 A 
ATOM      5  C   UNL     1       5.762  28.770  15.034  0.00  0.00    +0.000 A 
ATOM      6  C   UNL     1       4.428  29.324  15.361  0.00  0.00    +0.000 A 
ATOM      7  C   UNL     1       4.372  30.629  15.852  0.00  0.00    +0.000 A 
ATOM      8  C   UNL     1       3.236  28.600  15.215  0.00  0.00    +0.000 A 
ATOM      9  C   UNL     1       3.149  31.204  16.205  0.00  0.00    +0.000 A 
ATOM     10  C   UNL     1       2.008  29.172  15.564  0.00  0.00    +0.000 A 
ATOM     11  C   UNL     1       1.979  30.472  16.059  0.00  0.00    +0.000 A 
ENDROOT
BRANCH   4  12
ATOM     12  C   UNL     1       7.788  31.939  15.758  0.00  0.00    +0.000 A 
ATOM     13  C   UNL     1       8.665  32.189  14.689  0.00  0.00    +0.000 A 
ATOM     14  C   UNL     1       7.956  32.647  16.962  0.00  0.00    +0.000 A 
ATOM     15  C   UNL     1       9.696  33.109  14.844  0.00  0.00    +0.000 A 
ATOM     16  C   UNL     1       8.997  33.566  17.110  0.00  0.00    +0.000 A 
ATOM     17  C   UNL     1       9.860  33.785  16.049  0.00  0.00    +0.000 A 
BRANCH  15  18
ATOM     18  O   UNL     1      10.581  33.381  13.837  0.00  0.00    +0.000 OA
ATOM     19  H   UNL     1      11.348  32.790  13.934  0.00  0.00    +0.000 HD
ENDBRANCH  15  18
BRANCH  17  20
ATOM     20  O   UNL     1      10.880  34.679  16.196  0.00  0.00    +0.000 OA
ATOM     21  H   UNL     1      10.439  35.535  16.373  0.00  0.00    +0.000 HD
ENDBRANCH  17  20
ENDBRANCH   4  12
BRANCH   8  22
ATOM     22  O   UNL     1       3.247  27.332  14.710  0.00  0.00    +0.000 OA
ATOM     23  H   UNL     1       2.346  26.986  14.612  0.00  0.00    +0.000 HD
ENDBRANCH   8  22
BRANCH  11  24
ATOM     24  O   UNL     1       0.810  31.075  16.413  0.00  0.00    +0.000 OA
ATOM     25  H   UNL     1       0.139  30.911  15.729  0.00  0.00    +0.000 HD
ENDBRANCH  11  24
BRANCH   3  26
ATOM     26  O   UNL     1       8.144  29.261  14.641  0.00  0.00    +0.000 OA
BRANCH  26  32
ATOM     27  O   UNL     1       9.484  29.028  16.613  0.00  0.00    +0.000 OA
ATOM     28  C   UNL     1      10.878  27.939  14.336  0.00  0.00    +0.000 C 
ATOM     29  C   UNL     1      11.616  28.660  15.469  0.00  0.00    +0.000 C 
ATOM     30  C   UNL     1       9.577  27.314  14.841  0.00  0.00    +0.000 C 
ATOM     31  C   UNL     1      10.670  29.673  16.124  0.00  0.00    +0.000 C 
ATOM     32  C   UNL     1       8.730  28.363  15.595  0.00  0.00    +0.000 C 
ATOM     33  C   UNL     1      11.328  30.372  17.309  0.00  0.00    +0.000 C 
BRANCH  28  34
ATOM     34  O   UNL     1      11.743  26.916  13.807  0.00  0.00    +0.000 OA
ATOM     35  H   UNL     1      11.137  26.206  13.507  0.00  0.00    +0.000 HD
ENDBRANCH  28  34
BRANCH  29  36
ATOM     36  O   UNL     1      12.782  29.295  14.936  0.00  0.00    +0.000 OA
ATOM     37  H   UNL     1      13.393  29.395  15.693  0.00  0.00    +0.000 HD
ENDBRANCH  29  36
BRANCH  30  38
ATOM     38  O   UNL     1       9.933  26.195  15.682  0.00  0.00    +0.000 OA
ATOM     39  H   UNL     1       9.108  25.846  16.065  0.00  0.00    +0.000 HD
ENDBRANCH  30  38
ENDBRANCH  26  32
ENDBRANCH   3  26
TORSDOF 10
ENDMDL
MODEL 3
REMARK VINA RESULT:      -7.9      2.047      3.144
REMARK  Name = 
REMARK  11 active torsions:
REMARK  status: ('A' for Active; 'I' for Inactive)
REMARK    1  A    between atoms: O_2  and  C_16
REMARK    2  A    between atoms: O_2  and  C_18
REMARK    3  A    between atoms: O_3  and  C_12
REMARK    4  A    between atoms: O_4  and  C_13
REMARK    5  A    between atoms: O_5  and  C_14
REMARK    6  A    between atoms: O_8  and  C_24
REMARK    7  A    between atoms: O_9  and  C_29
REMARK    8  A    between atoms: O_10  and  C_30
REMARK    9  A    between atoms: O_11  and  C_32
REMARK   10  A    between atoms: C_15  and  C_17
REMARK   11  A    between atoms: C_19  and  C_23
REMARK                            x       y       z     vdW  Elec       q    Type
REMARK                         _______ _______ _______ _____ _____    ______ ____
ROOT
ATOM      1  O   UNL     1       7.448  28.032  14.995  0.00  0.00    +0.000 OA
ATOM      2  O   UNL     1       6.635  31.918  15.834  0.00  0.00    +0.000 OA
ATOM      3  C   UNL     1       8.191  30.142  15.906  0.00  0.00    +0.000 A 
ATOM      4  C   UNL     1       8.418  28.878  15.500  0.00  0.00    +0.000 A 
ATOM      5  C   UNL     1       6.830  30.717  15.696  0.00  0.00    +0.000 A 
ATOM      6  C   UNL     1       5.768  29.771  15.284  0.00  0.00    +0.000 A 
ATOM      7  C   UNL     1       6.152  28.473  14.944  0.00  0.00    +0.000 A 
ATOM      8  C   UNL     1       4.412  30.121  15.207  0.00  0.00    +0.000 A 
ATOM      9  C   UNL     1       5.204  27.538  14.523  0.00  0.00    +0.000 A 
ATOM     10  C   UNL     1       3.457  29.188  14.789  0.00  0.00    +0.000 A 
ATOM     11  C   UNL     1       3.867  27.902  14.448  0.00  0.00    +0.000 A 
ENDROOT
BRANCH   4  12
ATOM     12  C   UNL     1       9.748  28.238  15.580  0.00  0.00    +0.000 A 
ATOM     13  C   UNL     1      10.458  27.960  14.399  0.00  0.00    +0.000 A 
ATOM     14  C   UNL     1      10.324  27.906  16.820  0.00  0.00    +0.000 A 
ATOM     15  C   UNL     1      11.701  27.340  14.472  0.00  0.00    +0.000 A 
ATOM     16  C   UNL     1      11.571  27.280  16.883  0.00  0.00    +0.000 A 
ATOM     17  C   UNL     1      12.246  26.999  15.706  0.00  0.00    +0.000 A 
BRANCH  15  18
ATOM     18  O   UNL     1      12.426  27.040  13.352  0.00  0.00    +0.000 OA
ATOM     19  H   UNL     1      12.527  26.074  13.301  0.00  0.00    +0.000 HD
ENDBRANCH  15  18
BRANCH  17  20
ATOM     20  O   UNL     1      13.462  26.384  15.768  0.00  0.00    +0.000 OA
ATOM     21  H   UNL     1      14.104  27.111  15.899  0.00  0.00    +0.000 HD
ENDBRANCH  17  20
ENDBRANCH   4  12
BRANCH   8  22
ATOM     22  O   UNL     1       3.993  31.372  15.560  0.00  0.00    +0.000 OA
ATOM     23  H   UNL     1       4.675  31.840  16.066  0.00  0.00    +0.000 HD
ENDBRANCH   8  22
BRANCH  11  24
ATOM     24  O   UNL     1       2.978  26.956  14.034  0.00  0.00    +0.000 OA
ATOM     25  H   UNL     1       2.196  26.971  14.610  0.00  0.00    +0.000 HD
ENDBRANCH  11  24
BRANCH   3  26
ATOM     26  O   UNL     1       9.173  30.980  16.413  0.00  0.00    +0.000 OA
BRANCH  26  32
ATOM     27  O   UNL     1      11.473  31.253  15.802  0.00  0.00    +0.000 OA
ATOM     28  C   UNL     1      10.191  33.828  16.003  0.00  0.00    +0.000 C 
ATOM     29  C   UNL     1      11.653  33.616  16.412  0.00  0.00    +0.000 C 
ATOM     30  C   UNL     1       9.767  32.814  14.940  0.00  0.00    +0.000 C 
ATOM     31  C   UNL     1      11.850  32.160  16.849  0.00  0.00    +0.000 C 
ATOM     32  C   UNL     1      10.106  31.377  15.398  0.00  0.00    +0.000 C 
ATOM     33  C   UNL     1      13.305  31.869  17.199  0.00  0.00    +0.000 C 
BRANCH  28  34
ATOM     34  O   UNL     1      10.050  35.167  15.491  0.00  0.00    +0.000 OA
ATOM     35  H   UNL     1      10.967  35.465  15.315  0.00  0.00    +0.000 HD
ENDBRANCH  28  34
BRANCH  29  36
ATOM     36  O   UNL     1      11.981  34.531  17.462  0.00  0.00    +0.000 OA
ATOM     37  H   UNL     1      11.748  34.069  18.292  0.00  0.00    +0.000 HD
ENDBRANCH  29  36
BRANCH  30  38
ATOM     38  O   UNL     1      10.442  33.167  13.713  0.00  0.00    +0.000 OA
ATOM     39  H   UNL     1      10.870  34.031  13.856  0.00  0.00    +0.000 HD
ENDBRANCH  30  38
ENDBRANCH  26  32
ENDBRANCH   3  26
TORSDOF 10
ENDMDL
MODEL 4
REMARK VINA RESULT:      -7.9     17.682     20.609
REMARK  Name = 
REMARK  11 active torsions:
REMARK  status: ('A' for Active; 'I' for Inactive)
REMARK    1  A    between atoms: O_2  and  C_16
REMARK    2  A    between atoms: O_2  and  C_18
REMARK    3  A    between atoms: O_3  and  C_12
REMARK    4  A    between atoms: O_4  and  C_13
REMARK    5  A    between atoms: O_5  and  C_14
REMARK    6  A    between atoms: O_8  and  C_24
REMARK    7  A    between atoms: O_9  and  C_29
REMARK    8  A    between atoms: O_10  and  C_30
REMARK    9  A    between atoms: O_11  and  C_32
REMARK   10  A    between atoms: C_15  and  C_17
REMARK   11  A    between atoms: C_19  and  C_23
REMARK                            x       y       z     vdW  Elec       q    Type
REMARK                         _______ _______ _______ _____ _____    ______ ____
ROOT
ATOM      1  O   UNL     1     -10.607  41.766  17.583  0.00  0.00    +0.000 OA
ATOM      2  O   UNL     1      -6.959  40.929  16.015  0.00  0.00    +0.000 OA
ATOM      3  C   UNL     1      -9.305  40.711  15.843  0.00  0.00    +0.000 A 
ATOM      4  C   UNL     1     -10.477  41.120  16.368  0.00  0.00    +0.000 A 
ATOM      5  C   UNL     1      -8.047  41.075  16.559  0.00  0.00    +0.000 A 
ATOM      6  C   UNL     1      -8.198  41.643  17.918  0.00  0.00    +0.000 A 
ATOM      7  C   UNL     1      -9.487  41.967  18.345  0.00  0.00    +0.000 A 
ATOM      8  C   UNL     1      -7.117  41.880  18.778  0.00  0.00    +0.000 A 
ATOM      9  C   UNL     1      -9.698  42.530  19.605  0.00  0.00    +0.000 A 
ATOM     10  C   UNL     1      -7.322  42.441  20.043  0.00  0.00    +0.000 A 
ATOM     11  C   UNL     1      -8.616  42.763  20.443  0.00  0.00    +0.000 A 
ENDROOT
BRANCH   4  12
ATOM     12  C   UNL     1     -11.776  40.890  15.700  0.00  0.00    +0.000 A 
ATOM     13  C   UNL     1     -12.217  39.575  15.474  0.00  0.00    +0.000 A 
ATOM     14  C   UNL     1     -12.586  41.964  15.292  0.00  0.00    +0.000 A 
ATOM     15  C   UNL     1     -13.429  39.356  14.829  0.00  0.00    +0.000 A 
ATOM     16  C   UNL     1     -13.801  41.735  14.642  0.00  0.00    +0.000 A 
ATOM     17  C   UNL     1     -14.208  40.431  14.413  0.00  0.00    +0.000 A 
BRANCH  15  18
ATOM     18  O   UNL     1     -13.898  38.096  14.577  0.00  0.00    +0.000 OA
ATOM     19  H   UNL     1     -14.639  38.164  13.950  0.00  0.00    +0.000 HD
ENDBRANCH  15  18
BRANCH  17  20
ATOM     20  O   UNL     1     -15.393  40.208  13.773  0.00  0.00    +0.000 OA
ATOM     21  H   UNL     1     -15.964  39.781  14.444  0.00  0.00    +0.000 HD
ENDBRANCH  17  20
ENDBRANCH   4  12
BRANCH   8  22
ATOM     22  O   UNL     1      -5.845  41.549  18.409  0.00  0.00    +0.000 OA
ATOM     23  H   UNL     1      -5.203  42.195  18.743  0.00  0.00    +0.000 HD
ENDBRANCH   8  22
BRANCH  11  24
ATOM     24  O   UNL     1      -8.870  43.312  21.664  0.00  0.00    +0.000 OA
ATOM     25  H   UNL     1      -9.830  43.344  21.812  0.00  0.00    +0.000 HD
ENDBRANCH  11  24
BRANCH   3  26
ATOM     26  O   UNL     1      -9.188  40.061  14.624  0.00  0.00    +0.000 OA
BRANCH  26  32
ATOM     27  O   UNL     1     -10.369  41.050  12.790  0.00  0.00    +0.000 OA
ATOM     28  C   UNL     1      -8.226  39.391  11.806  0.00  0.00    +0.000 C 
ATOM     29  C   UNL     1      -9.563  39.511  11.066  0.00  0.00    +0.000 C 
ATOM     30  C   UNL     1      -7.940  40.648  12.628  0.00  0.00    +0.000 C 
ATOM     31  C   UNL     1     -10.670  39.842  12.073  0.00  0.00    +0.000 C 
ATOM     32  C   UNL     1      -9.147  40.990  13.530  0.00  0.00    +0.000 C 
ATOM     33  C   UNL     1     -12.015  40.046  11.385  0.00  0.00    +0.000 C 
BRANCH  28  34
ATOM     34  O   UNL     1      -7.183  39.191  10.833  0.00  0.00    +0.000 OA
ATOM     35  H   UNL     1      -6.669  40.026  10.842  0.00  0.00    +0.000 HD
ENDBRANCH  28  34
BRANCH  29  36
ATOM     36  O   UNL     1      -9.826  38.284  10.377  0.00  0.00    +0.000 OA
ATOM     37  H   UNL     1     -10.588  37.884  10.841  0.00  0.00    +0.000 HD
ENDBRANCH  29  36
BRANCH  30  38
ATOM     38  O   UNL     1      -7.638  41.712  11.699  0.00  0.00    +0.000 OA
ATOM     39  H   UNL     1      -8.408  41.811  11.110  0.00  0.00    +0.000 HD
ENDBRANCH  30  38
ENDBRANCH  26  32
ENDBRANCH   3  26
TORSDOF 10
ENDMDL
MODEL 5
REMARK VINA RESULT:      -7.4     17.485     19.167
REMARK  Name = 
REMARK  11 active torsions:
REMARK  status: ('A' for Active; 'I' for Inactive)
REMARK    1  A    between atoms: O_2  and  C_16
REMARK    2  A    between atoms: O_2  and  C_18
REMARK    3  A    between atoms: O_3  and  C_12
REMARK    4  A    between atoms: O_4  and  C_13
REMARK    5  A    between atoms: O_5  and  C_14
REMARK    6  A    between atoms: O_8  and  C_24
REMARK    7  A    between atoms: O_9  and  C_29
REMARK    8  A    between atoms: O_10  and  C_30
REMARK    9  A    between atoms: O_11  and  C_32
REMARK   10  A    between atoms: C_15  and  C_17
REMARK   11  A    between atoms: C_19  and  C_23
REMARK                            x       y       z     vdW  Elec       q    Type
REMARK                         _______ _______ _______ _____ _____    ______ ____
ROOT
ATOM      1  O   UNL     1      -6.368  43.113  10.266  0.00  0.00    +0.000 OA
ATOM      2  O   UNL     1      -4.419  43.858  13.746  0.00  0.00    +0.000 OA
ATOM      3  C   UNL     1      -6.173  42.725  12.642  0.00  0.00    +0.000 A 
ATOM      4  C   UNL     1      -6.698  42.448  11.432  0.00  0.00    +0.000 A 
ATOM      5  C   UNL     1      -5.079  43.737  12.722  0.00  0.00    +0.000 A 
ATOM      6  C   UNL     1      -4.827  44.537  11.502  0.00  0.00    +0.000 A 
ATOM      7  C   UNL     1      -5.489  44.162  10.332  0.00  0.00    +0.000 A 
ATOM      8  C   UNL     1      -3.952  45.633  11.467  0.00  0.00    +0.000 A 
ATOM      9  C   UNL     1      -5.277  44.857   9.140  0.00  0.00    +0.000 A 
ATOM     10  C   UNL     1      -3.738  46.336  10.276  0.00  0.00    +0.000 A 
ATOM     11  C   UNL     1      -4.404  45.937   9.121  0.00  0.00    +0.000 A 
ENDROOT
BRANCH   4  12
ATOM     12  C   UNL     1      -7.724  41.405  11.224  0.00  0.00    +0.000 A 
ATOM     13  C   UNL     1      -7.371  40.050  11.348  0.00  0.00    +0.000 A 
ATOM     14  C   UNL     1      -9.053  41.741  10.912  0.00  0.00    +0.000 A 
ATOM     15  C   UNL     1      -8.330  39.066  11.134  0.00  0.00    +0.000 A 
ATOM     16  C   UNL     1     -10.009  40.746  10.694  0.00  0.00    +0.000 A 
ATOM     17  C   UNL     1      -9.636  39.416  10.804  0.00  0.00    +0.000 A 
BRANCH  15  18
ATOM     18  O   UNL     1      -8.035  37.734  11.233  0.00  0.00    +0.000 OA
ATOM     19  H   UNL     1      -8.085  37.341  10.344  0.00  0.00    +0.000 HD
ENDBRANCH  15  18
BRANCH  17  20
ATOM     20  O   UNL     1     -10.569  38.444  10.587  0.00  0.00    +0.000 OA
ATOM     21  H   UNL     1     -11.311  38.904  10.145  0.00  0.00    +0.000 HD
ENDBRANCH  17  20
ENDBRANCH   4  12
BRANCH   8  22
ATOM     22  O   UNL     1      -3.309  46.049  12.597  0.00  0.00    +0.000 OA
ATOM     23  H   UNL     1      -3.895  46.007  13.369  0.00  0.00    +0.000 HD
ENDBRANCH   8  22
BRANCH  11  24
ATOM     24  O   UNL     1      -4.230  46.587   7.937  0.00  0.00    +0.000 OA
ATOM     25  H   UNL     1      -4.080  47.532   8.104  0.00  0.00    +0.000 HD
ENDBRANCH  11  24
BRANCH   3  26
ATOM     26  O   UNL     1      -6.514  42.051  13.805  0.00  0.00    +0.000 OA
BRANCH  26  32
ATOM     27  O   UNL     1      -7.142  43.378  15.698  0.00  0.00    +0.000 OA
ATOM     28  C   UNL     1      -8.283  40.739  15.918  0.00  0.00    +0.000 C 
ATOM     29  C   UNL     1      -7.801  41.518  17.146  0.00  0.00    +0.000 C 
ATOM     30  C   UNL     1      -8.699  41.690  14.795  0.00  0.00    +0.000 C 
ATOM     31  C   UNL     1      -6.687  42.485  16.726  0.00  0.00    +0.000 C 
ATOM     32  C   UNL     1      -7.576  42.712  14.509  0.00  0.00    +0.000 C 
ATOM     33  C   UNL     1      -6.216  43.342  17.896  0.00  0.00    +0.000 C 
BRANCH  28  34
ATOM     34  O   UNL     1      -9.402  39.919  16.308  0.00  0.00    +0.000 OA
ATOM     35  H   UNL     1      -9.942  40.494  16.890  0.00  0.00    +0.000 HD
ENDBRANCH  28  34
BRANCH  29  36
ATOM     36  O   UNL     1      -7.348  40.591  18.138  0.00  0.00    +0.000 OA
ATOM     37  H   UNL     1      -7.488  41.039  18.996  0.00  0.00    +0.000 HD
ENDBRANCH  29  36
BRANCH  30  38
ATOM     38  O   UNL     1      -9.927  42.331  15.204  0.00  0.00    +0.000 OA
ATOM     39  H   UNL     1     -10.085  43.073  14.591  0.00  0.00    +0.000 HD
ENDBRANCH  30  38
ENDBRANCH  26  32
ENDBRANCH   3  26
TORSDOF 10
ENDMDL
MODEL 6
REMARK VINA RESULT:      -7.2     13.223     17.689
REMARK  Name = 
REMARK  11 active torsions:
REMARK  status: ('A' for Active; 'I' for Inactive)
REMARK    1  A    between atoms: O_2  and  C_16
REMARK    2  A    between atoms: O_2  and  C_18
REMARK    3  A    between atoms: O_3  and  C_12
REMARK    4  A    between atoms: O_4  and  C_13
REMARK    5  A    between atoms: O_5  and  C_14
REMARK    6  A    between atoms: O_8  and  C_24
REMARK    7  A    between atoms: O_9  and  C_29
REMARK    8  A    between atoms: O_10  and  C_30
REMARK    9  A    between atoms: O_11  and  C_32
REMARK   10  A    between atoms: C_15  and  C_17
REMARK   11  A    between atoms: C_19  and  C_23
REMARK                            x       y       z     vdW  Elec       q    Type
REMARK                         _______ _______ _______ _____ _____    ______ ____
ROOT
ATOM      1  O   UNL     1      -3.854  40.348  13.453  0.00  0.00    +0.000 OA
ATOM      2  O   UNL     1      -3.241  43.787  15.518  0.00  0.00    +0.000 OA
ATOM      3  C   UNL     1      -4.467  42.651  13.849  0.00  0.00    +0.000 A 
ATOM      4  C   UNL     1      -4.678  41.445  13.284  0.00  0.00    +0.000 A 
ATOM      5  C   UNL     1      -3.336  42.790  14.812  0.00  0.00    +0.000 A 
ATOM      6  C   UNL     1      -2.383  41.659  14.884  0.00  0.00    +0.000 A 
ATOM      7  C   UNL     1      -2.713  40.490  14.199  0.00  0.00    +0.000 A 
ATOM      8  C   UNL     1      -1.186  41.706  15.612  0.00  0.00    +0.000 A 
ATOM      9  C   UNL     1      -1.872  39.376  14.245  0.00  0.00    +0.000 A 
ATOM     10  C   UNL     1      -0.337  40.595  15.660  0.00  0.00    +0.000 A 
ATOM     11  C   UNL     1      -0.692  39.437  14.975  0.00  0.00    +0.000 A 
ENDROOT
BRANCH   4  12
ATOM     12  C   UNL     1      -5.817  41.171  12.384  0.00  0.00    +0.000 A 
ATOM     13  C   UNL     1      -7.015  40.663  12.914  0.00  0.00    +0.000 A 
ATOM     14  C   UNL     1      -5.729  41.416  11.001  0.00  0.00    +0.000 A 
ATOM     15  C   UNL     1      -8.082  40.387  12.066  0.00  0.00    +0.000 A 
ATOM     16  C   UNL     1      -6.805  41.132  10.156  0.00  0.00    +0.000 A 
ATOM     17  C   UNL     1      -7.970  40.615  10.698  0.00  0.00    +0.000 A 
BRANCH  15  18
ATOM     18  O   UNL     1      -9.265  39.883  12.531  0.00  0.00    +0.000 OA
ATOM     19  H   UNL     1      -9.824  40.625  12.821  0.00  0.00    +0.000 HD
ENDBRANCH  15  18
BRANCH  17  20
ATOM     20  O   UNL     1      -9.019  40.333   9.871  0.00  0.00    +0.000 OA
ATOM     21  H   UNL     1      -8.715  39.575   9.332  0.00  0.00    +0.000 HD
ENDBRANCH  17  20
ENDBRANCH   4  12
BRANCH   8  22
ATOM     22  O   UNL     1      -0.813  42.842  16.272  0.00  0.00    +0.000 OA
ATOM     23  H   UNL     1      -0.674  42.670  17.216  0.00  0.00    +0.000 HD
ENDBRANCH   8  22
BRANCH  11  24
ATOM     24  O   UNL     1       0.098  38.328  14.990  0.00  0.00    +0.000 OA
ATOM     25  H   UNL     1      -0.360  37.609  15.455  0.00  0.00    +0.000 HD
ENDBRANCH  11  24
BRANCH   3  26
ATOM     26  O   UNL     1      -5.300  43.744  13.670  0.00  0.00    +0.000 OA
BRANCH  26  32
ATOM     27  O   UNL     1      -5.064  46.127  13.727  0.00  0.00    +0.000 OA
ATOM     28  C   UNL     1      -5.951  45.284  11.116  0.00  0.00    +0.000 C 
ATOM     29  C   UNL     1      -6.424  46.598  11.748  0.00  0.00    +0.000 C 
ATOM     30  C   UNL     1      -4.577  44.882  11.653  0.00  0.00    +0.000 C 
ATOM     31  C   UNL     1      -6.384  46.468  13.275  0.00  0.00    +0.000 C 
ATOM     32  C   UNL     1      -4.577  44.891  13.198  0.00  0.00    +0.000 C 
ATOM     33  C   UNL     1      -6.775  47.772  13.960  0.00  0.00    +0.000 C 
BRANCH  28  34
ATOM     34  O   UNL     1      -5.889  45.460   9.688  0.00  0.00    +0.000 OA
ATOM     35  H   UNL     1      -5.265  44.771   9.377  0.00  0.00    +0.000 HD
ENDBRANCH  28  34
BRANCH  29  36
ATOM     36  O   UNL     1      -7.744  46.892  11.278  0.00  0.00    +0.000 OA
ATOM     37  H   UNL     1      -8.116  46.033  10.996  0.00  0.00    +0.000 HD
ENDBRANCH  29  36
BRANCH  30  38
ATOM     38  O   UNL     1      -3.612  45.805  11.104  0.00  0.00    +0.000 OA
ATOM     39  H   UNL     1      -3.499  45.581  10.163  0.00  0.00    +0.000 HD
ENDBRANCH  30  38
ENDBRANCH  26  32
ENDBRANCH   3  26
TORSDOF 10
ENDMDL
MODEL 7
REMARK VINA RESULT:      -7.2     22.849     25.921
REMARK  Name = 
REMARK  11 active torsions:
REMARK  status: ('A' for Active; 'I' for Inactive)
REMARK    1  A    between atoms: O_2  and  C_16
REMARK    2  A    between atoms: O_2  and  C_18
REMARK    3  A    between atoms: O_3  and  C_12
REMARK    4  A    between atoms: O_4  and  C_13
REMARK    5  A    between atoms: O_5  and  C_14
REMARK    6  A    between atoms: O_8  and  C_24
REMARK    7  A    between atoms: O_9  and  C_29
REMARK    8  A    between atoms: O_10  and  C_30
REMARK    9  A    between atoms: O_11  and  C_32
REMARK   10  A    between atoms: C_15  and  C_17
REMARK   11  A    between atoms: C_19  and  C_23
REMARK                            x       y       z     vdW  Elec       q    Type
REMARK                         _______ _______ _______ _____ _____    ______ ____
ROOT
ATOM      1  O   UNL     1     -15.378  31.821  22.738  0.00  0.00    +0.000 OA
ATOM      2  O   UNL     1     -18.328  29.702  24.547  0.00  0.00    +0.000 OA
ATOM      3  C   UNL     1     -16.770  31.471  24.682  0.00  0.00    +0.000 A 
ATOM      4  C   UNL     1     -15.875  32.189  23.975  0.00  0.00    +0.000 A 
ATOM      5  C   UNL     1     -17.356  30.254  24.048  0.00  0.00    +0.000 A 
ATOM      6  C   UNL     1     -16.725  29.793  22.790  0.00  0.00    +0.000 A 
ATOM      7  C   UNL     1     -15.771  30.623  22.202  0.00  0.00    +0.000 A 
ATOM      8  C   UNL     1     -17.050  28.580  22.165  0.00  0.00    +0.000 A 
ATOM      9  C   UNL     1     -15.155  30.261  21.001  0.00  0.00    +0.000 A 
ATOM     10  C   UNL     1     -16.435  28.210  20.964  0.00  0.00    +0.000 A 
ATOM     11  C   UNL     1     -15.492  29.059  20.393  0.00  0.00    +0.000 A 
ENDROOT
BRANCH   4  12
ATOM     12  C   UNL     1     -15.295  33.456  24.469  0.00  0.00    +0.000 A 
ATOM     13  C   UNL     1     -16.144  34.530  24.788  0.00  0.00    +0.000 A 
ATOM     14  C   UNL     1     -13.907  33.607  24.635  0.00  0.00    +0.000 A 
ATOM     15  C   UNL     1     -15.600  35.729  25.235  0.00  0.00    +0.000 A 
ATOM     16  C   UNL     1     -13.369  34.817  25.080  0.00  0.00    +0.000 A 
ATOM     17  C   UNL     1     -14.222  35.868  25.372  0.00  0.00    +0.000 A 
BRANCH  15  18
ATOM     18  O   UNL     1     -16.382  36.807  25.548  0.00  0.00    +0.000 OA
ATOM     19  H   UNL     1     -16.249  37.492  24.870  0.00  0.00    +0.000 HD
ENDBRANCH  15  18
BRANCH  17  20
ATOM     20  O   UNL     1     -13.696  37.052  25.803  0.00  0.00    +0.000 OA
ATOM     21  H   UNL     1     -14.063  37.725  25.195  0.00  0.00    +0.000 HD
ENDBRANCH  17  20
ENDBRANCH   4  12
BRANCH   8  22
ATOM     22  O   UNL     1     -17.957  27.727  22.725  0.00  0.00    +0.000 OA
ATOM     23  H   UNL     1     -17.516  27.054  23.268  0.00  0.00    +0.000 HD
ENDBRANCH   8  22
BRANCH  11  24
ATOM     24  O   UNL     1     -14.865  28.746  19.225  0.00  0.00    +0.000 OA
ATOM     25  H   UNL     1     -14.998  29.463  18.582  0.00  0.00    +0.000 HD
ENDBRANCH  11  24
BRANCH   3  26
ATOM     26  O   UNL     1     -17.258  31.851  25.923  0.00  0.00    +0.000 OA
BRANCH  26  32
ATOM     27  O   UNL     1     -16.450  30.251  27.512  0.00  0.00    +0.000 OA
ATOM     28  C   UNL     1     -17.720  32.448  28.880  0.00  0.00    +0.000 C 
ATOM     29  C   UNL     1     -17.810  31.009  29.400  0.00  0.00    +0.000 C 
ATOM     30  C   UNL     1     -16.445  32.656  28.061  0.00  0.00    +0.000 C 
ATOM     31  C   UNL     1     -17.680  30.037  28.222  0.00  0.00    +0.000 C 
ATOM     32  C   UNL     1     -16.319  31.569  26.971  0.00  0.00    +0.000 C 
ATOM     33  C   UNL     1     -17.689  28.586  28.686  0.00  0.00    +0.000 C 
BRANCH  28  34
ATOM     34  O   UNL     1     -17.732  33.343  30.009  0.00  0.00    +0.000 OA
ATOM     35  H   UNL     1     -18.571  33.145  30.476  0.00  0.00    +0.000 HD
ENDBRANCH  28  34
BRANCH  29  36
ATOM     36  O   UNL     1     -19.053  30.840  30.089  0.00  0.00    +0.000 OA
ATOM     37  H   UNL     1     -19.389  29.966  29.806  0.00  0.00    +0.000 HD
ENDBRANCH  29  36
BRANCH  30  38
ATOM     38  O   UNL     1     -15.333  32.635  28.982  0.00  0.00    +0.000 OA
ATOM     39  H   UNL     1     -15.367  33.461  29.498  0.00  0.00    +0.000 HD
ENDBRANCH  30  38
ENDBRANCH  26  32
ENDBRANCH   3  26
TORSDOF 10
ENDMDL
MODEL 8
REMARK VINA RESULT:      -7.1     14.283     17.951
REMARK  Name = 
REMARK  11 active torsions:
REMARK  status: ('A' for Active; 'I' for Inactive)
REMARK    1  A    between atoms: O_2  and  C_16
REMARK    2  A    between atoms: O_2  and  C_18
REMARK    3  A    between atoms: O_3  and  C_12
REMARK    4  A    between atoms: O_4  and  C_13
REMARK    5  A    between atoms: O_5  and  C_14
REMARK    6  A    between atoms: O_8  and  C_24
REMARK    7  A    between atoms: O_9  and  C_29
REMARK    8  A    between atoms: O_10  and  C_30
REMARK    9  A    between atoms: O_11  and  C_32
REMARK   10  A    between atoms: C_15  and  C_17
REMARK   11  A    between atoms: C_19  and  C_23
REMARK                            x       y       z     vdW  Elec       q    Type
REMARK                         _______ _______ _______ _____ _____    ______ ____
ROOT
ATOM      1  O   UNL     1       0.083  20.376   7.438  0.00  0.00    +0.000 OA
ATOM      2  O   UNL     1       3.195  21.272   4.994  0.00  0.00    +0.000 OA
ATOM      3  C   UNL     1       0.924  20.658   5.191  0.00  0.00    +0.000 A 
ATOM      4  C   UNL     1      -0.082  20.477   6.070  0.00  0.00    +0.000 A 
ATOM      5  C   UNL     1       2.298  20.880   5.729  0.00  0.00    +0.000 A 
ATOM      6  C   UNL     1       2.490  20.637   7.177  0.00  0.00    +0.000 A 
ATOM      7  C   UNL     1       1.353  20.409   7.952  0.00  0.00    +0.000 A 
ATOM      8  C   UNL     1       3.747  20.641   7.798  0.00  0.00    +0.000 A 
ATOM      9  C   UNL     1       1.460  20.198   9.329  0.00  0.00    +0.000 A 
ATOM     10  C   UNL     1       3.862  20.428   9.176  0.00  0.00    +0.000 A 
ATOM     11  C   UNL     1       2.712  20.210   9.929  0.00  0.00    +0.000 A 
ENDROOT
BRANCH   4  12
ATOM     12  C   UNL     1      -1.493  20.334   5.653  0.00  0.00    +0.000 A 
ATOM     13  C   UNL     1      -2.386  21.402   5.846  0.00  0.00    +0.000 A 
ATOM     14  C   UNL     1      -1.961  19.148   5.057  0.00  0.00    +0.000 A 
ATOM     15  C   UNL     1      -3.718  21.262   5.472  0.00  0.00    +0.000 A 
ATOM     16  C   UNL     1      -3.302  19.015   4.689  0.00  0.00    +0.000 A 
ATOM     17  C   UNL     1      -4.169  20.074   4.904  0.00  0.00    +0.000 A 
BRANCH  15  18
ATOM     18  O   UNL     1      -4.629  22.267   5.647  0.00  0.00    +0.000 OA
ATOM     19  H   UNL     1      -4.547  22.601   6.557  0.00  0.00    +0.000 HD
ENDBRANCH  15  18
BRANCH  17  20
ATOM     20  O   UNL     1      -5.480  19.942   4.547  0.00  0.00    +0.000 OA
ATOM     21  H   UNL     1      -5.958  20.583   5.112  0.00  0.00    +0.000 HD
ENDBRANCH  17  20
ENDBRANCH   4  12
BRANCH   8  22
ATOM     22  O   UNL     1       4.886  20.832   7.069  0.00  0.00    +0.000 OA
ATOM     23  H   UNL     1       4.983  21.761   6.807  0.00  0.00    +0.000 HD
ENDBRANCH   8  22
BRANCH  11  24
ATOM     24  O   UNL     1       2.769  19.998  11.273  0.00  0.00    +0.000 OA
ATOM     25  H   UNL     1       2.435  19.108  11.476  0.00  0.00    +0.000 HD
ENDBRANCH  11  24
BRANCH   3  26
ATOM     26  O   UNL     1       0.744  20.755   3.820  0.00  0.00    +0.000 OA
BRANCH  26  32
ATOM     27  O   UNL     1      -0.806  22.471   3.197  0.00  0.00    +0.000 OA
ATOM     28  C   UNL     1       0.793  21.710   0.921  0.00  0.00    +0.000 C 
ATOM     29  C   UNL     1      -0.680  22.108   0.779  0.00  0.00    +0.000 C 
ATOM     30  C   UNL     1       1.424  22.374   2.146  0.00  0.00    +0.000 C 
ATOM     31  C   UNL     1      -1.416  21.794   2.087  0.00  0.00    +0.000 C 
ATOM     32  C   UNL     1       0.564  22.117   3.404  0.00  0.00    +0.000 C 
ATOM     33  C   UNL     1      -2.874  22.236   2.032  0.00  0.00    +0.000 C 
BRANCH  28  34
ATOM     34  O   UNL     1       1.492  22.113  -0.272  0.00  0.00    +0.000 OA
ATOM     35  H   UNL     1       0.994  21.696  -1.007  0.00  0.00    +0.000 HD
ENDBRANCH  28  34
BRANCH  29  36
ATOM     36  O   UNL     1      -1.248  21.403  -0.328  0.00  0.00    +0.000 OA
ATOM     37  H   UNL     1      -0.962  21.894  -1.124  0.00  0.00    +0.000 HD
ENDBRANCH  29  36
BRANCH  30  38
ATOM     38  O   UNL     1       1.554  23.782   1.855  0.00  0.00    +0.000 OA
ATOM     39  H   UNL     1       2.177  24.157   2.505  0.00  0.00    +0.000 HD
ENDBRANCH  30  38
ENDBRANCH  26  32
ENDBRANCH   3  26
TORSDOF 10
ENDMDL
MODEL 9
REMARK VINA RESULT:      -6.9     15.675     19.237
REMARK  Name = 
REMARK  11 active torsions:
REMARK  status: ('A' for Active; 'I' for Inactive)
REMARK    1  A    between atoms: O_2  and  C_16
REMARK    2  A    between atoms: O_2  and  C_18
REMARK    3  A    between atoms: O_3  and  C_12
REMARK    4  A    between atoms: O_4  and  C_13
REMARK    5  A    between atoms: O_5  and  C_14
REMARK    6  A    between atoms: O_8  and  C_24
REMARK    7  A    between atoms: O_9  and  C_29
REMARK    8  A    between atoms: O_10  and  C_30
REMARK    9  A    between atoms: O_11  and  C_32
REMARK   10  A    between atoms: C_15  and  C_17
REMARK   11  A    between atoms: C_19  and  C_23
REMARK                            x       y       z     vdW  Elec       q    Type
REMARK                         _______ _______ _______ _____ _____    ______ ____
ROOT
ATOM      1  O   UNL     1      -8.848  40.523  12.256  0.00  0.00    +0.000 OA
ATOM      2  O   UNL     1     -11.798  41.366  14.910  0.00  0.00    +0.000 OA
ATOM      3  C   UNL     1      -9.491  41.414  14.407  0.00  0.00    +0.000 A 
ATOM      4  C   UNL     1      -8.586  41.201  13.431  0.00  0.00    +0.000 A 
ATOM      5  C   UNL     1     -10.902  40.995  14.162  0.00  0.00    +0.000 A 
ATOM      6  C   UNL     1     -11.147  40.153  12.969  0.00  0.00    +0.000 A 
ATOM      7  C   UNL     1     -10.092  39.978  12.073  0.00  0.00    +0.000 A 
ATOM      8  C   UNL     1     -12.380  39.545  12.694  0.00  0.00    +0.000 A 
ATOM      9  C   UNL     1     -10.261  39.218  10.914  0.00  0.00    +0.000 A 
ATOM     10  C   UNL     1     -12.556  38.780  11.536  0.00  0.00    +0.000 A 
ATOM     11  C   UNL     1     -11.490  38.626  10.655  0.00  0.00    +0.000 A 
ENDROOT
BRANCH   4  12
ATOM     12  C   UNL     1      -7.182  41.651  13.531  0.00  0.00    +0.000 A 
ATOM     13  C   UNL     1      -6.190  40.747  13.948  0.00  0.00    +0.000 A 
ATOM     14  C   UNL     1      -6.814  42.970  13.207  0.00  0.00    +0.000 A 
ATOM     15  C   UNL     1      -4.871  41.174  14.061  0.00  0.00    +0.000 A 
ATOM     16  C   UNL     1      -5.488  43.391  13.327  0.00  0.00    +0.000 A 
ATOM     17  C   UNL     1      -4.529  42.489  13.758  0.00  0.00    +0.000 A 
BRANCH  15  18
ATOM     18  O   UNL     1      -3.872  40.337  14.472  0.00  0.00    +0.000 OA
ATOM     19  H   UNL     1      -4.040  39.452  14.104  0.00  0.00    +0.000 HD
ENDBRANCH  15  18
BRANCH  17  20
ATOM     20  O   UNL     1      -3.234  42.902  13.879  0.00  0.00    +0.000 OA
ATOM     21  H   UNL     1      -2.725  42.083  14.046  0.00  0.00    +0.000 HD
ENDBRANCH  17  20
ENDBRANCH   4  12
BRANCH   8  22
ATOM     22  O   UNL     1     -13.428  39.669  13.561  0.00  0.00    +0.000 OA
ATOM     23  H   UNL     1     -14.046  40.356  13.268  0.00  0.00    +0.000 HD
ENDBRANCH   8  22
BRANCH  11  24
ATOM     24  O   UNL     1     -11.608  37.892   9.513  0.00  0.00    +0.000 OA
ATOM     25  H   UNL     1     -10.782  37.947   9.005  0.00  0.00    +0.000 HD
ENDBRANCH  11  24
BRANCH   3  26
ATOM     26  O   UNL     1      -9.215  42.094  15.583  0.00  0.00    +0.000 OA
BRANCH  26  32
ATOM     27  O   UNL     1     -10.108  41.190  17.614  0.00  0.00    +0.000 OA
ATOM     28  C   UNL     1      -7.790  42.808  18.186  0.00  0.00    +0.000 C 
ATOM     29  C   UNL     1      -8.991  42.748  19.136  0.00  0.00    +0.000 C 
ATOM     30  C   UNL     1      -7.675  41.521  17.367  0.00  0.00    +0.000 C 
ATOM     31  C   UNL     1     -10.256  42.425  18.332  0.00  0.00    +0.000 C 
ATOM     32  C   UNL     1      -9.021  41.194  16.683  0.00  0.00    +0.000 C 
ATOM     33  C   UNL     1     -11.475  42.280  19.235  0.00  0.00    +0.000 C 
BRANCH  28  34
ATOM     34  O   UNL     1      -6.597  43.001  18.970  0.00  0.00    +0.000 OA
ATOM     35  H   UNL     1      -6.477  43.973  19.007  0.00  0.00    +0.000 HD
ENDBRANCH  28  34
BRANCH  29  36
ATOM     36  O   UNL     1      -9.107  44.000  19.820  0.00  0.00    +0.000 OA
ATOM     37  H   UNL     1      -8.982  43.790  20.767  0.00  0.00    +0.000 HD
ENDBRANCH  29  36
BRANCH  30  38
ATOM     38  O   UNL     1      -7.253  40.474  18.267  0.00  0.00    +0.000 OA
ATOM     39  H   UNL     1      -7.048  39.690  17.724  0.00  0.00    +0.000 HD
ENDBRANCH  30  38
ENDBRANCH  26  32
ENDBRANCH   3  26
TORSDOF 10
ENDMDL
