MODEL 1
REMARK VINA RESULT:      -6.2      0.000      0.000
REMARK  Name = 
REMARK  14 active torsions:
REMARK  status: ('A' for Active; 'I' for Inactive)
REMARK    1  A    between atoms: O_1  and  C_24
REMARK    2  A    between atoms: O_1  and  C_36
REMARK    3  A    between atoms: O_4  and  C_30
REMARK    4  A    between atoms: O_4  and  C_37
REMARK    5  A    between atoms: O_7  and  C_33
REMARK    6  A    between atoms: O_7  and  C_38
REMARK    7  A    between atoms: N_10  and  C_23
REMARK    8  A    between atoms: C_15  and  C_26
REMARK    9  A    between atoms: C_16  and  C_24
REMARK   10  A    between atoms: C_31  and  C_34
REMARK   11  A    between atoms: C_32  and  C_35
REMARK   12  A    between atoms: C_36  and  C_39
REMARK   13  A    between atoms: C_39  and  C_40
REMARK   14  A    between atoms: C_41  and  C_42
REMARK                            x       y       z     vdW  Elec       q    Type
REMARK                         _______ _______ _______ _____ _____    ______ ____
ROOT
ATOM      1  O   UNL     1      11.052  31.929  18.449  0.00  0.00    +0.000 OA
ATOM      2  O   UNL     1       7.609  34.832  21.275  0.00  0.00    +0.000 OA
ATOM      3  O   UNL     1      14.866  34.116  16.898  0.00  0.00    +0.000 OA
ATOM      4  O   UNL     1      13.325  39.166  16.262  0.00  0.00    +0.000 OA
ATOM      5  N   UNL     1      10.295  36.309  17.162  0.00  0.00    +0.000 NA
ATOM      6  N   UNL     1       8.345  34.269  16.347  0.00  0.00    +0.000 NA
ATOM      7  C   UNL     1      10.703  34.982  16.632  0.00  0.00    +0.000 C 
ATOM      8  C   UNL     1       9.634  33.858  16.975  0.00  0.00    +0.000 C 
ATOM      9  C   UNL     1       7.876  35.521  16.995  0.00  0.00    +0.000 C 
ATOM     10  C   UNL     1       8.910  36.678  16.727  0.00  0.00    +0.000 C 
ATOM     11  C   UNL     1      11.283  37.413  17.005  0.00  0.00    +0.000 C 
ATOM     12  C   UNL     1      12.107  34.595  17.143  0.00  0.00    +0.000 C 
ATOM     13  C   UNL     1       7.635  35.337  18.519  0.00  0.00    +0.000 C 
ATOM     14  C   UNL     1       9.484  33.672  18.479  0.00  0.00    +0.000 C 
ATOM     15  C   UNL     1       8.581  34.369  19.184  0.00  0.00    +0.000 C 
ATOM     16  C   UNL     1      12.723  36.962  16.815  0.00  0.00    +0.000 C 
ATOM     17  C   UNL     1      13.108  35.683  16.901  0.00  0.00    +0.000 C 
ATOM     18  C   UNL     1       7.346  33.205  16.312  0.00  0.00    +0.000 C 
ATOM     19  C   UNL     1      10.329  32.648  19.133  0.00  0.00    +0.000 C 
ATOM     20  C   UNL     1       8.446  34.195  20.646  0.00  0.00    +0.000 C 
ATOM     21  C   UNL     1      14.526  35.287  16.763  0.00  0.00    +0.000 C 
ATOM     22  C   UNL     1      13.709  38.019  16.470  0.00  0.00    +0.000 C 
ATOM     23  C   UNL     1      10.265  32.531  20.627  0.00  0.00    +0.000 C 
ATOM     24  C   UNL     1       9.364  33.242  21.323  0.00  0.00    +0.000 C 
ATOM     25  C   UNL     1      15.526  36.350  16.493  0.00  0.00    +0.000 C 
ATOM     26  C   UNL     1      15.156  37.635  16.374  0.00  0.00    +0.000 C 
ATOM     27  C   UNL     1       9.190  33.150  22.811  0.00  0.00    +0.000 C 
ATOM     28  C   UNL     1      16.944  35.869  16.373  0.00  0.00    +0.000 C 
ENDROOT
BRANCH  23  29
ATOM     29  O   UNL     1      11.088  31.642  21.308  0.00  0.00    +0.000 OA
ATOM     30  C   UNL     1      10.636  30.291  21.344  0.00  0.00    +0.000 C 
ENDBRANCH  23  29
BRANCH  26  31
ATOM     31  O   UNL     1      16.126  38.592  16.098  0.00  0.00    +0.000 OA
ATOM     32  C   UNL     1      16.635  39.282  17.238  0.00  0.00    +0.000 C 
ENDBRANCH  26  31
BRANCH  10  34
ATOM     33  N   UNL     1       8.749  37.393  14.177  0.00  0.00    +0.000 NA
ATOM     34  C   UNL     1       8.800  37.090  15.297  0.00  0.00    +0.000 C 
ENDBRANCH  10  34
BRANCH  11  35
ATOM     35  C   UNL     1      11.172  38.322  18.265  0.00  0.00    +0.000 C 
BRANCH  35  36
ATOM     36  O   UNL     1      10.846  37.507  19.410  0.00  0.00    +0.000 OA
BRANCH  36  38
ATOM     37  O   UNL     1      11.385  38.473  21.416  0.00  0.00    +0.000 OA
ATOM     38  C   UNL     1      11.629  37.711  20.495  0.00  0.00    +0.000 C 
BRANCH  38  39
ATOM     39  C   UNL     1      12.786  36.771  20.491  0.00  0.00    +0.000 C 
ATOM     40  C   UNL     1      12.397  35.348  20.776  0.00  0.00    +0.000 C 
ATOM     41  C   UNL     1      14.068  37.127  20.273  0.00  0.00    +0.000 C 
ATOM     42  C   UNL     1      14.630  38.499  20.077  0.00  0.00    +0.000 C 
ENDBRANCH  38  39
ENDBRANCH  36  38
ENDBRANCH  35  36
ENDBRANCH  11  35
TORSDOF 7
ENDMDL
MODEL 2
REMARK VINA RESULT:      -6.1     13.477     16.989
REMARK  Name = 
REMARK  14 active torsions:
REMARK  status: ('A' for Active; 'I' for Inactive)
REMARK    1  A    between atoms: O_1  and  C_24
REMARK    2  A    between atoms: O_1  and  C_36
REMARK    3  A    between atoms: O_4  and  C_30
REMARK    4  A    between atoms: O_4  and  C_37
REMARK    5  A    between atoms: O_7  and  C_33
REMARK    6  A    between atoms: O_7  and  C_38
REMARK    7  A    between atoms: N_10  and  C_23
REMARK    8  A    between atoms: C_15  and  C_26
REMARK    9  A    between atoms: C_16  and  C_24
REMARK   10  A    between atoms: C_31  and  C_34
REMARK   11  A    between atoms: C_32  and  C_35
REMARK   12  A    between atoms: C_36  and  C_39
REMARK   13  A    between atoms: C_39  and  C_40
REMARK   14  A    between atoms: C_41  and  C_42
REMARK                            x       y       z     vdW  Elec       q    Type
REMARK                         _______ _______ _______ _____ _____    ______ ____
ROOT
ATOM      1  O   UNL     1       0.907  41.386  17.914  0.00  0.00    +0.000 OA
ATOM      2  O   UNL     1       2.565  46.350  18.850  0.00  0.00    +0.000 OA
ATOM      3  O   UNL     1      -3.390  40.901  16.169  0.00  0.00    +0.000 OA
ATOM      4  O   UNL     1      -6.060  45.098  18.050  0.00  0.00    +0.000 OA
ATOM      5  N   UNL     1      -2.139  44.443  19.585  0.00  0.00    +0.000 NA
ATOM      6  N   UNL     1      -0.285  43.163  21.470  0.00  0.00    +0.000 NA
ATOM      7  C   UNL     1      -1.836  42.988  19.543  0.00  0.00    +0.000 C 
ATOM      8  C   UNL     1      -0.367  42.680  20.061  0.00  0.00    +0.000 C 
ATOM      9  C   UNL     1      -0.442  44.640  21.477  0.00  0.00    +0.000 C 
ATOM     10  C   UNL     1      -1.870  45.026  20.939  0.00  0.00    +0.000 C 
ATOM     11  C   UNL     1      -3.447  44.859  19.006  0.00  0.00    +0.000 C 
ATOM     12  C   UNL     1      -2.062  42.421  18.125  0.00  0.00    +0.000 C 
ATOM     13  C   UNL     1       0.670  45.351  20.656  0.00  0.00    +0.000 C 
ATOM     14  C   UNL     1       0.685  43.345  19.184  0.00  0.00    +0.000 C 
ATOM     15  C   UNL     1       1.140  44.578  19.450  0.00  0.00    +0.000 C 
ATOM     16  C   UNL     1      -4.051  43.878  18.014  0.00  0.00    +0.000 C 
ATOM     17  C   UNL     1      -3.415  42.779  17.590  0.00  0.00    +0.000 C 
ATOM     18  C   UNL     1       0.894  42.685  22.185  0.00  0.00    +0.000 C 
ATOM     19  C   UNL     1       1.238  42.559  18.058  0.00  0.00    +0.000 C 
ATOM     20  C   UNL     1       2.152  45.226  18.589  0.00  0.00    +0.000 C 
ATOM     21  C   UNL     1      -4.011  41.874  16.584  0.00  0.00    +0.000 C 
ATOM     22  C   UNL     1      -5.436  44.165  17.556  0.00  0.00    +0.000 C 
ATOM     23  C   UNL     1       2.195  43.242  17.127  0.00  0.00    +0.000 C 
ATOM     24  C   UNL     1       2.635  44.481  17.397  0.00  0.00    +0.000 C 
ATOM     25  C   UNL     1      -5.364  42.198  16.067  0.00  0.00    +0.000 C 
ATOM     26  C   UNL     1      -6.030  43.280  16.500  0.00  0.00    +0.000 C 
ATOM     27  C   UNL     1       3.632  45.221  16.554  0.00  0.00    +0.000 C 
ATOM     28  C   UNL     1      -5.897  41.237  15.044  0.00  0.00    +0.000 C 
ENDROOT
BRANCH  23  29
ATOM     29  O   UNL     1       2.692  42.584  16.007  0.00  0.00    +0.000 OA
ATOM     30  C   UNL     1       3.769  41.683  16.252  0.00  0.00    +0.000 C 
ENDBRANCH  23  29
BRANCH  26  31
ATOM     31  O   UNL     1      -7.305  43.529  16.004  0.00  0.00    +0.000 OA
ATOM     32  C   UNL     1      -8.374  43.039  16.811  0.00  0.00    +0.000 C 
ENDBRANCH  26  31
BRANCH  10  34
ATOM     33  N   UNL     1      -3.660  44.427  22.803  0.00  0.00    +0.000 NA
ATOM     34  C   UNL     1      -2.881  44.670  21.977  0.00  0.00    +0.000 C 
ENDBRANCH  10  34
BRANCH  11  35
ATOM     35  C   UNL     1      -3.236  46.244  18.324  0.00  0.00    +0.000 C 
BRANCH  35  36
ATOM     36  O   UNL     1      -2.038  46.197  17.519  0.00  0.00    +0.000 OA
BRANCH  36  38
ATOM     37  O   UNL     1      -2.394  47.666  15.798  0.00  0.00    +0.000 OA
ATOM     38  C   UNL     1      -2.213  46.536  16.220  0.00  0.00    +0.000 C 
BRANCH  38  39
ATOM     39  C   UNL     1      -2.018  45.350  15.338  0.00  0.00    +0.000 C 
ATOM     40  C   UNL     1      -0.647  44.744  15.450  0.00  0.00    +0.000 C 
ATOM     41  C   UNL     1      -2.948  44.851  14.500  0.00  0.00    +0.000 C 
ATOM     42  C   UNL     1      -4.310  45.390  14.198  0.00  0.00    +0.000 C 
ENDBRANCH  38  39
ENDBRANCH  36  38
ENDBRANCH  35  36
ENDBRANCH  11  35
TORSDOF 7
ENDMDL
MODEL 3
REMARK VINA RESULT:      -5.9      2.719      4.827
REMARK  Name = 
REMARK  14 active torsions:
REMARK  status: ('A' for Active; 'I' for Inactive)
REMARK    1  A    between atoms: O_1  and  C_24
REMARK    2  A    between atoms: O_1  and  C_36
REMARK    3  A    between atoms: O_4  and  C_30
REMARK    4  A    between atoms: O_4  and  C_37
REMARK    5  A    between atoms: O_7  and  C_33
REMARK    6  A    between atoms: O_7  and  C_38
REMARK    7  A    between atoms: N_10  and  C_23
REMARK    8  A    between atoms: C_15  and  C_26
REMARK    9  A    between atoms: C_16  and  C_24
REMARK   10  A    between atoms: C_31  and  C_34
REMARK   11  A    between atoms: C_32  and  C_35
REMARK   12  A    between atoms: C_36  and  C_39
REMARK   13  A    between atoms: C_39  and  C_40
REMARK   14  A    between atoms: C_41  and  C_42
REMARK                            x       y       z     vdW  Elec       q    Type
REMARK                         _______ _______ _______ _____ _____    ______ ____
ROOT
ATOM      1  O   UNL     1      14.208  31.796  17.813  0.00  0.00    +0.000 OA
ATOM      2  O   UNL     1      10.610  29.766  21.159  0.00  0.00    +0.000 OA
ATOM      3  O   UNL     1      13.304  36.025  16.069  0.00  0.00    +0.000 OA
ATOM      4  O   UNL     1       7.995  36.297  15.954  0.00  0.00    +0.000 OA
ATOM      5  N   UNL     1       9.726  32.528  16.928  0.00  0.00    +0.000 NA
ATOM      6  N   UNL     1      10.886  29.942  16.155  0.00  0.00    +0.000 NA
ATOM      7  C   UNL     1      11.051  32.414  16.266  0.00  0.00    +0.000 C 
ATOM      8  C   UNL     1      11.772  31.045  16.626  0.00  0.00    +0.000 C 
ATOM      9  C   UNL     1       9.622  29.980  16.935  0.00  0.00    +0.000 C 
ATOM     10  C   UNL     1       8.865  31.332  16.655  0.00  0.00    +0.000 C 
ATOM     11  C   UNL     1       9.014  33.825  16.758  0.00  0.00    +0.000 C 
ATOM     12  C   UNL     1      11.943  33.626  16.610  0.00  0.00    +0.000 C 
ATOM     13  C   UNL     1       9.867  29.788  18.458  0.00  0.00    +0.000 C 
ATOM     14  C   UNL     1      12.048  30.937  18.119  0.00  0.00    +0.000 C 
ATOM     15  C   UNL     1      11.161  30.379  18.957  0.00  0.00    +0.000 C 
ATOM     16  C   UNL     1       9.906  35.004  16.400  0.00  0.00    +0.000 C 
ATOM     17  C   UNL     1      11.241  34.925  16.355  0.00  0.00    +0.000 C 
ATOM     18  C   UNL     1      11.537  28.636  16.138  0.00  0.00    +0.000 C 
ATOM     19  C   UNL     1      13.360  31.414  18.613  0.00  0.00    +0.000 C 
ATOM     20  C   UNL     1      11.427  30.286  20.407  0.00  0.00    +0.000 C 
ATOM     21  C   UNL     1      12.081  36.105  16.053  0.00  0.00    +0.000 C 
ATOM     22  C   UNL     1       9.219  36.271  16.040  0.00  0.00    +0.000 C 
ATOM     23  C   UNL     1      13.599  31.408  20.094  0.00  0.00    +0.000 C 
ATOM     24  C   UNL     1      12.698  30.858  20.923  0.00  0.00    +0.000 C 
ATOM     25  C   UNL     1      11.400  37.392  15.768  0.00  0.00    +0.000 C 
ATOM     26  C   UNL     1      10.060  37.485  15.780  0.00  0.00    +0.000 C 
ATOM     27  C   UNL     1      12.877  30.758  22.410  0.00  0.00    +0.000 C 
ATOM     28  C   UNL     1      12.319  38.544  15.479  0.00  0.00    +0.000 C 
ENDROOT
BRANCH  23  29
ATOM     29  O   UNL     1      14.780  31.914  20.626  0.00  0.00    +0.000 OA
ATOM     30  C   UNL     1      14.838  33.332  20.752  0.00  0.00    +0.000 C 
ENDBRANCH  23  29
BRANCH  26  31
ATOM     31  O   UNL     1       9.468  38.708  15.483  0.00  0.00    +0.000 OA
ATOM     32  C   UNL     1       9.105  39.493  16.617  0.00  0.00    +0.000 C 
ENDBRANCH  26  31
BRANCH  10  34
ATOM     33  N   UNL     1       7.821  31.247  14.217  0.00  0.00    +0.000 NA
ATOM     34  C   UNL     1       8.297  31.281  15.275  0.00  0.00    +0.000 C 
ENDBRANCH  10  34
BRANCH  11  35
ATOM     35  C   UNL     1       8.254  34.118  18.086  0.00  0.00    +0.000 C 
BRANCH  35  36
ATOM     36  O   UNL     1       8.991  33.550  19.189  0.00  0.00    +0.000 OA
BRANCH  36  38
ATOM     37  O   UNL     1       8.040  34.998  20.688  0.00  0.00    +0.000 OA
ATOM     38  C   UNL     1       8.957  34.276  20.331  0.00  0.00    +0.000 C 
BRANCH  38  39
ATOM     39  C   UNL     1      10.145  33.976  21.180  0.00  0.00    +0.000 C 
ATOM     40  C   UNL     1      11.411  34.611  20.677  0.00  0.00    +0.000 C 
ATOM     41  C   UNL     1      10.128  33.204  22.285  0.00  0.00    +0.000 C 
ATOM     42  C   UNL     1       8.986  32.425  22.856  0.00  0.00    +0.000 C 
ENDBRANCH  38  39
ENDBRANCH  36  38
ENDBRANCH  35  36
ENDBRANCH  11  35
TORSDOF 7
ENDMDL
MODEL 4
REMARK VINA RESULT:      -5.8      1.668      6.630
REMARK  Name = 
REMARK  14 active torsions:
REMARK  status: ('A' for Active; 'I' for Inactive)
REMARK    1  A    between atoms: O_1  and  C_24
REMARK    2  A    between atoms: O_1  and  C_36
REMARK    3  A    between atoms: O_4  and  C_30
REMARK    4  A    between atoms: O_4  and  C_37
REMARK    5  A    between atoms: O_7  and  C_33
REMARK    6  A    between atoms: O_7  and  C_38
REMARK    7  A    between atoms: N_10  and  C_23
REMARK    8  A    between atoms: C_15  and  C_26
REMARK    9  A    between atoms: C_16  and  C_24
REMARK   10  A    between atoms: C_31  and  C_34
REMARK   11  A    between atoms: C_32  and  C_35
REMARK   12  A    between atoms: C_36  and  C_39
REMARK   13  A    between atoms: C_39  and  C_40
REMARK   14  A    between atoms: C_41  and  C_42
REMARK                            x       y       z     vdW  Elec       q    Type
REMARK                         _______ _______ _______ _____ _____    ______ ____
ROOT
ATOM      1  O   UNL     1      10.152  38.778  19.329  0.00  0.00    +0.000 OA
ATOM      2  O   UNL     1      13.014  37.573  15.013  0.00  0.00    +0.000 OA
ATOM      3  O   UNL     1       9.835  35.493  22.623  0.00  0.00    +0.000 OA
ATOM      4  O   UNL     1      10.233  30.909  19.958  0.00  0.00    +0.000 OA
ATOM      5  N   UNL     1       9.890  34.474  17.649  0.00  0.00    +0.000 NA
ATOM      6  N   UNL     1       8.288  36.566  16.353  0.00  0.00    +0.000 NA
ATOM      7  C   UNL     1       9.120  35.483  18.422  0.00  0.00    +0.000 C 
ATOM      8  C   UNL     1       8.995  36.856  17.634  0.00  0.00    +0.000 C 
ATOM      9  C   UNL     1       9.142  35.674  15.528  0.00  0.00    +0.000 C 
ATOM     10  C   UNL     1       9.341  34.298  16.267  0.00  0.00    +0.000 C 
ATOM     11  C   UNL     1      10.175  33.188  18.346  0.00  0.00    +0.000 C 
ATOM     12  C   UNL     1       9.739  35.694  19.820  0.00  0.00    +0.000 C 
ATOM     13  C   UNL     1      10.512  36.323  15.188  0.00  0.00    +0.000 C 
ATOM     14  C   UNL     1      10.360  37.483  17.385  0.00  0.00    +0.000 C 
ATOM     15  C   UNL     1      11.060  37.217  16.272  0.00  0.00    +0.000 C 
ATOM     16  C   UNL     1      10.116  33.255  19.864  0.00  0.00    +0.000 C 
ATOM     17  C   UNL     1       9.942  34.396  20.541  0.00  0.00    +0.000 C 
ATOM     18  C   UNL     1       7.827  37.763  15.656  0.00  0.00    +0.000 C 
ATOM     19  C   UNL     1      10.866  38.448  18.387  0.00  0.00    +0.000 C 
ATOM     20  C   UNL     1      12.390  37.818  16.039  0.00  0.00    +0.000 C 
ATOM     21  C   UNL     1       9.942  34.431  22.020  0.00  0.00    +0.000 C 
ATOM     22  C   UNL     1      10.209  31.961  20.589  0.00  0.00    +0.000 C 
ATOM     23  C   UNL     1      12.253  38.989  18.204  0.00  0.00    +0.000 C 
ATOM     24  C   UNL     1      12.949  38.707  17.091  0.00  0.00    +0.000 C 
ATOM     25  C   UNL     1      10.111  33.149  22.750  0.00  0.00    +0.000 C 
ATOM     26  C   UNL     1      10.258  31.990  22.088  0.00  0.00    +0.000 C 
ATOM     27  C   UNL     1      14.318  39.246  16.797  0.00  0.00    +0.000 C 
ATOM     28  C   UNL     1      10.107  33.268  24.246  0.00  0.00    +0.000 C 
ENDROOT
BRANCH  23  29
ATOM     29  O   UNL     1      12.816  39.839  19.149  0.00  0.00    +0.000 OA
ATOM     30  C   UNL     1      13.371  39.201  20.296  0.00  0.00    +0.000 C 
ENDBRANCH  23  29
BRANCH  26  31
ATOM     31  O   UNL     1      10.389  30.812  22.815  0.00  0.00    +0.000 OA
ATOM     32  C   UNL     1      11.726  30.334  22.952  0.00  0.00    +0.000 C 
ENDBRANCH  26  31
BRANCH  10  34
ATOM     33  N   UNL     1       7.049  32.969  16.132  0.00  0.00    +0.000 NA
ATOM     34  C   UNL     1       8.060  33.534  16.203  0.00  0.00    +0.000 C 
ENDBRANCH  10  34
BRANCH  11  35
ATOM     35  C   UNL     1      11.586  32.712  17.889  0.00  0.00    +0.000 C 
BRANCH  35  36
ATOM     36  O   UNL     1      12.339  33.849  17.414  0.00  0.00    +0.000 OA
BRANCH  36  38
ATOM     37  O   UNL     1      14.311  32.694  17.259  0.00  0.00    +0.000 OA
ATOM     38  C   UNL     1      13.683  33.714  17.492  0.00  0.00    +0.000 C 
BRANCH  38  39
ATOM     39  C   UNL     1      14.327  35.028  17.776  0.00  0.00    +0.000 C 
ATOM     40  C   UNL     1      15.225  35.500  16.667  0.00  0.00    +0.000 C 
ATOM     41  C   UNL     1      14.158  35.743  18.906  0.00  0.00    +0.000 C 
ATOM     42  C   UNL     1      13.388  35.370  20.133  0.00  0.00    +0.000 C 
ENDBRANCH  38  39
ENDBRANCH  36  38
ENDBRANCH  35  36
ENDBRANCH  11  35
TORSDOF 7
ENDMDL
MODEL 5
REMARK VINA RESULT:      -5.6     13.954     17.517
REMARK  Name = 
REMARK  14 active torsions:
REMARK  status: ('A' for Active; 'I' for Inactive)
REMARK    1  A    between atoms: O_1  and  C_24
REMARK    2  A    between atoms: O_1  and  C_36
REMARK    3  A    between atoms: O_4  and  C_30
REMARK    4  A    between atoms: O_4  and  C_37
REMARK    5  A    between atoms: O_7  and  C_33
REMARK    6  A    between atoms: O_7  and  C_38
REMARK    7  A    between atoms: N_10  and  C_23
REMARK    8  A    between atoms: C_15  and  C_26
REMARK    9  A    between atoms: C_16  and  C_24
REMARK   10  A    between atoms: C_31  and  C_34
REMARK   11  A    between atoms: C_32  and  C_35
REMARK   12  A    between atoms: C_36  and  C_39
REMARK   13  A    between atoms: C_39  and  C_40
REMARK   14  A    between atoms: C_41  and  C_42
REMARK                            x       y       z     vdW  Elec       q    Type
REMARK                         _______ _______ _______ _____ _____    ______ ____
ROOT
ATOM      1  O   UNL     1       0.561  41.657  19.305  0.00  0.00    +0.000 OA
ATOM      2  O   UNL     1       2.337  46.663  19.079  0.00  0.00    +0.000 OA
ATOM      3  O   UNL     1      -4.055  41.052  19.038  0.00  0.00    +0.000 OA
ATOM      4  O   UNL     1      -6.092  45.498  21.126  0.00  0.00    +0.000 OA
ATOM      5  N   UNL     1      -1.878  44.953  21.450  0.00  0.00    +0.000 NA
ATOM      6  N   UNL     1       0.488  43.873  22.813  0.00  0.00    +0.000 NA
ATOM      7  C   UNL     1      -1.577  43.498  21.492  0.00  0.00    +0.000 C 
ATOM      8  C   UNL     1      -0.014  43.225  21.568  0.00  0.00    +0.000 C 
ATOM      9  C   UNL     1       0.315  45.343  22.690  0.00  0.00    +0.000 C 
ATOM     10  C   UNL     1      -1.217  45.689  22.574  0.00  0.00    +0.000 C 
ATOM     11  C   UNL     1      -3.308  45.323  21.255  0.00  0.00    +0.000 C 
ATOM     12  C   UNL     1      -2.217  42.769  20.292  0.00  0.00    +0.000 C 
ATOM     13  C   UNL     1       1.107  45.927  21.487  0.00  0.00    +0.000 C 
ATOM     14  C   UNL     1       0.705  43.758  20.336  0.00  0.00    +0.000 C 
ATOM     15  C   UNL     1       1.197  45.005  20.298  0.00  0.00    +0.000 C 
ATOM     16  C   UNL     1      -4.170  44.242  20.622  0.00  0.00    +0.000 C 
ATOM     17  C   UNL     1      -3.675  43.088  20.160  0.00  0.00    +0.000 C 
ATOM     18  C   UNL     1       1.839  43.460  23.184  0.00  0.00    +0.000 C 
ATOM     19  C   UNL     1       0.899  42.831  19.198  0.00  0.00    +0.000 C 
ATOM     20  C   UNL     1       1.884  45.523  19.096  0.00  0.00    +0.000 C 
ATOM     21  C   UNL     1      -4.536  42.080  19.503  0.00  0.00    +0.000 C 
ATOM     22  C   UNL     1      -5.633  44.499  20.581  0.00  0.00    +0.000 C 
ATOM     23  C   UNL     1       1.511  43.377  17.942  0.00  0.00    +0.000 C 
ATOM     24  C   UNL     1       1.990  44.631  17.912  0.00  0.00    +0.000 C 
ATOM     25  C   UNL     1      -5.988  42.366  19.391  0.00  0.00    +0.000 C 
ATOM     26  C   UNL     1      -6.508  43.506  19.875  0.00  0.00    +0.000 C 
ATOM     27  C   UNL     1       2.667  45.243  16.720  0.00  0.00    +0.000 C 
ATOM     28  C   UNL     1      -6.792  41.300  18.706  0.00  0.00    +0.000 C 
ENDROOT
BRANCH  23  29
ATOM     29  O   UNL     1       1.651  42.579  16.812  0.00  0.00    +0.000 OA
ATOM     30  C   UNL     1       2.755  41.678  16.830  0.00  0.00    +0.000 C 
ENDBRANCH  23  29
BRANCH  26  31
ATOM     31  O   UNL     1      -7.878  43.719  19.767  0.00  0.00    +0.000 OA
ATOM     32  C   UNL     1      -8.640  43.327  20.908  0.00  0.00    +0.000 C 
ENDBRANCH  26  31
BRANCH  10  34
ATOM     33  N   UNL     1      -2.335  45.356  24.957  0.00  0.00    +0.000 NA
ATOM     34  C   UNL     1      -1.852  45.482  23.908  0.00  0.00    +0.000 C 
ENDBRANCH  10  34
BRANCH  11  35
ATOM     35  C   UNL     1      -3.342  46.611  20.378  0.00  0.00    +0.000 C 
BRANCH  35  36
ATOM     36  O   UNL     1      -2.361  46.493  19.326  0.00  0.00    +0.000 OA
BRANCH  36  38
ATOM     37  O   UNL     1      -3.017  47.799  17.562  0.00  0.00    +0.000 OA
ATOM     38  C   UNL     1      -2.838  46.708  18.078  0.00  0.00    +0.000 C 
BRANCH  38  39
ATOM     39  C   UNL     1      -2.995  45.418  17.347  0.00  0.00    +0.000 C 
ATOM     40  C   UNL     1      -1.691  44.714  17.097  0.00  0.00    +0.000 C 
ATOM     41  C   UNL     1      -4.170  44.909  16.923  0.00  0.00    +0.000 C 
ATOM     42  C   UNL     1      -5.530  45.526  17.001  0.00  0.00    +0.000 C 
ENDBRANCH  38  39
ENDBRANCH  36  38
ENDBRANCH  35  36
ENDBRANCH  11  35
TORSDOF 7
ENDMDL
MODEL 6
REMARK VINA RESULT:      -5.3     27.445     30.110
REMARK  Name = 
REMARK  14 active torsions:
REMARK  status: ('A' for Active; 'I' for Inactive)
REMARK    1  A    between atoms: O_1  and  C_24
REMARK    2  A    between atoms: O_1  and  C_36
REMARK    3  A    between atoms: O_4  and  C_30
REMARK    4  A    between atoms: O_4  and  C_37
REMARK    5  A    between atoms: O_7  and  C_33
REMARK    6  A    between atoms: O_7  and  C_38
REMARK    7  A    between atoms: N_10  and  C_23
REMARK    8  A    between atoms: C_15  and  C_26
REMARK    9  A    between atoms: C_16  and  C_24
REMARK   10  A    between atoms: C_31  and  C_34
REMARK   11  A    between atoms: C_32  and  C_35
REMARK   12  A    between atoms: C_36  and  C_39
REMARK   13  A    between atoms: C_39  and  C_40
REMARK   14  A    between atoms: C_41  and  C_42
REMARK                            x       y       z     vdW  Elec       q    Type
REMARK                         _______ _______ _______ _____ _____    ______ ____
ROOT
ATOM      1  O   UNL     1      -2.568  59.132  14.981  0.00  0.00    +0.000 OA
ATOM      2  O   UNL     1       0.829  61.813  18.069  0.00  0.00    +0.000 OA
ATOM      3  O   UNL     1      -2.614  60.243  10.452  0.00  0.00    +0.000 OA
ATOM      4  O   UNL     1      -1.207  65.369  10.336  0.00  0.00    +0.000 OA
ATOM      5  N   UNL     1      -1.945  63.644  14.161  0.00  0.00    +0.000 NA
ATOM      6  N   UNL     1      -3.758  62.869  16.338  0.00  0.00    +0.000 NA
ATOM      7  C   UNL     1      -2.941  62.550  14.019  0.00  0.00    +0.000 C 
ATOM      8  C   UNL     1      -3.227  61.832  15.407  0.00  0.00    +0.000 C 
ATOM      9  C   UNL     1      -2.695  63.876  16.587  0.00  0.00    +0.000 C 
ATOM     10  C   UNL     1      -2.331  64.608  15.241  0.00  0.00    +0.000 C 
ATOM     11  C   UNL     1      -1.509  64.305  12.900  0.00  0.00    +0.000 C 
ATOM     12  C   UNL     1      -2.493  61.536  12.945  0.00  0.00    +0.000 C 
ATOM     13  C   UNL     1      -1.430  63.246  17.234  0.00  0.00    +0.000 C 
ATOM     14  C   UNL     1      -1.972  61.176  15.964  0.00  0.00    +0.000 C 
ATOM     15  C   UNL     1      -1.141  61.836  16.784  0.00  0.00    +0.000 C 
ATOM     16  C   UNL     1      -1.713  63.480  11.639  0.00  0.00    +0.000 C 
ATOM     17  C   UNL     1      -2.137  62.211  11.655  0.00  0.00    +0.000 C 
ATOM     18  C   UNL     1      -4.351  62.316  17.552  0.00  0.00    +0.000 C 
ATOM     19  C   UNL     1      -1.728  59.756  15.620  0.00  0.00    +0.000 C 
ATOM     20  C   UNL     1       0.083  61.200  17.314  0.00  0.00    +0.000 C 
ATOM     21  C   UNL     1      -2.275  61.421  10.412  0.00  0.00    +0.000 C 
ATOM     22  C   UNL     1      -1.466  64.170  10.346  0.00  0.00    +0.000 C 
ATOM     23  C   UNL     1      -0.442  59.133  16.077  0.00  0.00    +0.000 C 
ATOM     24  C   UNL     1       0.387  59.809  16.888  0.00  0.00    +0.000 C 
ATOM     25  C   UNL     1      -1.956  62.084   9.123  0.00  0.00    +0.000 C 
ATOM     26  C   UNL     1      -1.556  63.365   9.084  0.00  0.00    +0.000 C 
ATOM     27  C   UNL     1       1.666  59.246  17.438  0.00  0.00    +0.000 C 
ATOM     28  C   UNL     1      -2.113  61.215   7.909  0.00  0.00    +0.000 C 
ENDROOT
BRANCH  23  29
ATOM     29  O   UNL     1      -0.118  57.828  15.723  0.00  0.00    +0.000 OA
ATOM     30  C   UNL     1      -0.662  56.811  16.561  0.00  0.00    +0.000 C 
ENDBRANCH  23  29
BRANCH  26  31
ATOM     31  O   UNL     1      -1.291  63.950   7.850  0.00  0.00    +0.000 OA
ATOM     32  C   UNL     1       0.085  63.974   7.478  0.00  0.00    +0.000 C 
ENDBRANCH  26  31
BRANCH  10  34
ATOM     33  N   UNL     1      -4.301  66.266  14.602  0.00  0.00    +0.000 NA
ATOM     34  C   UNL     1      -3.452  65.524  14.880  0.00  0.00    +0.000 C 
ENDBRANCH  10  34
BRANCH  11  35
ATOM     35  C   UNL     1      -0.002  64.668  13.060  0.00  0.00    +0.000 C 
BRANCH  35  36
ATOM     36  O   UNL     1       0.605  63.766  14.009  0.00  0.00    +0.000 OA
BRANCH  36  38
ATOM     37  O   UNL     1       2.185  65.327  14.568  0.00  0.00    +0.000 OA
ATOM     38  C   UNL     1       1.802  64.171  14.493  0.00  0.00    +0.000 C 
BRANCH  38  39
ATOM     39  C   UNL     1       2.557  63.016  15.059  0.00  0.00    +0.000 C 
ATOM     40  C   UNL     1       2.174  61.699  14.446  0.00  0.00    +0.000 C 
ATOM     41  C   UNL     1       3.486  63.104  16.032  0.00  0.00    +0.000 C 
ATOM     42  C   UNL     1       3.905  64.312  16.808  0.00  0.00    +0.000 C 
ENDBRANCH  38  39
ENDBRANCH  36  38
ENDBRANCH  35  36
ENDBRANCH  11  35
TORSDOF 7
ENDMDL
MODEL 7
REMARK VINA RESULT:      -5.2     20.917     23.992
REMARK  Name = 
REMARK  14 active torsions:
REMARK  status: ('A' for Active; 'I' for Inactive)
REMARK    1  A    between atoms: O_1  and  C_24
REMARK    2  A    between atoms: O_1  and  C_36
REMARK    3  A    between atoms: O_4  and  C_30
REMARK    4  A    between atoms: O_4  and  C_37
REMARK    5  A    between atoms: O_7  and  C_33
REMARK    6  A    between atoms: O_7  and  C_38
REMARK    7  A    between atoms: N_10  and  C_23
REMARK    8  A    between atoms: C_15  and  C_26
REMARK    9  A    between atoms: C_16  and  C_24
REMARK   10  A    between atoms: C_31  and  C_34
REMARK   11  A    between atoms: C_32  and  C_35
REMARK   12  A    between atoms: C_36  and  C_39
REMARK   13  A    between atoms: C_39  and  C_40
REMARK   14  A    between atoms: C_41  and  C_42
REMARK                            x       y       z     vdW  Elec       q    Type
REMARK                         _______ _______ _______ _____ _____    ______ ____
ROOT
ATOM      1  O   UNL     1      -1.696  20.706   6.129  0.00  0.00    +0.000 OA
ATOM      2  O   UNL     1      -0.128  15.787   7.399  0.00  0.00    +0.000 OA
ATOM      3  O   UNL     1       0.317  22.655   2.401  0.00  0.00    +0.000 OA
ATOM      4  O   UNL     1       5.153  20.454   2.211  0.00  0.00    +0.000 OA
ATOM      5  N   UNL     1       2.781  19.635   5.654  0.00  0.00    +0.000 NA
ATOM      6  N   UNL     1       1.798  20.321   8.335  0.00  0.00    +0.000 NA
ATOM      7  C   UNL     1       1.866  20.780   5.899  0.00  0.00    +0.000 C 
ATOM      8  C   UNL     1       0.919  20.518   7.147  0.00  0.00    +0.000 C 
ATOM      9  C   UNL     1       2.599  19.086   8.137  0.00  0.00    +0.000 C 
ATOM     10  C   UNL     1       3.543  19.260   6.888  0.00  0.00    +0.000 C 
ATOM     11  C   UNL     1       3.630  19.721   4.433  0.00  0.00    +0.000 C 
ATOM     12  C   UNL     1       1.048  21.110   4.633  0.00  0.00    +0.000 C 
ATOM     13  C   UNL     1       1.704  17.825   7.984  0.00  0.00    +0.000 C 
ATOM     14  C   UNL     1       0.017  19.313   6.918  0.00  0.00    +0.000 C 
ATOM     15  C   UNL     1       0.392  18.078   7.284  0.00  0.00    +0.000 C 
ATOM     16  C   UNL     1       3.111  20.659   3.355  0.00  0.00    +0.000 C 
ATOM     17  C   UNL     1       1.925  21.276   3.430  0.00  0.00    +0.000 C 
ATOM     18  C   UNL     1       1.083  20.371   9.607  0.00  0.00    +0.000 C 
ATOM     19  C   UNL     1      -1.321  19.555   6.332  0.00  0.00    +0.000 C 
ATOM     20  C   UNL     1      -0.480  16.908   7.051  0.00  0.00    +0.000 C 
ATOM     21  C   UNL     1       1.428  22.142   2.338  0.00  0.00    +0.000 C 
ATOM     22  C   UNL     1       4.017  20.917   2.205  0.00  0.00    +0.000 C 
ATOM     23  C   UNL     1      -2.173  18.365   6.006  0.00  0.00    +0.000 C 
ATOM     24  C   UNL     1      -1.781  17.132   6.367  0.00  0.00    +0.000 C 
ATOM     25  C   UNL     1       2.299  22.340   1.152  0.00  0.00    +0.000 C 
ATOM     26  C   UNL     1       3.504  21.754   1.072  0.00  0.00    +0.000 C 
ATOM     27  C   UNL     1      -2.592  15.891   6.132  0.00  0.00    +0.000 C 
ATOM     28  C   UNL     1       1.722  23.226   0.086  0.00  0.00    +0.000 C 
ENDROOT
BRANCH  23  29
ATOM     29  O   UNL     1      -3.406  18.521   5.384  0.00  0.00    +0.000 OA
ATOM     30  C   UNL     1      -4.503  18.787   6.254  0.00  0.00    +0.000 C 
ENDBRANCH  23  29
BRANCH  26  31
ATOM     31  O   UNL     1       4.294  21.990  -0.049  0.00  0.00    +0.000 OA
ATOM     32  C   UNL     1       4.274  20.954  -1.029  0.00  0.00    +0.000 C 
ENDBRANCH  26  31
BRANCH  10  34
ATOM     33  N   UNL     1       5.516  20.909   7.539  0.00  0.00    +0.000 NA
ATOM     34  C   UNL     1       4.640  20.204   7.249  0.00  0.00    +0.000 C 
ENDBRANCH  10  34
BRANCH  11  35
ATOM     35  C   UNL     1       3.771  18.279   3.860  0.00  0.00    +0.000 C 
BRANCH  35  36
ATOM     36  O   UNL     1       2.519  17.580   4.022  0.00  0.00    +0.000 OA
BRANCH  36  38
ATOM     37  O   UNL     1       2.332  17.362   1.749  0.00  0.00    +0.000 OA
ATOM     38  C   UNL     1       1.851  17.335   2.870  0.00  0.00    +0.000 C 
BRANCH  38  39
ATOM     39  C   UNL     1       0.457  16.889   3.156  0.00  0.00    +0.000 C 
ATOM     40  C   UNL     1       0.384  15.501   3.729  0.00  0.00    +0.000 C 
ATOM     41  C   UNL     1      -0.650  17.621   2.924  0.00  0.00    +0.000 C 
ATOM     42  C   UNL     1      -0.756  18.964   2.273  0.00  0.00    +0.000 C 
ENDBRANCH  38  39
ENDBRANCH  36  38
ENDBRANCH  35  36
ENDBRANCH  11  35
TORSDOF 7
ENDMDL
MODEL 8
REMARK VINA RESULT:      -5.2     33.775     36.965
REMARK  Name = 
REMARK  14 active torsions:
REMARK  status: ('A' for Active; 'I' for Inactive)
REMARK    1  A    between atoms: O_1  and  C_24
REMARK    2  A    between atoms: O_1  and  C_36
REMARK    3  A    between atoms: O_4  and  C_30
REMARK    4  A    between atoms: O_4  and  C_37
REMARK    5  A    between atoms: O_7  and  C_33
REMARK    6  A    between atoms: O_7  and  C_38
REMARK    7  A    between atoms: N_10  and  C_23
REMARK    8  A    between atoms: C_15  and  C_26
REMARK    9  A    between atoms: C_16  and  C_24
REMARK   10  A    between atoms: C_31  and  C_34
REMARK   11  A    between atoms: C_32  and  C_35
REMARK   12  A    between atoms: C_36  and  C_39
REMARK   13  A    between atoms: C_39  and  C_40
REMARK   14  A    between atoms: C_41  and  C_42
REMARK                            x       y       z     vdW  Elec       q    Type
REMARK                         _______ _______ _______ _____ _____    ______ ____
ROOT
ATOM      1  O   UNL     1       1.505  57.860 -10.555  0.00  0.00    +0.000 OA
ATOM      2  O   UNL     1       4.886  60.481  -7.398  0.00  0.00    +0.000 OA
ATOM      3  O   UNL     1       3.062  53.906 -12.476  0.00  0.00    +0.000 OA
ATOM      4  O   UNL     1       8.306  54.644 -12.949  0.00  0.00    +0.000 OA
ATOM      5  N   UNL     1       5.972  58.003 -11.755  0.00  0.00    +0.000 NA
ATOM      6  N   UNL     1       4.296  60.334 -12.375  0.00  0.00    +0.000 NA
ATOM      7  C   UNL     1       4.606  57.874 -12.325  0.00  0.00    +0.000 C 
ATOM      8  C   UNL     1       3.668  59.076 -11.879  0.00  0.00    +0.000 C 
ATOM      9  C   UNL     1       5.596  60.524 -11.682  0.00  0.00    +0.000 C 
ATOM     10  C   UNL     1       6.572  59.344 -12.051  0.00  0.00    +0.000 C 
ATOM     11  C   UNL     1       6.901  56.866 -12.009  0.00  0.00    +0.000 C 
ATOM     12  C   UNL     1       3.983  56.511 -11.957  0.00  0.00    +0.000 C 
ATOM     13  C   UNL     1       5.428  60.642 -10.142  0.00  0.00    +0.000 C 
ATOM     14  C   UNL     1       3.483  59.107 -10.368  0.00  0.00    +0.000 C 
ATOM     15  C   UNL     1       4.306  59.809  -9.576  0.00  0.00    +0.000 C 
ATOM     16  C   UNL     1       6.223  55.546 -12.341  0.00  0.00    +0.000 C 
ATOM     17  C   UNL     1       4.896  55.372 -12.296  0.00  0.00    +0.000 C 
ATOM     18  C   UNL     1       3.412  61.494 -12.312  0.00  0.00    +0.000 C 
ATOM     19  C   UNL     1       2.321  58.383  -9.803  0.00  0.00    +0.000 C 
ATOM     20  C   UNL     1       4.130  59.827  -8.108  0.00  0.00    +0.000 C 
ATOM     21  C   UNL     1       4.274  54.059 -12.575  0.00  0.00    +0.000 C 
ATOM     22  C   UNL     1       7.108  54.437 -12.782  0.00  0.00    +0.000 C 
ATOM     23  C   UNL     1       2.190  58.320  -8.310  0.00  0.00    +0.000 C 
ATOM     24  C   UNL     1       3.028  59.018  -7.527  0.00  0.00    +0.000 C 
ATOM     25  C   UNL     1       5.162  52.928 -12.941  0.00  0.00    +0.000 C 
ATOM     26  C   UNL     1       6.493  53.090 -13.021  0.00  0.00    +0.000 C 
ATOM     27  C   UNL     1       2.939  59.058  -6.029  0.00  0.00    +0.000 C 
ATOM     28  C   UNL     1       4.457  51.628 -13.202  0.00  0.00    +0.000 C 
ENDROOT
BRANCH  23  29
ATOM     29  O   UNL     1       1.166  57.592  -7.715  0.00  0.00    +0.000 OA
ATOM     30  C   UNL     1      -0.098  58.248  -7.655  0.00  0.00    +0.000 C 
ENDBRANCH  23  29
BRANCH  26  31
ATOM     31  O   UNL     1       7.282  52.006 -13.391  0.00  0.00    +0.000 OA
ATOM     32  C   UNL     1       7.602  51.940 -14.780  0.00  0.00    +0.000 C 
ENDBRANCH  26  31
BRANCH  10  34
ATOM     33  N   UNL     1       7.338  59.677 -14.569  0.00  0.00    +0.000 NA
ATOM     34  C   UNL     1       7.022  59.522 -13.462  0.00  0.00    +0.000 C 
ENDBRANCH  10  34
BRANCH  11  35
ATOM     35  C   UNL     1       7.794  56.701 -10.743  0.00  0.00    +0.000 C 
BRANCH  35  36
ATOM     36  O   UNL     1       7.016  57.019  -9.570  0.00  0.00    +0.000 OA
BRANCH  36  38
ATOM     37  O   UNL     1       7.808  55.159  -8.493  0.00  0.00    +0.000 OA
ATOM     38  C   UNL     1       6.982  56.047  -8.629  0.00  0.00    +0.000 C 
BRANCH  38  39
ATOM     39  C   UNL     1       5.859  56.277  -7.676  0.00  0.00    +0.000 C 
ATOM     40  C   UNL     1       4.578  55.610  -8.093  0.00  0.00    +0.000 C 
ATOM     41  C   UNL     1       5.941  57.015  -6.551  0.00  0.00    +0.000 C 
ATOM     42  C   UNL     1       7.099  57.819  -6.051  0.00  0.00    +0.000 C 
ENDBRANCH  38  39
ENDBRANCH  36  38
ENDBRANCH  35  36
ENDBRANCH  11  35
TORSDOF 7
ENDMDL
MODEL 9
REMARK VINA RESULT:      -5.1     33.258     36.312
REMARK  Name = 
REMARK  14 active torsions:
REMARK  status: ('A' for Active; 'I' for Inactive)
REMARK    1  A    between atoms: O_1  and  C_24
REMARK    2  A    between atoms: O_1  and  C_36
REMARK    3  A    between atoms: O_4  and  C_30
REMARK    4  A    between atoms: O_4  and  C_37
REMARK    5  A    between atoms: O_7  and  C_33
REMARK    6  A    between atoms: O_7  and  C_38
REMARK    7  A    between atoms: N_10  and  C_23
REMARK    8  A    between atoms: C_15  and  C_26
REMARK    9  A    between atoms: C_16  and  C_24
REMARK   10  A    between atoms: C_31  and  C_34
REMARK   11  A    between atoms: C_32  and  C_35
REMARK   12  A    between atoms: C_36  and  C_39
REMARK   13  A    between atoms: C_39  and  C_40
REMARK   14  A    between atoms: C_41  and  C_42
REMARK                            x       y       z     vdW  Elec       q    Type
REMARK                         _______ _______ _______ _____ _____    ______ ____
ROOT
ATOM      1  O   UNL     1       7.658  59.472 -10.741  0.00  0.00    +0.000 OA
ATOM      2  O   UNL     1       5.894  55.321  -7.926  0.00  0.00    +0.000 OA
ATOM      3  O   UNL     1      10.816  58.574 -14.052  0.00  0.00    +0.000 OA
ATOM      4  O   UNL     1      13.427  54.302 -12.262  0.00  0.00    +0.000 OA
ATOM      5  N   UNL     1      10.673  56.155  -9.590  0.00  0.00    +0.000 NA
ATOM      6  N   UNL     1      10.000  58.177  -7.569  0.00  0.00    +0.000 NA
ATOM      7  C   UNL     1      10.585  57.604  -9.910  0.00  0.00    +0.000 C 
ATOM      8  C   UNL     1       9.537  58.348  -8.976  0.00  0.00    +0.000 C 
ATOM      9  C   UNL     1       9.939  56.735  -7.219  0.00  0.00    +0.000 C 
ATOM     10  C   UNL     1      10.932  55.924  -8.133  0.00  0.00    +0.000 C 
ATOM     11  C   UNL     1      11.536  55.336 -10.486  0.00  0.00    +0.000 C 
ATOM     12  C   UNL     1      10.257  57.819 -11.403  0.00  0.00    +0.000 C 
ATOM     13  C   UNL     1       8.497  56.166  -7.326  0.00  0.00    +0.000 C 
ATOM     14  C   UNL     1       8.130  57.798  -9.169  0.00  0.00    +0.000 C 
ATOM     15  C   UNL     1       7.667  56.783  -8.424  0.00  0.00    +0.000 C 
ATOM     16  C   UNL     1      11.786  55.935 -11.861  0.00  0.00    +0.000 C 
ATOM     17  C   UNL     1      11.188  57.052 -12.293  0.00  0.00    +0.000 C 
ATOM     18  C   UNL     1       9.319  59.051  -6.619  0.00  0.00    +0.000 C 
ATOM     19  C   UNL     1       7.262  58.462 -10.167  0.00  0.00    +0.000 C 
ATOM     20  C   UNL     1       6.306  56.243  -8.621  0.00  0.00    +0.000 C 
ATOM     21  C   UNL     1      11.414  57.579 -13.657  0.00  0.00    +0.000 C 
ATOM     22  C   UNL     1      12.787  55.245 -12.715  0.00  0.00    +0.000 C 
ATOM     23  C   UNL     1       5.915  57.862 -10.438  0.00  0.00    +0.000 C 
ATOM     24  C   UNL     1       5.467  56.839  -9.693  0.00  0.00    +0.000 C 
ATOM     25  C   UNL     1      12.356  56.849 -14.540  0.00  0.00    +0.000 C 
ATOM     26  C   UNL     1      12.989  55.743 -14.116  0.00  0.00    +0.000 C 
ATOM     27  C   UNL     1       4.113  56.211  -9.856  0.00  0.00    +0.000 C 
ATOM     28  C   UNL     1      12.527  57.441 -15.910  0.00  0.00    +0.000 C 
ENDROOT
BRANCH  23  29
ATOM     29  O   UNL     1       5.083  58.392 -11.418  0.00  0.00    +0.000 OA
ATOM     30  C   UNL     1       5.377  57.994 -12.754  0.00  0.00    +0.000 C 
ENDBRANCH  23  29
BRANCH  26  31
ATOM     31  O   UNL     1      13.880  55.106 -14.972  0.00  0.00    +0.000 OA
ATOM     32  C   UNL     1      15.251  55.447 -14.777  0.00  0.00    +0.000 C 
ENDBRANCH  26  31
BRANCH  10  34
ATOM     33  N   UNL     1      13.414  56.418  -7.339  0.00  0.00    +0.000 NA
ATOM     34  C   UNL     1      12.328  56.220  -7.698  0.00  0.00    +0.000 C 
ENDBRANCH  10  34
BRANCH  11  35
ATOM     35  C   UNL     1      10.864  53.937 -10.630  0.00  0.00    +0.000 C 
BRANCH  35  36
ATOM     36  O   UNL     1       9.432  54.104 -10.690  0.00  0.00    +0.000 OA
BRANCH  36  38
ATOM     37  O   UNL     1       8.316  52.347 -11.646  0.00  0.00    +0.000 OA
ATOM     38  C   UNL     1       8.826  53.453 -11.710  0.00  0.00    +0.000 C 
BRANCH  38  39
ATOM     39  C   UNL     1       8.737  54.330 -12.913  0.00  0.00    +0.000 C 
ATOM     40  C   UNL     1       7.764  55.465 -12.750  0.00  0.00    +0.000 C 
ATOM     41  C   UNL     1       9.431  54.148 -14.053  0.00  0.00    +0.000 C 
ATOM     42  C   UNL     1      10.352  53.024 -14.410  0.00  0.00    +0.000 C 
ENDBRANCH  38  39
ENDBRANCH  36  38
ENDBRANCH  35  36
ENDBRANCH  11  35
TORSDOF 7
ENDMDL
