MODEL 1
REMARK VINA RESULT:      -7.4      0.000      0.000
REMARK  Name = Resveratrol.pdbqt.pdb
REMARK  5 active torsions:
REMARK  status: ('A' for Active; 'I' for Inactive)
REMARK    1  A    between atoms: C_1  and  C_11
REMARK    2  A    between atoms: C_4  and  O_7
REMARK    3  A    between atoms: C_5  and  O_9
REMARK    4  A    between atoms: C_12  and  C_13
REMARK    5  A    between atoms: C_18  and  O_19
REMARK                            x       y       z     vdW  Elec       q    Type
REMARK                         _______ _______ _______ _____ _____    ______ ____
ROOT
ATOM      1  C   UNL     1       6.942  29.126  15.612  0.00  0.00    +0.000 A 
ATOM      2  C   UNL     1       7.947  29.861  16.239  0.00  0.00    +0.000 A 
ATOM      3  C   UNL     1       7.264  28.003  14.850  0.00  0.00    +0.000 A 
ATOM      4  C   UNL     1       8.597  27.623  14.722  0.00  0.00    +0.000 A 
ATOM      5  C   UNL     1       9.273  29.464  16.097  0.00  0.00    +0.000 A 
ATOM      6  C   UNL     1       9.611  28.346  15.342  0.00  0.00    +0.000 A 
ENDROOT
BRANCH   4   7
ATOM      7  O   UNL     1       8.942  26.528  13.983  0.00  0.00    +0.000 OA
ATOM      8  H   UNL     1       8.737  26.715  13.049  0.00  0.00    +0.000 HD
ENDBRANCH   4   7
BRANCH   5   9
ATOM      9  O   UNL     1      10.241  30.199  16.721  0.00  0.00    +0.000 OA
ATOM     10  H   UNL     1      10.786  30.622  16.033  0.00  0.00    +0.000 HD
ENDBRANCH   5   9
BRANCH   1  11
ATOM     11  C   UNL     1       5.579  29.523  15.748  0.00  0.00    +0.000 C 
ATOM     12  C   UNL     1       4.430  29.857  15.864  0.00  0.00    +0.000 C 
BRANCH  12  13
ATOM     13  C   UNL     1       3.068  30.254  16.001  0.00  0.00    +0.000 A 
ATOM     14  C   UNL     1       2.048  29.380  15.624  0.00  0.00    +0.000 A 
ATOM     15  C   UNL     1       2.758  31.514  16.511  0.00  0.00    +0.000 A 
ATOM     16  C   UNL     1       0.717  29.765  15.758  0.00  0.00    +0.000 A 
ATOM     17  C   UNL     1       1.429  31.903  16.645  0.00  0.00    +0.000 A 
ATOM     18  C   UNL     1       0.418  31.026  16.267  0.00  0.00    +0.000 A 
BRANCH  18  19
ATOM     19  O   UNL     1      -0.878  31.429  16.408  0.00  0.00    +0.000 OA
ATOM     20  H   UNL     1      -1.127  31.334  17.344  0.00  0.00    +0.000 HD
ENDBRANCH  18  19
ENDBRANCH  12  13
ENDBRANCH   1  11
TORSDOF 5
ENDMDL
MODEL 2
REMARK VINA RESULT:      -7.4      0.067      2.008
REMARK  Name = Resveratrol.pdbqt.pdb
REMARK  5 active torsions:
REMARK  status: ('A' for Active; 'I' for Inactive)
REMARK    1  A    between atoms: C_1  and  C_11
REMARK    2  A    between atoms: C_4  and  O_7
REMARK    3  A    between atoms: C_5  and  O_9
REMARK    4  A    between atoms: C_12  and  C_13
REMARK    5  A    between atoms: C_18  and  O_19
REMARK                            x       y       z     vdW  Elec       q    Type
REMARK                         _______ _______ _______ _____ _____    ______ ____
ROOT
ATOM      1  C   UNL     1       7.000  29.111  15.602  0.00  0.00    +0.000 A 
ATOM      2  C   UNL     1       7.334  27.997  14.834  0.00  0.00    +0.000 A 
ATOM      3  C   UNL     1       7.997  29.845  16.245  0.00  0.00    +0.000 A 
ATOM      4  C   UNL     1       9.327  29.455  16.111  0.00  0.00    +0.000 A 
ATOM      5  C   UNL     1       8.669  27.624  14.714  0.00  0.00    +0.000 A 
ATOM      6  C   UNL     1       9.675  28.346  15.348  0.00  0.00    +0.000 A 
ENDROOT
BRANCH   4   7
ATOM      7  O   UNL     1      10.324  30.155  16.728  0.00  0.00    +0.000 OA
ATOM      8  H   UNL     1      11.148  29.641  16.651  0.00  0.00    +0.000 HD
ENDBRANCH   4   7
BRANCH   5   9
ATOM      9  O   UNL     1       8.972  26.530  13.956  0.00  0.00    +0.000 OA
ATOM     10  H   UNL     1       9.906  26.599  13.688  0.00  0.00    +0.000 HD
ENDBRANCH   5   9
BRANCH   1  11
ATOM     11  C   UNL     1       5.635  29.503  15.734  0.00  0.00    +0.000 C 
ATOM     12  C   UNL     1       4.485  29.832  15.846  0.00  0.00    +0.000 C 
BRANCH  12  13
ATOM     13  C   UNL     1       3.121  30.225  15.979  0.00  0.00    +0.000 A 
ATOM     14  C   UNL     1       2.106  29.345  15.604  0.00  0.00    +0.000 A 
ATOM     15  C   UNL     1       2.805  31.486  16.482  0.00  0.00    +0.000 A 
ATOM     16  C   UNL     1       0.773  29.725  15.733  0.00  0.00    +0.000 A 
ATOM     17  C   UNL     1       1.474  31.870  16.612  0.00  0.00    +0.000 A 
ATOM     18  C   UNL     1       0.467  30.987  16.236  0.00  0.00    +0.000 A 
BRANCH  18  19
ATOM     19  O   UNL     1      -0.830  31.386  16.373  0.00  0.00    +0.000 OA
ATOM     20  H   UNL     1      -0.847  32.186  16.926  0.00  0.00    +0.000 HD
ENDBRANCH  18  19
ENDBRANCH  12  13
ENDBRANCH   1  11
TORSDOF 5
ENDMDL
MODEL 3
REMARK VINA RESULT:      -7.2      2.233      3.752
REMARK  Name = Resveratrol.pdbqt.pdb
REMARK  5 active torsions:
REMARK  status: ('A' for Active; 'I' for Inactive)
REMARK    1  A    between atoms: C_1  and  C_11
REMARK    2  A    between atoms: C_4  and  O_7
REMARK    3  A    between atoms: C_5  and  O_9
REMARK    4  A    between atoms: C_12  and  C_13
REMARK    5  A    between atoms: C_18  and  O_19
REMARK                            x       y       z     vdW  Elec       q    Type
REMARK                         _______ _______ _______ _____ _____    ______ ____
ROOT
ATOM      1  C   UNL     1       4.313  30.133  15.412  0.00  0.00    +0.000 A 
ATOM      2  C   UNL     1       4.233  28.967  14.652  0.00  0.00    +0.000 A 
ATOM      3  C   UNL     1       5.496  30.460  16.074  0.00  0.00    +0.000 A 
ATOM      4  C   UNL     1       6.596  29.612  15.970  0.00  0.00    +0.000 A 
ATOM      5  C   UNL     1       5.344  28.133  14.562  0.00  0.00    +0.000 A 
ATOM      6  C   UNL     1       6.531  28.446  15.216  0.00  0.00    +0.000 A 
ENDROOT
BRANCH   4   7
ATOM      7  O   UNL     1       7.766  29.907  16.607  0.00  0.00    +0.000 OA
ATOM      8  H   UNL     1       8.089  30.761  16.268  0.00  0.00    +0.000 HD
ENDBRANCH   4   7
BRANCH   5   9
ATOM      9  O   UNL     1       5.242  26.996  13.812  0.00  0.00    +0.000 OA
ATOM     10  H   UNL     1       5.931  26.376  14.112  0.00  0.00    +0.000 HD
ENDBRANCH   5   9
BRANCH   1  11
ATOM     11  C   UNL     1       3.182  30.996  15.514  0.00  0.00    +0.000 C 
ATOM     12  C   UNL     1       2.229  31.722  15.600  0.00  0.00    +0.000 C 
BRANCH  12  13
ATOM     13  C   UNL     1       1.098  32.585  15.703  0.00  0.00    +0.000 A 
ATOM     14  C   UNL     1      -0.111  32.091  16.191  0.00  0.00    +0.000 A 
ATOM     15  C   UNL     1       1.205  33.920  15.314  0.00  0.00    +0.000 A 
ATOM     16  C   UNL     1      -1.216  32.932  16.293  0.00  0.00    +0.000 A 
ATOM     17  C   UNL     1       0.102  34.764  15.413  0.00  0.00    +0.000 A 
ATOM     18  C   UNL     1      -1.100  34.263  15.902  0.00  0.00    +0.000 A 
BRANCH  18  19
ATOM     19  O   UNL     1      -2.167  35.109  15.990  0.00  0.00    +0.000 OA
ATOM     20  H   UNL     1      -2.612  34.951  16.841  0.00  0.00    +0.000 HD
ENDBRANCH  18  19
ENDBRANCH  12  13
ENDBRANCH   1  11
TORSDOF 5
ENDMDL
MODEL 4
REMARK VINA RESULT:      -7.0      1.877      2.917
REMARK  Name = Resveratrol.pdbqt.pdb
REMARK  5 active torsions:
REMARK  status: ('A' for Active; 'I' for Inactive)
REMARK    1  A    between atoms: C_1  and  C_11
REMARK    2  A    between atoms: C_4  and  O_7
REMARK    3  A    between atoms: C_5  and  O_9
REMARK    4  A    between atoms: C_12  and  C_13
REMARK    5  A    between atoms: C_18  and  O_19
REMARK                            x       y       z     vdW  Elec       q    Type
REMARK                         _______ _______ _______ _____ _____    ______ ____
ROOT
ATOM      1  C   UNL     1       4.723  30.404  15.478  0.00  0.00    +0.000 A 
ATOM      2  C   UNL     1       5.753  31.189  15.993  0.00  0.00    +0.000 A 
ATOM      3  C   UNL     1       4.992  29.128  14.984  0.00  0.00    +0.000 A 
ATOM      4  C   UNL     1       6.298  28.645  15.011  0.00  0.00    +0.000 A 
ATOM      5  C   UNL     1       7.051  30.688  16.011  0.00  0.00    +0.000 A 
ATOM      6  C   UNL     1       7.336  29.416  15.523  0.00  0.00    +0.000 A 
ENDROOT
BRANCH   4   7
ATOM      7  O   UNL     1       6.591  27.399  14.536  0.00  0.00    +0.000 OA
ATOM      8  H   UNL     1       6.967  27.496  13.643  0.00  0.00    +0.000 HD
ENDBRANCH   4   7
BRANCH   5   9
ATOM      9  O   UNL     1       8.044  31.474  16.520  0.00  0.00    +0.000 OA
ATOM     10  H   UNL     1       8.772  30.893  16.804  0.00  0.00    +0.000 HD
ENDBRANCH   5   9
BRANCH   1  11
ATOM     11  C   UNL     1       3.388  30.906  15.453  0.00  0.00    +0.000 C 
ATOM     12  C   UNL     1       2.264  31.330  15.432  0.00  0.00    +0.000 C 
BRANCH  12  13
ATOM     13  C   UNL     1       0.930  31.831  15.407  0.00  0.00    +0.000 A 
ATOM     14  C   UNL     1       0.590  32.942  16.179  0.00  0.00    +0.000 A 
ATOM     15  C   UNL     1      -0.032  31.211  14.611  0.00  0.00    +0.000 A 
ATOM     16  C   UNL     1      -0.712  33.434  16.156  0.00  0.00    +0.000 A 
ATOM     17  C   UNL     1      -1.336  31.699  14.585  0.00  0.00    +0.000 A 
ATOM     18  C   UNL     1      -1.665  32.808  15.359  0.00  0.00    +0.000 A 
BRANCH  18  19
ATOM     19  O   UNL     1      -2.949  33.268  15.317  0.00  0.00    +0.000 OA
ATOM     20  H   UNL     1      -2.926  34.217  15.103  0.00  0.00    +0.000 HD
ENDBRANCH  18  19
ENDBRANCH  12  13
ENDBRANCH   1  11
TORSDOF 5
ENDMDL
MODEL 5
REMARK VINA RESULT:      -6.8      6.033     11.026
REMARK  Name = Resveratrol.pdbqt.pdb
REMARK  5 active torsions:
REMARK  status: ('A' for Active; 'I' for Inactive)
REMARK    1  A    between atoms: C_1  and  C_11
REMARK    2  A    between atoms: C_4  and  O_7
REMARK    3  A    between atoms: C_5  and  O_9
REMARK    4  A    between atoms: C_12  and  C_13
REMARK    5  A    between atoms: C_18  and  O_19
REMARK                            x       y       z     vdW  Elec       q    Type
REMARK                         _______ _______ _______ _____ _____    ______ ____
ROOT
ATOM      1  C   UNL     1      -1.662  37.418  15.222  0.00  0.00    +0.000 A 
ATOM      2  C   UNL     1      -2.146  38.080  16.349  0.00  0.00    +0.000 A 
ATOM      3  C   UNL     1      -1.702  38.036  13.973  0.00  0.00    +0.000 A 
ATOM      4  C   UNL     1      -2.229  39.320  13.861  0.00  0.00    +0.000 A 
ATOM      5  C   UNL     1      -2.669  39.363  16.216  0.00  0.00    +0.000 A 
ATOM      6  C   UNL     1      -2.715  39.994  14.977  0.00  0.00    +0.000 A 
ENDROOT
BRANCH   4   7
ATOM      7  O   UNL     1      -2.281  39.950  12.652  0.00  0.00    +0.000 OA
ATOM      8  H   UNL     1      -3.201  39.924  12.334  0.00  0.00    +0.000 HD
ENDBRANCH   4   7
BRANCH   5   9
ATOM      9  O   UNL     1      -3.137  39.992  17.334  0.00  0.00    +0.000 OA
ATOM     10  H   UNL     1      -3.140  40.950  17.159  0.00  0.00    +0.000 HD
ENDBRANCH   5   9
BRANCH   1  11
ATOM     11  C   UNL     1      -1.124  36.103  15.345  0.00  0.00    +0.000 C 
ATOM     12  C   UNL     1      -0.671  34.995  15.448  0.00  0.00    +0.000 C 
BRANCH  12  13
ATOM     13  C   UNL     1      -0.133  33.680  15.570  0.00  0.00    +0.000 A 
ATOM     14  C   UNL     1      -0.852  32.694  16.245  0.00  0.00    +0.000 A 
ATOM     15  C   UNL     1       1.112  33.383  15.016  0.00  0.00    +0.000 A 
ATOM     16  C   UNL     1      -0.329  31.410  16.366  0.00  0.00    +0.000 A 
ATOM     17  C   UNL     1       1.639  32.100  15.134  0.00  0.00    +0.000 A 
ATOM     18  C   UNL     1       0.914  31.123  15.810  0.00  0.00    +0.000 A 
BRANCH  18  19
ATOM     19  O   UNL     1       1.451  29.873  15.913  0.00  0.00    +0.000 OA
ATOM     20  H   UNL     1       1.147  29.347  15.153  0.00  0.00    +0.000 HD
ENDBRANCH  18  19
ENDBRANCH  12  13
ENDBRANCH   1  11
TORSDOF 5
ENDMDL
MODEL 6
REMARK VINA RESULT:      -6.8      6.041     11.130
REMARK  Name = Resveratrol.pdbqt.pdb
REMARK  5 active torsions:
REMARK  status: ('A' for Active; 'I' for Inactive)
REMARK    1  A    between atoms: C_1  and  C_11
REMARK    2  A    between atoms: C_4  and  O_7
REMARK    3  A    between atoms: C_5  and  O_9
REMARK    4  A    between atoms: C_12  and  C_13
REMARK    5  A    between atoms: C_18  and  O_19
REMARK                            x       y       z     vdW  Elec       q    Type
REMARK                         _______ _______ _______ _____ _____    ______ ____
ROOT
ATOM      1  C   UNL     1      -1.671  37.421  15.220  0.00  0.00    +0.000 A 
ATOM      2  C   UNL     1      -1.716  38.050  13.976  0.00  0.00    +0.000 A 
ATOM      3  C   UNL     1      -2.149  38.076  16.354  0.00  0.00    +0.000 A 
ATOM      4  C   UNL     1      -2.672  39.361  16.234  0.00  0.00    +0.000 A 
ATOM      5  C   UNL     1      -2.242  39.334  13.877  0.00  0.00    +0.000 A 
ATOM      6  C   UNL     1      -2.724  40.000  15.000  0.00  0.00    +0.000 A 
ENDROOT
BRANCH   4   7
ATOM      7  O   UNL     1      -3.147  40.025  17.328  0.00  0.00    +0.000 OA
ATOM      8  H   UNL     1      -2.408  40.159  17.947  0.00  0.00    +0.000 HD
ENDBRANCH   4   7
BRANCH   5   9
ATOM      9  O   UNL     1      -2.277  39.929  12.649  0.00  0.00    +0.000 OA
ATOM     10  H   UNL     1      -1.392  40.293  12.467  0.00  0.00    +0.000 HD
ENDBRANCH   5   9
BRANCH   1  11
ATOM     11  C   UNL     1      -1.133  36.106  15.334  0.00  0.00    +0.000 C 
ATOM     12  C   UNL     1      -0.681  34.997  15.430  0.00  0.00    +0.000 C 
BRANCH  12  13
ATOM     13  C   UNL     1      -0.143  33.681  15.543  0.00  0.00    +0.000 A 
ATOM     14  C   UNL     1      -0.835  32.707  16.262  0.00  0.00    +0.000 A 
ATOM     15  C   UNL     1       1.074  33.372  14.936  0.00  0.00    +0.000 A 
ATOM     16  C   UNL     1      -0.313  31.422  16.374  0.00  0.00    +0.000 A 
ATOM     17  C   UNL     1       1.600  32.088  15.046  0.00  0.00    +0.000 A 
ATOM     18  C   UNL     1       0.903  31.122  15.764  0.00  0.00    +0.000 A 
BRANCH  18  19
ATOM     19  O   UNL     1       1.438  29.871  15.858  0.00  0.00    +0.000 OA
ATOM     20  H   UNL     1       0.817  29.309  16.353  0.00  0.00    +0.000 HD
ENDBRANCH  18  19
ENDBRANCH  12  13
ENDBRANCH   1  11
TORSDOF 5
ENDMDL
MODEL 7
REMARK VINA RESULT:      -6.7      1.583      7.557
REMARK  Name = Resveratrol.pdbqt.pdb
REMARK  5 active torsions:
REMARK  status: ('A' for Active; 'I' for Inactive)
REMARK    1  A    between atoms: C_1  and  C_11
REMARK    2  A    between atoms: C_4  and  O_7
REMARK    3  A    between atoms: C_5  and  O_9
REMARK    4  A    between atoms: C_12  and  C_13
REMARK    5  A    between atoms: C_18  and  O_19
REMARK                            x       y       z     vdW  Elec       q    Type
REMARK                         _______ _______ _______ _____ _____    ______ ____
ROOT
ATOM      1  C   UNL     1       3.679  29.435  15.585  0.00  0.00    +0.000 A 
ATOM      2  C   UNL     1       3.202  30.580  16.221  0.00  0.00    +0.000 A 
ATOM      3  C   UNL     1       2.787  28.520  15.026  0.00  0.00    +0.000 A 
ATOM      4  C   UNL     1       1.418  28.761  15.108  0.00  0.00    +0.000 A 
ATOM      5  C   UNL     1       1.830  30.802  16.292  0.00  0.00    +0.000 A 
ATOM      6  C   UNL     1       0.928  29.899  15.738  0.00  0.00    +0.000 A 
ENDROOT
BRANCH   4   7
ATOM      7  O   UNL     1       0.522  27.883  14.569  0.00  0.00    +0.000 OA
ATOM      8  H   UNL     1      -0.012  28.361  13.910  0.00  0.00    +0.000 HD
ENDBRANCH   4   7
BRANCH   5   9
ATOM      9  O   UNL     1       1.387  31.931  16.919  0.00  0.00    +0.000 OA
ATOM     10  H   UNL     1       1.186  31.702  17.844  0.00  0.00    +0.000 HD
ENDBRANCH   5   9
BRANCH   1  11
ATOM     11  C   UNL     1       5.082  29.195  15.507  0.00  0.00    +0.000 C 
ATOM     12  C   UNL     1       6.265  28.994  15.440  0.00  0.00    +0.000 C 
BRANCH  12  13
ATOM     13  C   UNL     1       7.669  28.755  15.361  0.00  0.00    +0.000 A 
ATOM     14  C   UNL     1       8.561  29.669  15.921  0.00  0.00    +0.000 A 
ATOM     15  C   UNL     1       8.146  27.610  14.725  0.00  0.00    +0.000 A 
ATOM     16  C   UNL     1       9.932  29.439  15.846  0.00  0.00    +0.000 A 
ATOM     17  C   UNL     1       9.516  27.376  14.647  0.00  0.00    +0.000 A 
ATOM     18  C   UNL     1      10.398  28.293  15.209  0.00  0.00    +0.000 A 
BRANCH  18  19
ATOM     19  O   UNL     1      11.737  28.042  15.120  0.00  0.00    +0.000 OA
ATOM     20  H   UNL     1      12.212  28.750  15.589  0.00  0.00    +0.000 HD
ENDBRANCH  18  19
ENDBRANCH  12  13
ENDBRANCH   1  11
TORSDOF 5
ENDMDL
MODEL 8
REMARK VINA RESULT:      -6.7      1.940      7.845
REMARK  Name = Resveratrol.pdbqt.pdb
REMARK  5 active torsions:
REMARK  status: ('A' for Active; 'I' for Inactive)
REMARK    1  A    between atoms: C_1  and  C_11
REMARK    2  A    between atoms: C_4  and  O_7
REMARK    3  A    between atoms: C_5  and  O_9
REMARK    4  A    between atoms: C_12  and  C_13
REMARK    5  A    between atoms: C_18  and  O_19
REMARK                            x       y       z     vdW  Elec       q    Type
REMARK                         _______ _______ _______ _____ _____    ______ ____
ROOT
ATOM      1  C   UNL     1       2.140  32.078  15.260  0.00  0.00    +0.000 A 
ATOM      2  C   UNL     1       2.114  33.342  14.673  0.00  0.00    +0.000 A 
ATOM      3  C   UNL     1       0.980  31.537  15.815  0.00  0.00    +0.000 A 
ATOM      4  C   UNL     1      -0.203  32.270  15.776  0.00  0.00    +0.000 A 
ATOM      5  C   UNL     1       0.922  34.058  14.646  0.00  0.00    +0.000 A 
ATOM      6  C   UNL     1      -0.244  33.532  15.193  0.00  0.00    +0.000 A 
ENDROOT
BRANCH   4   7
ATOM      7  O   UNL     1      -1.353  31.766  16.310  0.00  0.00    +0.000 OA
ATOM      8  H   UNL     1      -2.099  32.064  15.760  0.00  0.00    +0.000 HD
ENDBRANCH   4   7
BRANCH   5   9
ATOM      9  O   UNL     1       0.920  35.294  14.065  0.00  0.00    +0.000 OA
ATOM     10  H   UNL     1       1.844  35.592  13.989  0.00  0.00    +0.000 HD
ENDBRANCH   5   9
BRANCH   1  11
ATOM     11  C   UNL     1       3.356  31.334  15.296  0.00  0.00    +0.000 C 
ATOM     12  C   UNL     1       4.381  30.707  15.326  0.00  0.00    +0.000 C 
BRANCH  12  13
ATOM     13  C   UNL     1       5.598  29.964  15.361  0.00  0.00    +0.000 A 
ATOM     14  C   UNL     1       6.758  30.555  15.861  0.00  0.00    +0.000 A 
ATOM     15  C   UNL     1       5.624  28.649  14.897  0.00  0.00    +0.000 A 
ATOM     16  C   UNL     1       7.947  29.831  15.897  0.00  0.00    +0.000 A 
ATOM     17  C   UNL     1       6.811  27.923  14.931  0.00  0.00    +0.000 A 
ATOM     18  C   UNL     1       7.964  28.520  15.431  0.00  0.00    +0.000 A 
BRANCH  18  19
ATOM     19  O   UNL     1       9.115  27.788  15.454  0.00  0.00    +0.000 OA
ATOM     20  H   UNL     1       9.826  28.325  15.064  0.00  0.00    +0.000 HD
ENDBRANCH  18  19
ENDBRANCH  12  13
ENDBRANCH   1  11
TORSDOF 5
ENDMDL
MODEL 9
REMARK VINA RESULT:      -6.6      2.582      7.842
REMARK  Name = Resveratrol.pdbqt.pdb
REMARK  5 active torsions:
REMARK  status: ('A' for Active; 'I' for Inactive)
REMARK    1  A    between atoms: C_1  and  C_11
REMARK    2  A    between atoms: C_4  and  O_7
REMARK    3  A    between atoms: C_5  and  O_9
REMARK    4  A    between atoms: C_12  and  C_13
REMARK    5  A    between atoms: C_18  and  O_19
REMARK                            x       y       z     vdW  Elec       q    Type
REMARK                         _______ _______ _______ _____ _____    ______ ____
ROOT
ATOM      1  C   UNL     1       5.482  28.588  15.027  0.00  0.00    +0.000 A 
ATOM      2  C   UNL     1       4.876  29.550  15.833  0.00  0.00    +0.000 A 
ATOM      3  C   UNL     1       4.709  27.792  14.182  0.00  0.00    +0.000 A 
ATOM      4  C   UNL     1       3.328  27.968  14.151  0.00  0.00    +0.000 A 
ATOM      5  C   UNL     1       3.494  29.710  15.787  0.00  0.00    +0.000 A 
ATOM      6  C   UNL     1       2.710  28.924  14.949  0.00  0.00    +0.000 A 
ENDROOT
BRANCH   4   7
ATOM      7  O   UNL     1       2.546  27.204  13.333  0.00  0.00    +0.000 OA
ATOM      8  H   UNL     1       2.729  27.461  12.412  0.00  0.00    +0.000 HD
ENDBRANCH   4   7
BRANCH   5   9
ATOM      9  O   UNL     1       2.923  30.659  16.585  0.00  0.00    +0.000 OA
ATOM     10  H   UNL     1       2.393  31.248  16.019  0.00  0.00    +0.000 HD
ENDBRANCH   5   9
BRANCH   1  11
ATOM     11  C   UNL     1       6.897  28.414  15.066  0.00  0.00    +0.000 C 
ATOM     12  C   UNL     1       8.089  28.267  15.099  0.00  0.00    +0.000 C 
BRANCH  12  13
ATOM     13  C   UNL     1       9.504  28.094  15.137  0.00  0.00    +0.000 A 
ATOM     14  C   UNL     1      10.050  26.815  15.029  0.00  0.00    +0.000 A 
ATOM     15  C   UNL     1      10.337  29.203  15.283  0.00  0.00    +0.000 A 
ATOM     16  C   UNL     1      11.431  26.644  15.065  0.00  0.00    +0.000 A 
ATOM     17  C   UNL     1      11.718  29.035  15.320  0.00  0.00    +0.000 A 
ATOM     18  C   UNL     1      12.255  27.756  15.211  0.00  0.00    +0.000 A 
BRANCH  18  19
ATOM     19  O   UNL     1      13.612  27.617  15.251  0.00  0.00    +0.000 OA
ATOM     20  H   UNL     1      13.882  27.051  14.507  0.00  0.00    +0.000 HD
ENDBRANCH  18  19
ENDBRANCH  12  13
ENDBRANCH   1  11
TORSDOF 5
ENDMDL
