MODEL 1
REMARK VINA RESULT:      -6.2      0.000      0.000
REMARK  Name = RetinoicAcid.pdbqt.pdb
REMARK  6 active torsions:
REMARK  status: ('A' for Active; 'I' for Inactive)
REMARK    1  A    between atoms: C_1  and  C_3
REMARK    2  A    between atoms: C_1  and  C_5
REMARK    3  A    between atoms: C_3  and  C_15
REMARK    4  A    between atoms: C_4  and  C_9
REMARK    5  A    between atoms: C_16  and  C_17
REMARK    6  A    between atoms: C_21  and  O_22
REMARK                            x       y       z     vdW  Elec       q    Type
REMARK                         _______ _______ _______ _____ _____    ______ ____
ROOT
ATOM      1  C   UNL     1       7.472  32.176  16.084  0.00  0.00    +0.000 C 
ATOM      2  C   UNL     1       8.115  33.528  16.077  0.00  0.00    +0.000 C 
ENDROOT
BRANCH   1   4
ATOM      3  C   UNL     1       8.957  30.027  16.280  0.00  0.00    +0.000 C 
ATOM      4  C   UNL     1       8.270  31.011  16.188  0.00  0.00    +0.000 C 
BRANCH   3   8
ATOM      5  C   UNL     1      10.917  28.803  17.476  0.00  0.00    +0.000 C 
ATOM      6  C   UNL     1      11.599  27.491  17.375  0.00  0.00    +0.000 C 
ATOM      7  C   UNL     1      11.574  26.195  16.588  0.00  0.00    +0.000 C 
ATOM      8  C   UNL     1       9.787  28.851  16.394  0.00  0.00    +0.000 C 
ATOM      9  C   UNL     1      10.420  26.649  15.721  0.00  0.00    +0.000 C 
ATOM     10  C   UNL     1       9.583  27.791  15.573  0.00  0.00    +0.000 C 
ATOM     11  C   UNL     1      11.930  29.947  17.200  0.00  0.00    +0.000 C 
ATOM     12  C   UNL     1      10.269  28.954  18.881  0.00  0.00    +0.000 C 
ATOM     13  C   UNL     1       8.519  27.730  14.512  0.00  0.00    +0.000 C 
ENDBRANCH   3   8
ENDBRANCH   1   4
BRANCH   1  14
ATOM     14  C   UNL     1       6.187  32.070  15.947  0.00  0.00    +0.000 C 
BRANCH  14  15
ATOM     15  C   UNL     1       4.667  31.947  15.786  0.00  0.00    +0.000 C 
ATOM     16  C   UNL     1       3.477  31.849  15.658  0.00  0.00    +0.000 C 
BRANCH  16  17
ATOM     17  C   UNL     1       2.075  31.729  15.507  0.00  0.00    +0.000 C 
ATOM     18  C   UNL     1       1.463  30.380  15.285  0.00  0.00    +0.000 C 
ATOM     19  C   UNL     1       1.329  32.782  15.528  0.00  0.00    +0.000 C 
ATOM     20  O   UNL     1       0.149  34.472  16.600  0.00  0.00    +0.000 OA
ATOM     21  C   UNL     1       0.518  33.947  15.565  0.00  0.00    +0.000 C 
BRANCH  21  22
ATOM     22  O   UNL     1       0.209  34.437  14.354  0.00  0.00    +0.000 OA
ATOM     23  H   UNL     1      -0.650  34.889  14.490  0.00  0.00    +0.000 HD
ENDBRANCH  21  22
ENDBRANCH  16  17
ENDBRANCH  14  15
ENDBRANCH   1  14
TORSDOF 6
ENDMDL
MODEL 2
REMARK VINA RESULT:      -6.2     21.408     25.583
REMARK  Name = RetinoicAcid.pdbqt.pdb
REMARK  6 active torsions:
REMARK  status: ('A' for Active; 'I' for Inactive)
REMARK    1  A    between atoms: C_1  and  C_3
REMARK    2  A    between atoms: C_1  and  C_5
REMARK    3  A    between atoms: C_3  and  C_15
REMARK    4  A    between atoms: C_4  and  C_9
REMARK    5  A    between atoms: C_16  and  C_17
REMARK    6  A    between atoms: C_21  and  O_22
REMARK                            x       y       z     vdW  Elec       q    Type
REMARK                         _______ _______ _______ _____ _____    ______ ____
ROOT
ATOM      1  C   UNL     1     -17.311  35.816   6.068  0.00  0.00    +0.000 C 
ATOM      2  C   UNL     1     -18.712  36.331   6.183  0.00  0.00    +0.000 C 
ENDROOT
BRANCH   1   4
ATOM      3  C   UNL     1     -16.876  33.408   5.133  0.00  0.00    +0.000 C 
ATOM      4  C   UNL     1     -17.072  34.516   5.558  0.00  0.00    +0.000 C 
BRANCH   3   8
ATOM      5  C   UNL     1     -17.713  31.408   3.695  0.00  0.00    +0.000 C 
ATOM      6  C   UNL     1     -17.222  30.060   3.322  0.00  0.00    +0.000 C 
ATOM      7  C   UNL     1     -16.052  29.119   3.535  0.00  0.00    +0.000 C 
ATOM      8  C   UNL     1     -16.646  32.076   4.627  0.00  0.00    +0.000 C 
ATOM      9  C   UNL     1     -15.321  30.099   4.426  0.00  0.00    +0.000 C 
ATOM     10  C   UNL     1     -15.511  31.409   4.950  0.00  0.00    +0.000 C 
ATOM     11  C   UNL     1     -19.054  31.286   4.468  0.00  0.00    +0.000 C 
ATOM     12  C   UNL     1     -17.877  32.282   2.420  0.00  0.00    +0.000 C 
ATOM     13  C   UNL     1     -14.420  31.963   5.825  0.00  0.00    +0.000 C 
ENDBRANCH   3   8
ENDBRANCH   1   4
BRANCH   1  14
ATOM     14  C   UNL     1     -16.319  36.542   6.480  0.00  0.00    +0.000 C 
BRANCH  14  15
ATOM     15  C   UNL     1     -15.145  37.400   6.966  0.00  0.00    +0.000 C 
ATOM     16  C   UNL     1     -14.225  38.073   7.344  0.00  0.00    +0.000 C 
BRANCH  16  17
ATOM     17  C   UNL     1     -13.143  38.871   7.788  0.00  0.00    +0.000 C 
ATOM     18  C   UNL     1     -12.728  40.071   6.993  0.00  0.00    +0.000 C 
ATOM     19  C   UNL     1     -12.496  38.546   8.856  0.00  0.00    +0.000 C 
ATOM     20  O   UNL     1     -12.190  38.468  11.158  0.00  0.00    +0.000 OA
ATOM     21  C   UNL     1     -11.799  38.186  10.040  0.00  0.00    +0.000 C 
BRANCH  21  22
ATOM     22  O   UNL     1     -10.676  37.483   9.821  0.00  0.00    +0.000 OA
ATOM     23  H   UNL     1     -10.101  37.707  10.583  0.00  0.00    +0.000 HD
ENDBRANCH  21  22
ENDBRANCH  16  17
ENDBRANCH  14  15
ENDBRANCH   1  14
TORSDOF 6
ENDMDL
MODEL 3
REMARK VINA RESULT:      -6.2     21.310     25.255
REMARK  Name = RetinoicAcid.pdbqt.pdb
REMARK  6 active torsions:
REMARK  status: ('A' for Active; 'I' for Inactive)
REMARK    1  A    between atoms: C_1  and  C_3
REMARK    2  A    between atoms: C_1  and  C_5
REMARK    3  A    between atoms: C_3  and  C_15
REMARK    4  A    between atoms: C_4  and  C_9
REMARK    5  A    between atoms: C_16  and  C_17
REMARK    6  A    between atoms: C_21  and  O_22
REMARK                            x       y       z     vdW  Elec       q    Type
REMARK                         _______ _______ _______ _____ _____    ______ ____
ROOT
ATOM      1  C   UNL     1     -17.212  36.133   6.200  0.00  0.00    +0.000 C 
ATOM      2  C   UNL     1     -18.602  36.686   6.285  0.00  0.00    +0.000 C 
ENDROOT
BRANCH   1   4
ATOM      3  C   UNL     1     -16.818  33.710   5.286  0.00  0.00    +0.000 C 
ATOM      4  C   UNL     1     -16.999  34.821   5.711  0.00  0.00    +0.000 C 
BRANCH   3   8
ATOM      5  C   UNL     1     -15.639  31.404   5.529  0.00  0.00    +0.000 C 
ATOM      6  C   UNL     1     -15.605  30.120   4.790  0.00  0.00    +0.000 C 
ATOM      7  C   UNL     1     -16.177  29.439   3.562  0.00  0.00    +0.000 C 
ATOM      8  C   UNL     1     -16.599  32.380   4.770  0.00  0.00    +0.000 C 
ATOM      9  C   UNL     1     -16.985  30.655   3.164  0.00  0.00    +0.000 C 
ATOM     10  C   UNL     1     -17.225  31.976   3.637  0.00  0.00    +0.000 C 
ATOM     11  C   UNL     1     -14.217  32.025   5.573  0.00  0.00    +0.000 C 
ATOM     12  C   UNL     1     -16.195  31.173   6.963  0.00  0.00    +0.000 C 
ATOM     13  C   UNL     1     -18.175  32.828   2.841  0.00  0.00    +0.000 C 
ENDBRANCH   3   8
ENDBRANCH   1   4
BRANCH   1  14
ATOM     14  C   UNL     1     -16.209  36.839   6.618  0.00  0.00    +0.000 C 
BRANCH  14  15
ATOM     15  C   UNL     1     -15.021  37.675   7.111  0.00  0.00    +0.000 C 
ATOM     16  C   UNL     1     -14.092  38.330   7.497  0.00  0.00    +0.000 C 
BRANCH  16  17
ATOM     17  C   UNL     1     -12.999  39.103   7.958  0.00  0.00    +0.000 C 
ATOM     18  C   UNL     1     -12.567  40.314   7.188  0.00  0.00    +0.000 C 
ATOM     19  C   UNL     1     -12.357  38.747   9.019  0.00  0.00    +0.000 C 
ATOM     20  O   UNL     1     -12.053  38.617  11.318  0.00  0.00    +0.000 OA
ATOM     21  C   UNL     1     -11.666  38.353  10.195  0.00  0.00    +0.000 C 
BRANCH  21  22
ATOM     22  O   UNL     1     -10.552  37.639   9.961  0.00  0.00    +0.000 OA
ATOM     23  H   UNL     1     -10.629  36.871  10.565  0.00  0.00    +0.000 HD
ENDBRANCH  21  22
ENDBRANCH  16  17
ENDBRANCH  14  15
ENDBRANCH   1  14
TORSDOF 6
ENDMDL
MODEL 4
REMARK VINA RESULT:      -6.2     28.709     33.143
REMARK  Name = RetinoicAcid.pdbqt.pdb
REMARK  6 active torsions:
REMARK  status: ('A' for Active; 'I' for Inactive)
REMARK    1  A    between atoms: C_1  and  C_3
REMARK    2  A    between atoms: C_1  and  C_5
REMARK    3  A    between atoms: C_3  and  C_15
REMARK    4  A    between atoms: C_4  and  C_9
REMARK    5  A    between atoms: C_16  and  C_17
REMARK    6  A    between atoms: C_21  and  O_22
REMARK                            x       y       z     vdW  Elec       q    Type
REMARK                         _______ _______ _______ _____ _____    ______ ____
ROOT
ATOM      1  C   UNL     1       0.738  63.895  12.750  0.00  0.00    +0.000 C 
ATOM      2  C   UNL     1       1.184  65.291  13.061  0.00  0.00    +0.000 C 
ENDROOT
BRANCH   1   4
ATOM      3  C   UNL     1      -0.430  63.359  10.468  0.00  0.00    +0.000 C 
ATOM      4  C   UNL     1       0.109  63.610  11.514  0.00  0.00    +0.000 C 
BRANCH   3   8
ATOM      5  C   UNL     1      -2.485  62.359   9.224  0.00  0.00    +0.000 C 
ATOM      6  C   UNL     1      -2.917  62.172   7.819  0.00  0.00    +0.000 C 
ATOM      7  C   UNL     1      -2.465  62.421   6.393  0.00  0.00    +0.000 C 
ATOM      8  C   UNL     1      -1.082  63.053   9.217  0.00  0.00    +0.000 C 
ATOM      9  C   UNL     1      -1.163  63.056   6.830  0.00  0.00    +0.000 C 
ATOM     10  C   UNL     1      -0.485  63.371   8.041  0.00  0.00    +0.000 C 
ATOM     11  C   UNL     1      -2.363  60.980   9.927  0.00  0.00    +0.000 C 
ATOM     12  C   UNL     1      -3.492  63.281   9.968  0.00  0.00    +0.000 C 
ATOM     13  C   UNL     1       0.853  64.048   7.923  0.00  0.00    +0.000 C 
ENDBRANCH   3   8
ENDBRANCH   1   4
BRANCH   1  14
ATOM     14  C   UNL     1       0.885  62.958  13.634  0.00  0.00    +0.000 C 
BRANCH  14  15
ATOM     15  C   UNL     1       1.060  61.848  14.678  0.00  0.00    +0.000 C 
ATOM     16  C   UNL     1       1.200  60.980  15.494  0.00  0.00    +0.000 C 
BRANCH  16  17
ATOM     17  C   UNL     1       1.369  59.957  16.459  0.00  0.00    +0.000 C 
ATOM     18  C   UNL     1       2.599  59.935  17.313  0.00  0.00    +0.000 C 
ATOM     19  C   UNL     1       0.480  59.029  16.580  0.00  0.00    +0.000 C 
ATOM     20  O   UNL     1      -1.533  58.167  17.356  0.00  0.00    +0.000 OA
ATOM     21  C   UNL     1      -0.510  58.020  16.712  0.00  0.00    +0.000 C 
BRANCH  21  22
ATOM     22  O   UNL     1      -0.232  56.889  16.043  0.00  0.00    +0.000 OA
ATOM     23  H   UNL     1      -1.073  56.387  16.060  0.00  0.00    +0.000 HD
ENDBRANCH  21  22
ENDBRANCH  16  17
ENDBRANCH  14  15
ENDBRANCH   1  14
TORSDOF 6
ENDMDL
MODEL 5
REMARK VINA RESULT:      -6.2      0.791      2.051
REMARK  Name = RetinoicAcid.pdbqt.pdb
REMARK  6 active torsions:
REMARK  status: ('A' for Active; 'I' for Inactive)
REMARK    1  A    between atoms: C_1  and  C_3
REMARK    2  A    between atoms: C_1  and  C_5
REMARK    3  A    between atoms: C_3  and  C_15
REMARK    4  A    between atoms: C_4  and  C_9
REMARK    5  A    between atoms: C_16  and  C_17
REMARK    6  A    between atoms: C_21  and  O_22
REMARK                            x       y       z     vdW  Elec       q    Type
REMARK                         _______ _______ _______ _____ _____    ______ ____
ROOT
ATOM      1  C   UNL     1       7.843  31.996  15.997  0.00  0.00    +0.000 C 
ATOM      2  C   UNL     1       8.463  33.355  15.898  0.00  0.00    +0.000 C 
ENDROOT
BRANCH   1   4
ATOM      3  C   UNL     1       9.367  29.888  16.308  0.00  0.00    +0.000 C 
ATOM      4  C   UNL     1       8.662  30.853  16.164  0.00  0.00    +0.000 C 
BRANCH   3   8
ATOM      5  C   UNL     1      10.665  27.906  15.233  0.00  0.00    +0.000 C 
ATOM      6  C   UNL     1      11.528  26.795  15.699  0.00  0.00    +0.000 C 
ATOM      7  C   UNL     1      12.117  26.196  16.961  0.00  0.00    +0.000 C 
ATOM      8  C   UNL     1      10.217  28.735  16.484  0.00  0.00    +0.000 C 
ATOM      9  C   UNL     1      11.474  27.235  17.853  0.00  0.00    +0.000 C 
ATOM     10  C   UNL     1      10.632  28.375  17.723  0.00  0.00    +0.000 C 
ATOM     11  C   UNL     1       9.405  27.335  14.528  0.00  0.00    +0.000 C 
ATOM     12  C   UNL     1      11.468  28.836  14.281  0.00  0.00    +0.000 C 
ATOM     13  C   UNL     1      10.271  29.109  18.986  0.00  0.00    +0.000 C 
ENDBRANCH   3   8
ENDBRANCH   1   4
BRANCH   1  14
ATOM     14  C   UNL     1       6.559  31.861  15.881  0.00  0.00    +0.000 C 
BRANCH  14  15
ATOM     15  C   UNL     1       5.039  31.703  15.744  0.00  0.00    +0.000 C 
ATOM     16  C   UNL     1       3.850  31.579  15.635  0.00  0.00    +0.000 C 
BRANCH  16  17
ATOM     17  C   UNL     1       2.449  31.426  15.507  0.00  0.00    +0.000 C 
ATOM     18  C   UNL     1       1.860  30.058  15.350  0.00  0.00    +0.000 C 
ATOM     19  C   UNL     1       1.684  32.466  15.494  0.00  0.00    +0.000 C 
ATOM     20  O   UNL     1       0.485  34.177  16.510  0.00  0.00    +0.000 OA
ATOM     21  C   UNL     1       0.851  33.616  15.493  0.00  0.00    +0.000 C 
BRANCH  21  22
ATOM     22  O   UNL     1       0.518  34.050  14.267  0.00  0.00    +0.000 OA
ATOM     23  H   UNL     1      -0.348  34.490  14.395  0.00  0.00    +0.000 HD
ENDBRANCH  21  22
ENDBRANCH  16  17
ENDBRANCH  14  15
ENDBRANCH   1  14
TORSDOF 6
ENDMDL
MODEL 6
REMARK VINA RESULT:      -6.1      5.253      9.274
REMARK  Name = RetinoicAcid.pdbqt.pdb
REMARK  6 active torsions:
REMARK  status: ('A' for Active; 'I' for Inactive)
REMARK    1  A    between atoms: C_1  and  C_3
REMARK    2  A    between atoms: C_1  and  C_5
REMARK    3  A    between atoms: C_3  and  C_15
REMARK    4  A    between atoms: C_4  and  C_9
REMARK    5  A    between atoms: C_16  and  C_17
REMARK    6  A    between atoms: C_21  and  O_22
REMARK                            x       y       z     vdW  Elec       q    Type
REMARK                         _______ _______ _______ _____ _____    ______ ____
ROOT
ATOM      1  C   UNL     1       7.567  32.925  16.153  0.00  0.00    +0.000 C 
ATOM      2  C   UNL     1       6.098  32.650  16.255  0.00  0.00    +0.000 C 
ENDROOT
BRANCH   1   4
ATOM      3  C   UNL     1       8.447  35.387  16.311  0.00  0.00    +0.000 C 
ATOM      4  C   UNL     1       8.047  34.254  16.236  0.00  0.00    +0.000 C 
BRANCH   3   8
ATOM      5  C   UNL     1      10.076  37.094  17.407  0.00  0.00    +0.000 C 
ATOM      6  C   UNL     1      10.364  38.543  17.295  0.00  0.00    +0.000 C 
ATOM      7  C   UNL     1       9.925  39.789  16.550  0.00  0.00    +0.000 C 
ATOM      8  C   UNL     1       8.921  36.747  16.408  0.00  0.00    +0.000 C 
ATOM      9  C   UNL     1       8.876  39.044  15.756  0.00  0.00    +0.000 C 
ATOM     10  C   UNL     1       8.376  37.716  15.633  0.00  0.00    +0.000 C 
ATOM     11  C   UNL     1       9.613  36.758  18.851  0.00  0.00    +0.000 C 
ATOM     12  C   UNL     1      11.337  36.273  17.016  0.00  0.00    +0.000 C 
ATOM     13  C   UNL     1       7.275  37.487  14.635  0.00  0.00    +0.000 C 
ENDBRANCH   3   8
ENDBRANCH   1   4
BRANCH   1  14
ATOM     14  C   UNL     1       8.394  31.949  15.942  0.00  0.00    +0.000 C 
BRANCH  14  15
ATOM     15  C   UNL     1       9.374  30.796  15.693  0.00  0.00    +0.000 C 
ATOM     16  C   UNL     1      10.142  29.894  15.495  0.00  0.00    +0.000 C 
BRANCH  16  17
ATOM     17  C   UNL     1      11.050  28.834  15.261  0.00  0.00    +0.000 C 
ATOM     18  C   UNL     1      12.059  28.948  14.159  0.00  0.00    +0.000 C 
ATOM     19  C   UNL     1      10.988  27.760  15.973  0.00  0.00    +0.000 C 
ATOM     20  O   UNL     1      11.426  26.498  17.874  0.00  0.00    +0.000 OA
ATOM     21  C   UNL     1      10.918  26.587  16.771  0.00  0.00    +0.000 C 
BRANCH  21  22
ATOM     22  O   UNL     1      10.219  25.586  16.212  0.00  0.00    +0.000 OA
ATOM     23  H   UNL     1      10.474  24.796  16.733  0.00  0.00    +0.000 HD
ENDBRANCH  21  22
ENDBRANCH  16  17
ENDBRANCH  14  15
ENDBRANCH   1  14
TORSDOF 6
ENDMDL
MODEL 7
REMARK VINA RESULT:      -6.0     28.560     33.132
REMARK  Name = RetinoicAcid.pdbqt.pdb
REMARK  6 active torsions:
REMARK  status: ('A' for Active; 'I' for Inactive)
REMARK    1  A    between atoms: C_1  and  C_3
REMARK    2  A    between atoms: C_1  and  C_5
REMARK    3  A    between atoms: C_3  and  C_15
REMARK    4  A    between atoms: C_4  and  C_9
REMARK    5  A    between atoms: C_16  and  C_17
REMARK    6  A    between atoms: C_21  and  O_22
REMARK                            x       y       z     vdW  Elec       q    Type
REMARK                         _______ _______ _______ _____ _____    ______ ____
ROOT
ATOM      1  C   UNL     1       0.284  63.841  12.949  0.00  0.00    +0.000 C 
ATOM      2  C   UNL     1       0.517  65.270  13.334  0.00  0.00    +0.000 C 
ENDROOT
BRANCH   1   4
ATOM      3  C   UNL     1      -0.702  63.258  10.593  0.00  0.00    +0.000 C 
ATOM      4  C   UNL     1      -0.244  63.528  11.672  0.00  0.00    +0.000 C 
BRANCH   3   8
ATOM      5  C   UNL     1      -0.935  63.842   8.069  0.00  0.00    +0.000 C 
ATOM      6  C   UNL     1      -1.622  63.277   6.883  0.00  0.00    +0.000 C 
ATOM      7  C   UNL     1      -2.521  62.130   6.465  0.00  0.00    +0.000 C 
ATOM      8  C   UNL     1      -1.257  62.932   9.301  0.00  0.00    +0.000 C 
ATOM      9  C   UNL     1      -2.572  61.552   7.862  0.00  0.00    +0.000 C 
ATOM     10  C   UNL     1      -2.048  61.841   9.154  0.00  0.00    +0.000 C 
ATOM     11  C   UNL     1      -1.460  65.277   8.349  0.00  0.00    +0.000 C 
ATOM     12  C   UNL     1       0.603  63.842   7.838  0.00  0.00    +0.000 C 
ATOM     13  C   UNL     1      -2.408  60.895  10.267  0.00  0.00    +0.000 C 
ENDBRANCH   3   8
ENDBRANCH   1   4
BRANCH   1  14
ATOM     14  C   UNL     1       0.521  62.895  13.801  0.00  0.00    +0.000 C 
BRANCH  14  15
ATOM     15  C   UNL     1       0.799  61.774  14.811  0.00  0.00    +0.000 C 
ATOM     16  C   UNL     1       1.016  60.896  15.601  0.00  0.00    +0.000 C 
BRANCH  16  17
ATOM     17  C   UNL     1       1.274  59.858  16.527  0.00  0.00    +0.000 C 
ATOM     18  C   UNL     1       2.554  59.856  17.306  0.00  0.00    +0.000 C 
ATOM     19  C   UNL     1       0.424  58.899  16.677  0.00  0.00    +0.000 C 
ATOM     20  O   UNL     1      -1.511  57.954  17.550  0.00  0.00    +0.000 OA
ATOM     21  C   UNL     1      -0.525  57.855  16.843  0.00  0.00    +0.000 C 
BRANCH  21  22
ATOM     22  O   UNL     1      -0.253  56.750  16.130  0.00  0.00    +0.000 OA
ATOM     23  H   UNL     1       0.309  57.072  15.395  0.00  0.00    +0.000 HD
ENDBRANCH  21  22
ENDBRANCH  16  17
ENDBRANCH  14  15
ENDBRANCH   1  14
TORSDOF 6
ENDMDL
MODEL 8
REMARK VINA RESULT:      -5.9     10.596     14.976
REMARK  Name = RetinoicAcid.pdbqt.pdb
REMARK  6 active torsions:
REMARK  status: ('A' for Active; 'I' for Inactive)
REMARK    1  A    between atoms: C_1  and  C_3
REMARK    2  A    between atoms: C_1  and  C_5
REMARK    3  A    between atoms: C_3  and  C_15
REMARK    4  A    between atoms: C_4  and  C_9
REMARK    5  A    between atoms: C_16  and  C_17
REMARK    6  A    between atoms: C_21  and  O_22
REMARK                            x       y       z     vdW  Elec       q    Type
REMARK                         _______ _______ _______ _____ _____    ______ ____
ROOT
ATOM      1  C   UNL     1       1.403  42.473  17.587  0.00  0.00    +0.000 C 
ATOM      2  C   UNL     1       2.594  43.131  16.961  0.00  0.00    +0.000 C 
ENDROOT
BRANCH   1   4
ATOM      3  C   UNL     1       0.541  43.283  19.924  0.00  0.00    +0.000 C 
ATOM      4  C   UNL     1       0.937  42.905  18.852  0.00  0.00    +0.000 C 
BRANCH   3   8
ATOM      5  C   UNL     1      -1.307  43.223  21.755  0.00  0.00    +0.000 C 
ATOM      6  C   UNL     1      -1.543  43.845  23.078  0.00  0.00    +0.000 C 
ATOM      7  C   UNL     1      -0.915  44.805  24.070  0.00  0.00    +0.000 C 
ATOM      8  C   UNL     1       0.064  43.743  21.206  0.00  0.00    +0.000 C 
ATOM      9  C   UNL     1       0.299  45.041  23.198  0.00  0.00    +0.000 C 
ATOM     10  C   UNL     1       0.803  44.616  21.936  0.00  0.00    +0.000 C 
ATOM     11  C   UNL     1      -2.434  43.635  20.769  0.00  0.00    +0.000 C 
ATOM     12  C   UNL     1      -1.229  41.677  21.904  0.00  0.00    +0.000 C 
ATOM     13  C   UNL     1       2.136  45.166  21.508  0.00  0.00    +0.000 C 
ENDBRANCH   3   8
ENDBRANCH   1   4
BRANCH   1  14
ATOM     14  C   UNL     1       0.829  41.475  16.992  0.00  0.00    +0.000 C 
BRANCH  14  15
ATOM     15  C   UNL     1       0.148  40.293  16.290  0.00  0.00    +0.000 C 
ATOM     16  C   UNL     1      -0.385  39.368  15.742  0.00  0.00    +0.000 C 
BRANCH  16  17
ATOM     17  C   UNL     1      -1.018  38.277  15.099  0.00  0.00    +0.000 C 
ATOM     18  C   UNL     1      -1.664  38.474  13.761  0.00  0.00    +0.000 C 
ATOM     19  C   UNL     1      -1.067  37.125  15.678  0.00  0.00    +0.000 C 
ATOM     20  O   UNL     1      -0.179  35.067  16.289  0.00  0.00    +0.000 OA
ATOM     21  C   UNL     1      -1.103  35.858  16.319  0.00  0.00    +0.000 C 
BRANCH  21  22
ATOM     22  O   UNL     1      -2.243  35.616  16.987  0.00  0.00    +0.000 OA
ATOM     23  H   UNL     1      -2.928  35.580  16.286  0.00  0.00    +0.000 HD
ENDBRANCH  21  22
ENDBRANCH  16  17
ENDBRANCH  14  15
ENDBRANCH   1  14
TORSDOF 6
ENDMDL
MODEL 9
REMARK VINA RESULT:      -5.8     30.972     33.951
REMARK  Name = RetinoicAcid.pdbqt.pdb
REMARK  6 active torsions:
REMARK  status: ('A' for Active; 'I' for Inactive)
REMARK    1  A    between atoms: C_1  and  C_3
REMARK    2  A    between atoms: C_1  and  C_5
REMARK    3  A    between atoms: C_3  and  C_15
REMARK    4  A    between atoms: C_4  and  C_9
REMARK    5  A    between atoms: C_16  and  C_17
REMARK    6  A    between atoms: C_21  and  O_22
REMARK                            x       y       z     vdW  Elec       q    Type
REMARK                         _______ _______ _______ _____ _____    ______ ____
ROOT
ATOM      1  C   UNL     1      -1.519  62.283  13.208  0.00  0.00    +0.000 C 
ATOM      2  C   UNL     1      -2.909  62.132  13.744  0.00  0.00    +0.000 C 
ENDROOT
BRANCH   1   4
ATOM      3  C   UNL     1      -1.143  62.853  10.679  0.00  0.00    +0.000 C 
ATOM      4  C   UNL     1      -1.316  62.585  11.839  0.00  0.00    +0.000 C 
BRANCH   3   8
ATOM      5  C   UNL     1      -1.993  62.746   8.222  0.00  0.00    +0.000 C 
ATOM      6  C   UNL     1      -1.532  63.212   6.894  0.00  0.00    +0.000 C 
ATOM      7  C   UNL     1      -0.395  63.959   6.224  0.00  0.00    +0.000 C 
ATOM      8  C   UNL     1      -0.933  63.180   9.289  0.00  0.00    +0.000 C 
ATOM      9  C   UNL     1       0.341  64.173   7.529  0.00  0.00    +0.000 C 
ATOM     10  C   UNL     1       0.174  63.866   8.909  0.00  0.00    +0.000 C 
ATOM     11  C   UNL     1      -2.109  61.197   8.226  0.00  0.00    +0.000 C 
ATOM     12  C   UNL     1      -3.354  63.411   8.573  0.00  0.00    +0.000 C 
ATOM     13  C   UNL     1       1.245  64.341   9.852  0.00  0.00    +0.000 C 
ENDBRANCH   3   8
ENDBRANCH   1   4
BRANCH   1  14
ATOM     14  C   UNL     1      -0.501  62.090  13.986  0.00  0.00    +0.000 C 
BRANCH  14  15
ATOM     15  C   UNL     1       0.704  61.864  14.908  0.00  0.00    +0.000 C 
ATOM     16  C   UNL     1       1.648  61.689  15.629  0.00  0.00    +0.000 C 
BRANCH  16  17
ATOM     17  C   UNL     1       2.761  61.487  16.480  0.00  0.00    +0.000 C 
ATOM     18  C   UNL     1       2.597  60.704  17.746  0.00  0.00    +0.000 C 
ATOM     19  C   UNL     1       3.905  62.003  16.181  0.00  0.00    +0.000 C 
ATOM     20  O   UNL     1       5.935  62.046  15.052  0.00  0.00    +0.000 OA
ATOM     21  C   UNL     1       5.163  62.566  15.836  0.00  0.00    +0.000 C 
BRANCH  21  22
ATOM     22  O   UNL     1       5.419  63.741  16.434  0.00  0.00    +0.000 OA
ATOM     23  H   UNL     1       5.643  64.343  15.694  0.00  0.00    +0.000 HD
ENDBRANCH  21  22
ENDBRANCH  16  17
ENDBRANCH  14  15
ENDBRANCH   1  14
TORSDOF 6
ENDMDL
