MODEL 1
REMARK VINA RESULT:      -8.7      0.000      0.000
REMARK  Name = SB_202190.pdbqt.pdb
REMARK  4 active torsions:
REMARK  status: ('A' for Active; 'I' for Inactive)
REMARK    1  A    between atoms: C_4  and  C_7
REMARK    2  A    between atoms: C_5  and  C_19
REMARK    3  A    between atoms: C_6  and  C_8
REMARK    4  A    between atoms: C_15  and  O_26
REMARK                            x       y       z     vdW  Elec       q    Type
REMARK                         _______ _______ _______ _____ _____    ______ ____
ROOT
ATOM      1  N   UNL     1       5.529  33.613  16.028  0.00  0.00    +0.000 N 
ATOM      2  N   UNL     1       6.528  31.655  16.072  0.00  0.00    +0.000 NA
ATOM      3  C   UNL     1       4.539  32.703  15.716  0.00  0.00    +0.000 A 
ATOM      4  C   UNL     1       5.206  31.486  15.722  0.00  0.00    +0.000 A 
ATOM      5  C   UNL     1       6.710  32.946  16.251  0.00  0.00    +0.000 A 
ATOM      6  H   UNL     1       5.404  34.611  16.119  0.00  0.00    +0.000 HD
ENDROOT
BRANCH   4   7
ATOM      7  C   UNL     1       4.677  30.176  15.405  0.00  0.00    +0.000 A 
ATOM      8  C   UNL     1       3.360  29.830  15.716  0.00  0.00    +0.000 A 
ATOM      9  C   UNL     1       2.854  28.582  15.362  0.00  0.00    +0.000 A 
ATOM     10  C   UNL     1       3.669  27.687  14.678  0.00  0.00    +0.000 A 
ATOM     11  F   UNL     1       3.187  26.484  14.340  0.00  0.00    +0.000 F 
ATOM     12  C   UNL     1       4.976  28.019  14.343  0.00  0.00    +0.000 A 
ATOM     13  C   UNL     1       5.474  29.269  14.702  0.00  0.00    +0.000 A 
ENDBRANCH   4   7
BRANCH   3  15
ATOM     14  N   UNL     1       0.471  33.826  15.088  0.00  0.00    +0.000 NA
ATOM     15  C   UNL     1       3.152  33.106  15.504  0.00  0.00    +0.000 A 
ATOM     16  C   UNL     1       2.724  33.563  14.259  0.00  0.00    +0.000 A 
ATOM     17  C   UNL     1       2.220  33.002  16.536  0.00  0.00    +0.000 A 
ATOM     18  C   UNL     1       1.392  33.910  14.105  0.00  0.00    +0.000 A 
ATOM     19  C   UNL     1       0.910  33.376  16.282  0.00  0.00    +0.000 A 
ENDBRANCH   3  15
BRANCH   5  20
ATOM     20  C   UNL     1       7.959  33.598  16.628  0.00  0.00    +0.000 A 
ATOM     21  C   UNL     1       8.048  34.993  16.606  0.00  0.00    +0.000 A 
ATOM     22  C   UNL     1       9.079  32.856  17.015  0.00  0.00    +0.000 A 
ATOM     23  C   UNL     1       9.230  35.638  16.963  0.00  0.00    +0.000 A 
ATOM     24  C   UNL     1      10.266  33.491  17.373  0.00  0.00    +0.000 A 
ATOM     25  C   UNL     1      10.331  34.878  17.344  0.00  0.00    +0.000 A 
BRANCH  25  26
ATOM     26  O   UNL     1      11.503  35.480  17.699  0.00  0.00    +0.000 OA
ATOM     27  H   UNL     1      12.228  34.848  17.549  0.00  0.00    +0.000 HD
ENDBRANCH  25  26
ENDBRANCH   5  20
TORSDOF 4
ENDMDL
MODEL 2
REMARK VINA RESULT:      -8.6      2.042      4.242
REMARK  Name = SB_202190.pdbqt.pdb
REMARK  4 active torsions:
REMARK  status: ('A' for Active; 'I' for Inactive)
REMARK    1  A    between atoms: C_4  and  C_7
REMARK    2  A    between atoms: C_5  and  C_19
REMARK    3  A    between atoms: C_6  and  C_8
REMARK    4  A    between atoms: C_15  and  O_26
REMARK                            x       y       z     vdW  Elec       q    Type
REMARK                         _______ _______ _______ _____ _____    ______ ____
ROOT
ATOM      1  N   UNL     1       6.546  31.539  16.172  0.00  0.00    +0.000 N 
ATOM      2  N   UNL     1       5.628  33.536  16.147  0.00  0.00    +0.000 NA
ATOM      3  C   UNL     1       5.236  31.322  15.796  0.00  0.00    +0.000 A 
ATOM      4  C   UNL     1       4.679  32.593  15.819  0.00  0.00    +0.000 A 
ATOM      5  C   UNL     1       6.751  32.885  16.361  0.00  0.00    +0.000 A 
ATOM      6  H   UNL     1       7.259  30.829  16.259  0.00  0.00    +0.000 HD
ENDROOT
BRANCH   4   7
ATOM      7  C   UNL     1       3.304  32.970  15.566  0.00  0.00    +0.000 A 
ATOM      8  C   UNL     1       2.345  32.948  16.581  0.00  0.00    +0.000 A 
ATOM      9  C   UNL     1       1.038  33.357  16.330  0.00  0.00    +0.000 A 
ATOM     10  C   UNL     1       0.699  33.806  15.059  0.00  0.00    +0.000 A 
ATOM     11  F   UNL     1      -0.558  34.197  14.813  0.00  0.00    +0.000 F 
ATOM     12  C   UNL     1       1.642  33.854  14.039  0.00  0.00    +0.000 A 
ATOM     13  C   UNL     1       2.947  33.441  14.300  0.00  0.00    +0.000 A 
ENDBRANCH   4   7
BRANCH   3  15
ATOM     14  N   UNL     1       3.762  27.464  14.725  0.00  0.00    +0.000 NA
ATOM     15  C   UNL     1       4.737  29.995  15.447  0.00  0.00    +0.000 A 
ATOM     16  C   UNL     1       3.467  29.583  15.845  0.00  0.00    +0.000 A 
ATOM     17  C   UNL     1       5.510  29.130  14.672  0.00  0.00    +0.000 A 
ATOM     18  C   UNL     1       3.032  28.323  15.467  0.00  0.00    +0.000 A 
ATOM     19  C   UNL     1       4.986  27.889  14.348  0.00  0.00    +0.000 A 
ENDBRANCH   3  15
BRANCH   5  20
ATOM     20  C   UNL     1       8.032  33.472  16.739  0.00  0.00    +0.000 A 
ATOM     21  C   UNL     1       8.136  34.855  16.913  0.00  0.00    +0.000 A 
ATOM     22  C   UNL     1       9.166  32.679  16.935  0.00  0.00    +0.000 A 
ATOM     23  C   UNL     1       9.348  35.439  17.274  0.00  0.00    +0.000 A 
ATOM     24  C   UNL     1      10.382  33.252  17.297  0.00  0.00    +0.000 A 
ATOM     25  C   UNL     1      10.463  34.629  17.464  0.00  0.00    +0.000 A 
BRANCH  25  26
ATOM     26  O   UNL     1      11.665  35.170  17.819  0.00  0.00    +0.000 OA
ATOM     27  H   UNL     1      11.862  34.901  18.733  0.00  0.00    +0.000 HD
ENDBRANCH  25  26
ENDBRANCH   5  20
TORSDOF 4
ENDMDL
MODEL 3
REMARK VINA RESULT:      -8.4      4.570      8.491
REMARK  Name = SB_202190.pdbqt.pdb
REMARK  4 active torsions:
REMARK  status: ('A' for Active; 'I' for Inactive)
REMARK    1  A    between atoms: C_4  and  C_7
REMARK    2  A    between atoms: C_5  and  C_19
REMARK    3  A    between atoms: C_6  and  C_8
REMARK    4  A    between atoms: C_15  and  O_26
REMARK                            x       y       z     vdW  Elec       q    Type
REMARK                         _______ _______ _______ _____ _____    ______ ____
ROOT
ATOM      1  N   UNL     1       7.096  28.905  15.789  0.00  0.00    +0.000 N 
ATOM      2  N   UNL     1       6.459  30.946  15.279  0.00  0.00    +0.000 NA
ATOM      3  C   UNL     1       8.220  29.684  15.975  0.00  0.00    +0.000 A 
ATOM      4  C   UNL     1       7.795  30.955  15.617  0.00  0.00    +0.000 A 
ATOM      5  C   UNL     1       6.050  29.700  15.385  0.00  0.00    +0.000 A 
ATOM      6  H   UNL     1       7.033  27.911  15.960  0.00  0.00    +0.000 HD
ENDROOT
BRANCH   4   7
ATOM      7  C   UNL     1       8.574  32.174  15.560  0.00  0.00    +0.000 A 
ATOM      8  C   UNL     1       9.711  32.273  14.756  0.00  0.00    +0.000 A 
ATOM      9  C   UNL     1      10.422  33.468  14.678  0.00  0.00    +0.000 A 
ATOM     10  C   UNL     1       9.978  34.571  15.397  0.00  0.00    +0.000 A 
ATOM     11  F   UNL     1      10.662  35.721  15.328  0.00  0.00    +0.000 F 
ATOM     12  C   UNL     1       8.838  34.499  16.189  0.00  0.00    +0.000 A 
ATOM     13  C   UNL     1       8.134  33.300  16.261  0.00  0.00    +0.000 A 
ENDBRANCH   4   7
BRANCH   3  15
ATOM     14  N   UNL     1      11.906  28.120  17.448  0.00  0.00    +0.000 NA
ATOM     15  C   UNL     1       9.473  29.131  16.482  0.00  0.00    +0.000 A 
ATOM     16  C   UNL     1      10.337  28.435  15.640  0.00  0.00    +0.000 A 
ATOM     17  C   UNL     1       9.846  29.327  17.811  0.00  0.00    +0.000 A 
ATOM     18  C   UNL     1      11.525  27.952  16.165  0.00  0.00    +0.000 A 
ATOM     19  C   UNL     1      11.054  28.803  18.241  0.00  0.00    +0.000 A 
ENDBRANCH   3  15
BRANCH   5  20
ATOM     20  C   UNL     1       4.702  29.208  15.122  0.00  0.00    +0.000 A 
ATOM     21  C   UNL     1       3.604  29.848  15.703  0.00  0.00    +0.000 A 
ATOM     22  C   UNL     1       4.480  28.102  14.296  0.00  0.00    +0.000 A 
ATOM     23  C   UNL     1       2.308  29.397  15.465  0.00  0.00    +0.000 A 
ATOM     24  C   UNL     1       3.189  27.642  14.052  0.00  0.00    +0.000 A 
ATOM     25  C   UNL     1       2.112  28.295  14.640  0.00  0.00    +0.000 A 
BRANCH  25  26
ATOM     26  O   UNL     1       0.854  27.828  14.388  0.00  0.00    +0.000 OA
ATOM     27  H   UNL     1       0.377  27.769  15.233  0.00  0.00    +0.000 HD
ENDBRANCH  25  26
ENDBRANCH   5  20
TORSDOF 4
ENDMDL
MODEL 4
REMARK VINA RESULT:      -8.3      4.286      7.950
REMARK  Name = SB_202190.pdbqt.pdb
REMARK  4 active torsions:
REMARK  status: ('A' for Active; 'I' for Inactive)
REMARK    1  A    between atoms: C_4  and  C_7
REMARK    2  A    between atoms: C_5  and  C_19
REMARK    3  A    between atoms: C_6  and  C_8
REMARK    4  A    between atoms: C_15  and  O_26
REMARK                            x       y       z     vdW  Elec       q    Type
REMARK                         _______ _______ _______ _____ _____    ______ ____
ROOT
ATOM      1  N   UNL     1       5.834  29.882  15.901  0.00  0.00    +0.000 N 
ATOM      2  N   UNL     1       5.923  32.078  15.942  0.00  0.00    +0.000 NA
ATOM      3  C   UNL     1       7.177  30.184  15.794  0.00  0.00    +0.000 A 
ATOM      4  C   UNL     1       7.195  31.572  15.793  0.00  0.00    +0.000 A 
ATOM      5  C   UNL     1       5.109  31.045  16.004  0.00  0.00    +0.000 A 
ATOM      6  H   UNL     1       5.442  28.952  15.938  0.00  0.00    +0.000 HD
ENDROOT
BRANCH   4   7
ATOM      7  C   UNL     1       8.338  32.449  15.645  0.00  0.00    +0.000 A 
ATOM      8  C   UNL     1       9.335  32.191  14.702  0.00  0.00    +0.000 A 
ATOM      9  C   UNL     1      10.403  33.070  14.541  0.00  0.00    +0.000 A 
ATOM     10  C   UNL     1      10.458  34.221  15.320  0.00  0.00    +0.000 A 
ATOM     11  F   UNL     1      11.487  35.067  15.171  0.00  0.00    +0.000 F 
ATOM     12  C   UNL     1       9.467  34.506  16.250  0.00  0.00    +0.000 A 
ATOM     13  C   UNL     1       8.403  33.620  16.404  0.00  0.00    +0.000 A 
ENDBRANCH   4   7
BRANCH   3  15
ATOM     14  N   UNL     1      10.217  27.195  15.632  0.00  0.00    +0.000 NA
ATOM     15  C   UNL     1       8.206  29.149  15.749  0.00  0.00    +0.000 A 
ATOM     16  C   UNL     1       8.153  28.132  14.799  0.00  0.00    +0.000 A 
ATOM     17  C   UNL     1       9.284  29.185  16.634  0.00  0.00    +0.000 A 
ATOM     18  C   UNL     1       9.167  27.188  14.784  0.00  0.00    +0.000 A 
ATOM     19  C   UNL     1      10.247  28.193  16.539  0.00  0.00    +0.000 A 
ENDBRANCH   3  15
BRANCH   5  20
ATOM     20  C   UNL     1       3.660  31.094  16.157  0.00  0.00    +0.000 A 
ATOM     21  C   UNL     1       2.886  29.988  15.797  0.00  0.00    +0.000 A 
ATOM     22  C   UNL     1       3.021  32.231  16.660  0.00  0.00    +0.000 A 
ATOM     23  C   UNL     1       1.500  30.012  15.934  0.00  0.00    +0.000 A 
ATOM     24  C   UNL     1       1.636  32.266  16.802  0.00  0.00    +0.000 A 
ATOM     25  C   UNL     1       0.886  31.154  16.437  0.00  0.00    +0.000 A 
BRANCH  25  26
ATOM     26  O   UNL     1      -0.469  31.209  16.584  0.00  0.00    +0.000 OA
ATOM     27  H   UNL     1      -0.808  31.923  16.017  0.00  0.00    +0.000 HD
ENDBRANCH  25  26
ENDBRANCH   5  20
TORSDOF 4
ENDMDL
MODEL 5
REMARK VINA RESULT:      -8.2      3.558      5.950
REMARK  Name = SB_202190.pdbqt.pdb
REMARK  4 active torsions:
REMARK  status: ('A' for Active; 'I' for Inactive)
REMARK    1  A    between atoms: C_4  and  C_7
REMARK    2  A    between atoms: C_5  and  C_19
REMARK    3  A    between atoms: C_6  and  C_8
REMARK    4  A    between atoms: C_15  and  O_26
REMARK                            x       y       z     vdW  Elec       q    Type
REMARK                         _______ _______ _______ _____ _____    ______ ____
ROOT
ATOM      1  N   UNL     1       8.468  31.769  16.228  0.00  0.00    +0.000 N 
ATOM      2  N   UNL     1       6.594  30.764  15.670  0.00  0.00    +0.000 NA
ATOM      3  C   UNL     1       7.484  32.717  16.430  0.00  0.00    +0.000 A 
ATOM      4  C   UNL     1       6.323  32.063  16.041  0.00  0.00    +0.000 A 
ATOM      5  C   UNL     1       7.895  30.601  15.786  0.00  0.00    +0.000 A 
ATOM      6  H   UNL     1       9.453  31.895  16.413  0.00  0.00    +0.000 HD
ENDROOT
BRANCH   4   7
ATOM      7  C   UNL     1       4.977  32.594  15.984  0.00  0.00    +0.000 A 
ATOM      8  C   UNL     1       4.592  33.493  14.988  0.00  0.00    +0.000 A 
ATOM      9  C   UNL     1       3.281  33.957  14.920  0.00  0.00    +0.000 A 
ATOM     10  C   UNL     1       2.351  33.502  15.848  0.00  0.00    +0.000 A 
ATOM     11  F   UNL     1       1.090  33.950  15.790  0.00  0.00    +0.000 F 
ATOM     12  C   UNL     1       2.709  32.593  16.836  0.00  0.00    +0.000 A 
ATOM     13  C   UNL     1       4.023  32.135  16.896  0.00  0.00    +0.000 A 
ENDBRANCH   4   7
BRANCH   3  15
ATOM     14  N   UNL     1       8.287  36.588  18.032  0.00  0.00    +0.000 NA
ATOM     15  C   UNL     1       7.778  34.038  16.976  0.00  0.00    +0.000 A 
ATOM     16  C   UNL     1       8.007  35.124  16.132  0.00  0.00    +0.000 A 
ATOM     17  C   UNL     1       7.795  34.246  18.355  0.00  0.00    +0.000 A 
ATOM     18  C   UNL     1       8.257  36.361  16.702  0.00  0.00    +0.000 A 
ATOM     19  C   UNL     1       8.058  35.522  18.826  0.00  0.00    +0.000 A 
ENDBRANCH   3  15
BRANCH   5  20
ATOM     20  C   UNL     1       8.641  29.381  15.497  0.00  0.00    +0.000 A 
ATOM     21  C   UNL     1       7.980  28.275  14.957  0.00  0.00    +0.000 A 
ATOM     22  C   UNL     1      10.013  29.292  15.749  0.00  0.00    +0.000 A 
ATOM     23  C   UNL     1       8.672  27.100  14.673  0.00  0.00    +0.000 A 
ATOM     24  C   UNL     1      10.714  28.122  15.469  0.00  0.00    +0.000 A 
ATOM     25  C   UNL     1      10.037  27.034  14.932  0.00  0.00    +0.000 A 
BRANCH  25  26
ATOM     26  O   UNL     1      10.743  25.897  14.664  0.00  0.00    +0.000 OA
ATOM     27  H   UNL     1      11.508  26.137  14.114  0.00  0.00    +0.000 HD
ENDBRANCH  25  26
ENDBRANCH   5  20
TORSDOF 4
ENDMDL
MODEL 6
REMARK VINA RESULT:      -8.0      2.806      5.150
REMARK  Name = SB_202190.pdbqt.pdb
REMARK  4 active torsions:
REMARK  status: ('A' for Active; 'I' for Inactive)
REMARK    1  A    between atoms: C_4  and  C_7
REMARK    2  A    between atoms: C_5  and  C_19
REMARK    3  A    between atoms: C_6  and  C_8
REMARK    4  A    between atoms: C_15  and  O_26
REMARK                            x       y       z     vdW  Elec       q    Type
REMARK                         _______ _______ _______ _____ _____    ______ ____
ROOT
ATOM      1  N   UNL     1       8.726  31.334  16.362  0.00  0.00    +0.000 N 
ATOM      2  N   UNL     1       6.635  31.901  15.990  0.00  0.00    +0.000 NA
ATOM      3  C   UNL     1       8.105  30.162  15.978  0.00  0.00    +0.000 A 
ATOM      4  C   UNL     1       6.786  30.547  15.781  0.00  0.00    +0.000 A 
ATOM      5  C   UNL     1       7.816  32.363  16.344  0.00  0.00    +0.000 A 
ATOM      6  H   UNL     1       9.706  31.434  16.585  0.00  0.00    +0.000 HD
ENDROOT
BRANCH   4   7
ATOM      7  C   UNL     1       5.657  29.715  15.422  0.00  0.00    +0.000 A 
ATOM      8  C   UNL     1       4.480  29.724  16.173  0.00  0.00    +0.000 A 
ATOM      9  C   UNL     1       3.387  28.951  15.787  0.00  0.00    +0.000 A 
ATOM     10  C   UNL     1       3.474  28.180  14.633  0.00  0.00    +0.000 A 
ATOM     11  F   UNL     1       2.427  27.432  14.261  0.00  0.00    +0.000 F 
ATOM     12  C   UNL     1       4.630  28.171  13.861  0.00  0.00    +0.000 A 
ATOM     13  C   UNL     1       5.718  28.947  14.256  0.00  0.00    +0.000 A 
ENDBRANCH   4   7
BRANCH   3  15
ATOM     14  N   UNL     1      10.284  26.526  15.503  0.00  0.00    +0.000 NA
ATOM     15  C   UNL     1       8.836  28.908  15.824  0.00  0.00    +0.000 A 
ATOM     16  C   UNL     1       8.573  28.056  14.753  0.00  0.00    +0.000 A 
ATOM     17  C   UNL     1       9.841  28.561  16.726  0.00  0.00    +0.000 A 
ATOM     18  C   UNL     1       9.312  26.890  14.640  0.00  0.00    +0.000 A 
ATOM     19  C   UNL     1      10.523  27.371  16.527  0.00  0.00    +0.000 A 
ENDBRANCH   3  15
BRANCH   5  20
ATOM     20  C   UNL     1       8.139  33.747  16.671  0.00  0.00    +0.000 A 
ATOM     21  C   UNL     1       9.023  34.464  15.859  0.00  0.00    +0.000 A 
ATOM     22  C   UNL     1       7.580  34.380  17.785  0.00  0.00    +0.000 A 
ATOM     23  C   UNL     1       9.346  35.786  16.151  0.00  0.00    +0.000 A 
ATOM     24  C   UNL     1       7.897  35.702  18.086  0.00  0.00    +0.000 A 
ATOM     25  C   UNL     1       8.778  36.395  17.266  0.00  0.00    +0.000 A 
BRANCH  25  26
ATOM     26  O   UNL     1       9.075  37.690  17.579  0.00  0.00    +0.000 OA
ATOM     27  H   UNL     1       9.965  37.889  17.239  0.00  0.00    +0.000 HD
ENDBRANCH  25  26
ENDBRANCH   5  20
TORSDOF 4
ENDMDL
MODEL 7
REMARK VINA RESULT:      -7.7     15.149     17.224
REMARK  Name = SB_202190.pdbqt.pdb
REMARK  4 active torsions:
REMARK  status: ('A' for Active; 'I' for Inactive)
REMARK    1  A    between atoms: C_4  and  C_7
REMARK    2  A    between atoms: C_5  and  C_19
REMARK    3  A    between atoms: C_6  and  C_8
REMARK    4  A    between atoms: C_15  and  O_26
REMARK                            x       y       z     vdW  Elec       q    Type
REMARK                         _______ _______ _______ _____ _____    ______ ____
ROOT
ATOM      1  N   UNL     1      -4.369  44.949  11.125  0.00  0.00    +0.000 N 
ATOM      2  N   UNL     1      -5.602  43.784   9.727  0.00  0.00    +0.000 NA
ATOM      3  C   UNL     1      -5.045  44.043  11.918  0.00  0.00    +0.000 A 
ATOM      4  C   UNL     1      -5.834  43.347  11.013  0.00  0.00    +0.000 A 
ATOM      5  C   UNL     1      -4.716  44.754   9.810  0.00  0.00    +0.000 A 
ATOM      6  H   UNL     1      -3.693  45.625  11.450  0.00  0.00    +0.000 HD
ENDROOT
BRANCH   4   7
ATOM      7  C   UNL     1      -6.802  42.307  11.287  0.00  0.00    +0.000 A 
ATOM      8  C   UNL     1      -7.931  42.553  12.071  0.00  0.00    +0.000 A 
ATOM      9  C   UNL     1      -8.876  41.553  12.287  0.00  0.00    +0.000 A 
ATOM     10  C   UNL     1      -8.692  40.307  11.699  0.00  0.00    +0.000 A 
ATOM     11  F   UNL     1      -9.596  39.341  11.908  0.00  0.00    +0.000 F 
ATOM     12  C   UNL     1      -7.585  40.046  10.900  0.00  0.00    +0.000 A 
ATOM     13  C   UNL     1      -6.645  41.053  10.690  0.00  0.00    +0.000 A 
ENDBRANCH   4   7
BRANCH   3  15
ATOM     14  N   UNL     1      -4.439  43.745  16.131  0.00  0.00    +0.000 NA
ATOM     15  C   UNL     1      -4.822  43.952  13.358  0.00  0.00    +0.000 A 
ATOM     16  C   UNL     1      -5.266  44.959  14.213  0.00  0.00    +0.000 A 
ATOM     17  C   UNL     1      -4.194  42.834  13.907  0.00  0.00    +0.000 A 
ATOM     18  C   UNL     1      -5.050  44.812  15.574  0.00  0.00    +0.000 A 
ATOM     19  C   UNL     1      -4.024  42.783  15.281  0.00  0.00    +0.000 A 
ENDBRANCH   3  15
BRANCH   5  20
ATOM     20  C   UNL     1      -4.169  45.522   8.697  0.00  0.00    +0.000 A 
ATOM     21  C   UNL     1      -4.983  45.837   7.605  0.00  0.00    +0.000 A 
ATOM     22  C   UNL     1      -2.840  45.955   8.696  0.00  0.00    +0.000 A 
ATOM     23  C   UNL     1      -4.483  46.570   6.531  0.00  0.00    +0.000 A 
ATOM     24  C   UNL     1      -2.330  46.688   7.627  0.00  0.00    +0.000 A 
ATOM     25  C   UNL     1      -3.157  46.990   6.553  0.00  0.00    +0.000 A 
BRANCH  25  26
ATOM     26  O   UNL     1      -2.637  47.709   5.516  0.00  0.00    +0.000 OA
ATOM     27  H   UNL     1      -3.106  48.560   5.471  0.00  0.00    +0.000 HD
ENDBRANCH  25  26
ENDBRANCH   5  20
TORSDOF 4
ENDMDL
MODEL 8
REMARK VINA RESULT:      -7.6      3.022      5.695
REMARK  Name = SB_202190.pdbqt.pdb
REMARK  4 active torsions:
REMARK  status: ('A' for Active; 'I' for Inactive)
REMARK    1  A    between atoms: C_4  and  C_7
REMARK    2  A    between atoms: C_5  and  C_19
REMARK    3  A    between atoms: C_6  and  C_8
REMARK    4  A    between atoms: C_15  and  O_26
REMARK                            x       y       z     vdW  Elec       q    Type
REMARK                         _______ _______ _______ _____ _____    ______ ____
ROOT
ATOM      1  N   UNL     1       9.817  31.705  16.107  0.00  0.00    +0.000 N 
ATOM      2  N   UNL     1       7.795  32.280  15.464  0.00  0.00    +0.000 NA
ATOM      3  C   UNL     1       9.120  30.516  16.027  0.00  0.00    +0.000 A 
ATOM      4  C   UNL     1       7.845  30.916  15.650  0.00  0.00    +0.000 A 
ATOM      5  C   UNL     1       8.994  32.744  15.746  0.00  0.00    +0.000 A 
ATOM      6  H   UNL     1      10.792  31.799  16.353  0.00  0.00    +0.000 HD
ENDROOT
BRANCH   4   7
ATOM      7  C   UNL     1       6.668  30.092  15.468  0.00  0.00    +0.000 A 
ATOM      8  C   UNL     1       6.709  28.925  14.702  0.00  0.00    +0.000 A 
ATOM      9  C   UNL     1       5.580  28.120  14.576  0.00  0.00    +0.000 A 
ATOM     10  C   UNL     1       4.411  28.482  15.237  0.00  0.00    +0.000 A 
ATOM     11  F   UNL     1       3.321  27.712  15.114  0.00  0.00    +0.000 F 
ATOM     12  C   UNL     1       4.354  29.629  16.019  0.00  0.00    +0.000 A 
ATOM     13  C   UNL     1       5.489  30.428  16.138  0.00  0.00    +0.000 A 
ENDBRANCH   4   7
BRANCH   3  15
ATOM     14  N   UNL     1      10.920  26.717  16.754  0.00  0.00    +0.000 NA
ATOM     15  C   UNL     1       9.753  29.224  16.274  0.00  0.00    +0.000 A 
ATOM     16  C   UNL     1      10.178  28.872  17.554  0.00  0.00    +0.000 A 
ATOM     17  C   UNL     1       9.907  28.302  15.239  0.00  0.00    +0.000 A 
ATOM     18  C   UNL     1      10.751  27.625  17.739  0.00  0.00    +0.000 A 
ATOM     19  C   UNL     1      10.495  27.081  15.527  0.00  0.00    +0.000 A 
ENDBRANCH   3  15
BRANCH   5  20
ATOM     20  C   UNL     1       9.414  34.140  15.694  0.00  0.00    +0.000 A 
ATOM     21  C   UNL     1       8.553  35.141  16.152  0.00  0.00    +0.000 A 
ATOM     22  C   UNL     1      10.668  34.504  15.193  0.00  0.00    +0.000 A 
ATOM     23  C   UNL     1       8.933  36.481  16.112  0.00  0.00    +0.000 A 
ATOM     24  C   UNL     1      11.057  35.840  15.148  0.00  0.00    +0.000 A 
ATOM     25  C   UNL     1      10.185  36.819  15.609  0.00  0.00    +0.000 A 
BRANCH  25  26
ATOM     26  O   UNL     1      10.586  38.122  15.557  0.00  0.00    +0.000 OA
ATOM     27  H   UNL     1       9.793  38.681  15.476  0.00  0.00    +0.000 HD
ENDBRANCH  25  26
ENDBRANCH   5  20
TORSDOF 4
ENDMDL
MODEL 9
REMARK VINA RESULT:      -7.5      3.242      4.649
REMARK  Name = SB_202190.pdbqt.pdb
REMARK  4 active torsions:
REMARK  status: ('A' for Active; 'I' for Inactive)
REMARK    1  A    between atoms: C_4  and  C_7
REMARK    2  A    between atoms: C_5  and  C_19
REMARK    3  A    between atoms: C_6  and  C_8
REMARK    4  A    between atoms: C_15  and  O_26
REMARK                            x       y       z     vdW  Elec       q    Type
REMARK                         _______ _______ _______ _____ _____    ______ ____
ROOT
ATOM      1  N   UNL     1       6.825  31.943  16.040  0.00  0.00    +0.000 N 
ATOM      2  N   UNL     1       8.944  31.485  16.409  0.00  0.00    +0.000 NA
ATOM      3  C   UNL     1       6.931  30.579  15.852  0.00  0.00    +0.000 A 
ATOM      4  C   UNL     1       8.280  30.329  16.062  0.00  0.00    +0.000 A 
ATOM      5  C   UNL     1       8.052  32.454  16.389  0.00  0.00    +0.000 A 
ATOM      6  H   UNL     1       5.974  32.482  15.972  0.00  0.00    +0.000 HD
ENDROOT
BRANCH   4   7
ATOM      7  C   UNL     1       8.983  29.069  15.940  0.00  0.00    +0.000 A 
ATOM      8  C   UNL     1       8.804  28.241  14.831  0.00  0.00    +0.000 A 
ATOM      9  C   UNL     1       9.524  27.054  14.708  0.00  0.00    +0.000 A 
ATOM     10  C   UNL     1      10.438  26.710  15.697  0.00  0.00    +0.000 A 
ATOM     11  F   UNL     1      11.128  25.567  15.585  0.00  0.00    +0.000 F 
ATOM     12  C   UNL     1      10.645  27.529  16.801  0.00  0.00    +0.000 A 
ATOM     13  C   UNL     1       9.920  28.713  16.914  0.00  0.00    +0.000 A 
ENDBRANCH   4   7
BRANCH   3  15
ATOM     14  N   UNL     1       3.529  28.176  14.931  0.00  0.00    +0.000 NA
ATOM     15  C   UNL     1       5.772  29.744  15.550  0.00  0.00    +0.000 A 
ATOM     16  C   UNL     1       4.612  29.830  16.317  0.00  0.00    +0.000 A 
ATOM     17  C   UNL     1       5.794  28.872  14.462  0.00  0.00    +0.000 A 
ATOM     18  C   UNL     1       3.532  29.033  15.973  0.00  0.00    +0.000 A 
ATOM     19  C   UNL     1       4.662  28.115  14.202  0.00  0.00    +0.000 A 
ENDBRANCH   3  15
BRANCH   5  20
ATOM     20  C   UNL     1       8.298  33.860  16.687  0.00  0.00    +0.000 A 
ATOM     21  C   UNL     1       9.144  34.607  15.862  0.00  0.00    +0.000 A 
ATOM     22  C   UNL     1       7.703  34.485  17.787  0.00  0.00    +0.000 A 
ATOM     23  C   UNL     1       9.393  35.951  16.126  0.00  0.00    +0.000 A 
ATOM     24  C   UNL     1       7.947  35.829  18.061  0.00  0.00    +0.000 A 
ATOM     25  C   UNL     1       8.790  36.551  17.226  0.00  0.00    +0.000 A 
BRANCH  25  26
ATOM     26  O   UNL     1       9.015  37.867  17.512  0.00  0.00    +0.000 OA
ATOM     27  H   UNL     1       8.950  38.373  16.684  0.00  0.00    +0.000 HD
ENDBRANCH  25  26
ENDBRANCH   5  20
TORSDOF 4
ENDMDL
