MODEL 1
REMARK VINA RESULT:      -9.0      0.000      0.000
REMARK  Name = Simvastatin.pdbqt.pdb
REMARK  7 active torsions:
REMARK  status: ('A' for Active; 'I' for Inactive)
REMARK    1  A    between atoms: C_2  and  C_13
REMARK    2  A    between atoms: C_3  and  O_24
REMARK    3  A    between atoms: C_14  and  C_15
REMARK    4  A    between atoms: C_20  and  O_22
REMARK    5  A    between atoms: O_24  and  C_25
REMARK    6  A    between atoms: C_25  and  C_27
REMARK    7  A    between atoms: C_27  and  C_30
REMARK                            x       y       z     vdW  Elec       q    Type
REMARK                         _______ _______ _______ _____ _____    ______ ____
ROOT
ATOM      1  C   UNL     1       4.264  30.084  15.641  0.00  0.00    +0.000 A 
ATOM      2  C   UNL     1       5.692  30.507  15.368  0.00  0.00    +0.000 A 
ATOM      3  C   UNL     1       3.146  31.004  16.055  0.00  0.00    +0.000 A 
ATOM      4  C   UNL     1       6.624  29.568  14.687  0.00  0.00    +0.000 A 
ATOM      5  C   UNL     1       3.920  28.600  15.394  0.00  0.00    +0.000 A 
ATOM      6  C   UNL     1       1.889  30.312  16.131  0.00  0.00    +0.000 A 
ATOM      7  C   UNL     1       1.477  28.968  15.863  0.00  0.00    +0.000 A 
ATOM      8  C   UNL     1       2.667  28.269  15.496  0.00  0.00    +0.000 A 
ATOM      9  C   UNL     1       6.033  28.293  14.457  0.00  0.00    +0.000 A 
ATOM     10  C   UNL     1       4.941  27.881  14.734  0.00  0.00    +0.000 A 
ATOM     11  C   UNL     1       8.050  29.838  14.317  0.00  0.00    +0.000 C 
ATOM     12  C   UNL     1       0.196  28.712  15.136  0.00  0.00    +0.000 C 
ENDROOT
BRANCH   2  13
ATOM     13  C   UNL     1       6.185  31.708  15.958  0.00  0.00    +0.000 C 
ATOM     14  C   UNL     1       6.760  32.959  16.632  0.00  0.00    +0.000 C 
BRANCH  14  15
ATOM     15  C   UNL     1       7.342  34.079  17.272  0.00  0.00    +0.000 C 
ATOM     16  O   UNL     1       7.478  34.039  18.708  0.00  0.00    +0.000 OA
ATOM     17  C   UNL     1       7.997  35.137  19.402  0.00  0.00    +0.000 C 
ATOM     18  O   UNL     1       8.141  35.173  20.615  0.00  0.00    +0.000 OA
ATOM     19  C   UNL     1       8.350  36.251  18.559  0.00  0.00    +0.000 C 
ATOM     20  C   UNL     1       8.280  36.475  17.167  0.00  0.00    +0.000 C 
ATOM     21  C   UNL     1       7.745  35.281  16.633  0.00  0.00    +0.000 C 
BRANCH  20  22
ATOM     22  O   UNL     1       7.996  37.708  16.658  0.00  0.00    +0.000 OA
ATOM     23  H   UNL     1       8.524  38.415  17.076  0.00  0.00    +0.000 HD
ENDBRANCH  20  22
ENDBRANCH  14  15
ENDBRANCH   2  13
BRANCH   3  24
ATOM     24  O   UNL     1       3.169  32.269  15.461  0.00  0.00    +0.000 OA
BRANCH  24  25
ATOM     25  C   UNL     1       2.186  33.105  15.959  0.00  0.00    +0.000 C 
ATOM     26  O   UNL     1       2.099  33.421  17.148  0.00  0.00    +0.000 OA
BRANCH  25  27
ATOM     27  C   UNL     1       1.209  33.562  14.821  0.00  0.00    +0.000 C 
ATOM     28  C   UNL     1       0.328  34.761  15.339  0.00  0.00    +0.000 C 
ATOM     29  C   UNL     1       0.251  32.380  14.387  0.00  0.00    +0.000 C 
BRANCH  27  30
ATOM     30  C   UNL     1       2.047  33.974  13.659  0.00  0.00    +0.000 C 
ATOM     31  C   UNL     1       2.906  34.365  12.421  0.00  0.00    +0.000 C 
ENDBRANCH  27  30
ENDBRANCH  25  27
ENDBRANCH  24  25
ENDBRANCH   3  24
TORSDOF 7
ENDMDL
MODEL 2
REMARK VINA RESULT:      -8.9      0.719      2.012
REMARK  Name = Simvastatin.pdbqt.pdb
REMARK  7 active torsions:
REMARK  status: ('A' for Active; 'I' for Inactive)
REMARK    1  A    between atoms: C_2  and  C_13
REMARK    2  A    between atoms: C_3  and  O_24
REMARK    3  A    between atoms: C_14  and  C_15
REMARK    4  A    between atoms: C_20  and  O_22
REMARK    5  A    between atoms: O_24  and  C_25
REMARK    6  A    between atoms: C_25  and  C_27
REMARK    7  A    between atoms: C_27  and  C_30
REMARK                            x       y       z     vdW  Elec       q    Type
REMARK                         _______ _______ _______ _____ _____    ______ ____
ROOT
ATOM      1  C   UNL     1       4.412  30.201  15.672  0.00  0.00    +0.000 A 
ATOM      2  C   UNL     1       5.838  30.651  15.438  0.00  0.00    +0.000 A 
ATOM      3  C   UNL     1       3.258  31.104  16.017  0.00  0.00    +0.000 A 
ATOM      4  C   UNL     1       6.817  29.716  14.820  0.00  0.00    +0.000 A 
ATOM      5  C   UNL     1       4.112  28.701  15.457  0.00  0.00    +0.000 A 
ATOM      6  C   UNL     1       2.015  30.383  16.068  0.00  0.00    +0.000 A 
ATOM      7  C   UNL     1       1.646  29.022  15.827  0.00  0.00    +0.000 A 
ATOM      8  C   UNL     1       2.865  28.342  15.524  0.00  0.00    +0.000 A 
ATOM      9  C   UNL     1       6.265  28.420  14.607  0.00  0.00    +0.000 A 
ATOM     10  C   UNL     1       5.174  27.989  14.858  0.00  0.00    +0.000 A 
ATOM     11  C   UNL     1       8.249  30.010  14.494  0.00  0.00    +0.000 C 
ATOM     12  C   UNL     1       0.399  28.713  15.062  0.00  0.00    +0.000 C 
ENDROOT
BRANCH   2  13
ATOM     13  C   UNL     1       6.280  31.881  16.008  0.00  0.00    +0.000 C 
ATOM     14  C   UNL     1       6.820  33.172  16.633  0.00  0.00    +0.000 C 
BRANCH  14  15
ATOM     15  C   UNL     1       7.378  34.343  17.201  0.00  0.00    +0.000 C 
ATOM     16  O   UNL     1       7.631  35.461  16.325  0.00  0.00    +0.000 OA
ATOM     17  C   UNL     1       8.231  36.625  16.817  0.00  0.00    +0.000 C 
ATOM     18  O   UNL     1       8.475  37.609  16.135  0.00  0.00    +0.000 OA
ATOM     19  C   UNL     1       8.554  36.571  18.221  0.00  0.00    +0.000 C 
ATOM     20  C   UNL     1       8.395  35.582  19.215  0.00  0.00    +0.000 C 
ATOM     21  C   UNL     1       7.781  34.495  18.554  0.00  0.00    +0.000 C 
BRANCH  20  22
ATOM     22  O   UNL     1       9.313  35.422  20.212  0.00  0.00    +0.000 OA
ATOM     23  H   UNL     1       9.134  35.997  20.981  0.00  0.00    +0.000 HD
ENDBRANCH  20  22
ENDBRANCH  14  15
ENDBRANCH   2  13
BRANCH   3  24
ATOM     24  O   UNL     1       3.272  32.352  15.386  0.00  0.00    +0.000 OA
BRANCH  24  25
ATOM     25  C   UNL     1       2.263  33.184  15.836  0.00  0.00    +0.000 C 
ATOM     26  O   UNL     1       2.088  33.460  17.024  0.00  0.00    +0.000 OA
BRANCH  25  27
ATOM     27  C   UNL     1       1.383  33.693  14.642  0.00  0.00    +0.000 C 
ATOM     28  C   UNL     1       2.242  33.695  13.322  0.00  0.00    +0.000 C 
ATOM     29  C   UNL     1       0.861  35.162  14.908  0.00  0.00    +0.000 C 
BRANCH  27  30
ATOM     30  C   UNL     1       0.221  32.767  14.524  0.00  0.00    +0.000 C 
ATOM     31  C   UNL     1      -1.023  31.838  14.409  0.00  0.00    +0.000 C 
ENDBRANCH  27  30
ENDBRANCH  25  27
ENDBRANCH  24  25
ENDBRANCH   3  24
TORSDOF 7
ENDMDL
MODEL 3
REMARK VINA RESULT:      -8.9      2.667      5.524
REMARK  Name = Simvastatin.pdbqt.pdb
REMARK  7 active torsions:
REMARK  status: ('A' for Active; 'I' for Inactive)
REMARK    1  A    between atoms: C_2  and  C_13
REMARK    2  A    between atoms: C_3  and  O_24
REMARK    3  A    between atoms: C_14  and  C_15
REMARK    4  A    between atoms: C_20  and  O_22
REMARK    5  A    between atoms: O_24  and  C_25
REMARK    6  A    between atoms: C_25  and  C_27
REMARK    7  A    between atoms: C_27  and  C_30
REMARK                            x       y       z     vdW  Elec       q    Type
REMARK                         _______ _______ _______ _____ _____    ______ ____
ROOT
ATOM      1  C   UNL     1       3.002  30.612  15.780  0.00  0.00    +0.000 A 
ATOM      2  C   UNL     1       3.690  29.384  15.223  0.00  0.00    +0.000 A 
ATOM      3  C   UNL     1       3.670  31.931  16.066  0.00  0.00    +0.000 A 
ATOM      4  C   UNL     1       2.876  28.249  14.711  0.00  0.00    +0.000 A 
ATOM      5  C   UNL     1       1.476  30.518  15.992  0.00  0.00    +0.000 A 
ATOM      6  C   UNL     1       2.722  32.927  16.487  0.00  0.00    +0.000 A 
ATOM      7  C   UNL     1       1.301  32.938  16.649  0.00  0.00    +0.000 A 
ATOM      8  C   UNL     1       0.868  31.614  16.338  0.00  0.00    +0.000 A 
ATOM      9  C   UNL     1       1.480  28.451  14.914  0.00  0.00    +0.000 A 
ATOM     10  C   UNL     1       0.894  29.361  15.429  0.00  0.00    +0.000 A 
ATOM     11  C   UNL     1       3.394  26.981  14.103  0.00  0.00    +0.000 C 
ATOM     12  C   UNL     1       0.508  34.119  16.189  0.00  0.00    +0.000 C 
ENDROOT
BRANCH   2  13
ATOM     13  C   UNL     1       5.098  29.239  15.395  0.00  0.00    +0.000 C 
ATOM     14  C   UNL     1       6.606  29.013  15.561  0.00  0.00    +0.000 C 
BRANCH  14  15
ATOM     15  C   UNL     1       7.992  28.752  15.676  0.00  0.00    +0.000 C 
ATOM     16  O   UNL     1       8.705  29.370  16.768  0.00  0.00    +0.000 OA
ATOM     17  C   UNL     1      10.085  29.193  16.903  0.00  0.00    +0.000 C 
ATOM     18  O   UNL     1      10.753  29.685  17.800  0.00  0.00    +0.000 OA
ATOM     19  C   UNL     1      10.676  28.373  15.875  0.00  0.00    +0.000 C 
ATOM     20  C   UNL     1      10.153  27.706  14.747  0.00  0.00    +0.000 C 
ATOM     21  C   UNL     1       8.768  27.985  14.768  0.00  0.00    +0.000 C 
BRANCH  20  22
ATOM     22  O   UNL     1      10.870  27.592  13.592  0.00  0.00    +0.000 OA
ATOM     23  H   UNL     1      10.403  27.070  12.912  0.00  0.00    +0.000 HD
ENDBRANCH  20  22
ENDBRANCH  14  15
ENDBRANCH   2  13
BRANCH   3  24
ATOM     24  O   UNL     1       4.660  32.305  15.152  0.00  0.00    +0.000 OA
BRANCH  24  25
ATOM     25  C   UNL     1       5.144  33.579  15.389  0.00  0.00    +0.000 C 
ATOM     26  O   UNL     1       4.584  34.604  14.995  0.00  0.00    +0.000 OA
BRANCH  25  27
ATOM     27  C   UNL     1       6.489  33.527  16.193  0.00  0.00    +0.000 C 
ATOM     28  C   UNL     1       7.396  32.374  15.619  0.00  0.00    +0.000 C 
ATOM     29  C   UNL     1       6.223  33.246  17.726  0.00  0.00    +0.000 C 
BRANCH  27  30
ATOM     30  C   UNL     1       7.147  34.855  16.038  0.00  0.00    +0.000 C 
ATOM     31  C   UNL     1       7.865  36.231  15.914  0.00  0.00    +0.000 C 
ENDBRANCH  27  30
ENDBRANCH  25  27
ENDBRANCH  24  25
ENDBRANCH   3  24
TORSDOF 7
ENDMDL
MODEL 4
REMARK VINA RESULT:      -8.1      3.660      7.014
REMARK  Name = Simvastatin.pdbqt.pdb
REMARK  7 active torsions:
REMARK  status: ('A' for Active; 'I' for Inactive)
REMARK    1  A    between atoms: C_2  and  C_13
REMARK    2  A    between atoms: C_3  and  O_24
REMARK    3  A    between atoms: C_14  and  C_15
REMARK    4  A    between atoms: C_20  and  O_22
REMARK    5  A    between atoms: O_24  and  C_25
REMARK    6  A    between atoms: C_25  and  C_27
REMARK    7  A    between atoms: C_27  and  C_30
REMARK                            x       y       z     vdW  Elec       q    Type
REMARK                         _______ _______ _______ _____ _____    ______ ____
ROOT
ATOM      1  C   UNL     1       8.644  29.521  15.465  0.00  0.00    +0.000 A 
ATOM      2  C   UNL     1       7.606  30.553  15.853  0.00  0.00    +0.000 A 
ATOM      3  C   UNL     1      10.127  29.648  15.691  0.00  0.00    +0.000 A 
ATOM      4  C   UNL     1       6.164  30.190  15.846  0.00  0.00    +0.000 A 
ATOM      5  C   UNL     1       8.119  28.202  14.860  0.00  0.00    +0.000 A 
ATOM      6  C   UNL     1      10.828  28.453  15.307  0.00  0.00    +0.000 A 
ATOM      7  C   UNL     1      10.415  27.179  14.801  0.00  0.00    +0.000 A 
ATOM      8  C   UNL     1       8.997  27.266  14.654  0.00  0.00    +0.000 A 
ATOM      9  C   UNL     1       5.941  28.871  15.357  0.00  0.00    +0.000 A 
ATOM     10  C   UNL     1       6.718  28.051  14.953  0.00  0.00    +0.000 A 
ATOM     11  C   UNL     1       5.018  31.076  16.231  0.00  0.00    +0.000 C 
ATOM     12  C   UNL     1      11.045  25.930  15.326  0.00  0.00    +0.000 C 
ENDROOT
BRANCH   2  13
ATOM     13  C   UNL     1       8.005  31.913  16.009  0.00  0.00    +0.000 C 
ATOM     14  C   UNL     1       8.437  33.381  16.104  0.00  0.00    +0.000 C 
BRANCH  14  15
ATOM     15  C   UNL     1       8.819  34.744  16.131  0.00  0.00    +0.000 C 
ATOM     16  O   UNL     1       9.614  35.242  15.034  0.00  0.00    +0.000 OA
ATOM     17  C   UNL     1      10.066  36.565  15.030  0.00  0.00    +0.000 C 
ATOM     18  O   UNL     1      10.742  37.054  14.138  0.00  0.00    +0.000 OA
ATOM     19  C   UNL     1       9.671  37.324  16.191  0.00  0.00    +0.000 C 
ATOM     20  C   UNL     1       8.920  37.012  17.344  0.00  0.00    +0.000 C 
ATOM     21  C   UNL     1       8.547  35.659  17.181  0.00  0.00    +0.000 C 
BRANCH  20  22
ATOM     22  O   UNL     1       9.221  37.558  18.557  0.00  0.00    +0.000 OA
ATOM     23  H   UNL     1       8.430  37.684  19.117  0.00  0.00    +0.000 HD
ENDBRANCH  20  22
ENDBRANCH  14  15
ENDBRANCH   2  13
BRANCH   3  24
ATOM     24  O   UNL     1      10.493  30.272  16.888  0.00  0.00    +0.000 OA
BRANCH  24  25
ATOM     25  C   UNL     1      11.357  31.333  16.688  0.00  0.00    +0.000 C 
ATOM     26  O   UNL     1      11.830  31.628  15.589  0.00  0.00    +0.000 OA
BRANCH  25  27
ATOM     27  C   UNL     1      11.658  32.072  18.038  0.00  0.00    +0.000 C 
ATOM     28  C   UNL     1      12.852  31.354  18.772  0.00  0.00    +0.000 C 
ATOM     29  C   UNL     1      10.394  32.052  18.990  0.00  0.00    +0.000 C 
BRANCH  27  30
ATOM     30  C   UNL     1      12.004  33.482  17.702  0.00  0.00    +0.000 C 
ATOM     31  C   UNL     1      12.368  34.965  17.399  0.00  0.00    +0.000 C 
ENDBRANCH  27  30
ENDBRANCH  25  27
ENDBRANCH  24  25
ENDBRANCH   3  24
TORSDOF 7
ENDMDL
MODEL 5
REMARK VINA RESULT:      -8.0      3.940      6.185
REMARK  Name = Simvastatin.pdbqt.pdb
REMARK  7 active torsions:
REMARK  status: ('A' for Active; 'I' for Inactive)
REMARK    1  A    between atoms: C_2  and  C_13
REMARK    2  A    between atoms: C_3  and  O_24
REMARK    3  A    between atoms: C_14  and  C_15
REMARK    4  A    between atoms: C_20  and  O_22
REMARK    5  A    between atoms: O_24  and  C_25
REMARK    6  A    between atoms: C_25  and  C_27
REMARK    7  A    between atoms: C_27  and  C_30
REMARK                            x       y       z     vdW  Elec       q    Type
REMARK                         _______ _______ _______ _____ _____    ______ ____
ROOT
ATOM      1  C   UNL     1       6.679  30.803  15.886  0.00  0.00    +0.000 A 
ATOM      2  C   UNL     1       7.782  29.785  15.687  0.00  0.00    +0.000 A 
ATOM      3  C   UNL     1       6.885  32.258  16.217  0.00  0.00    +0.000 A 
ATOM      4  C   UNL     1       7.467  28.464  15.079  0.00  0.00    +0.000 A 
ATOM      5  C   UNL     1       5.233  30.317  15.649  0.00  0.00    +0.000 A 
ATOM      6  C   UNL     1       5.642  32.980  16.235  0.00  0.00    +0.000 A 
ATOM      7  C   UNL     1       4.282  32.622  15.970  0.00  0.00    +0.000 A 
ATOM      8  C   UNL     1       4.302  31.223  15.686  0.00  0.00    +0.000 A 
ATOM      9  C   UNL     1       6.073  28.297  14.841  0.00  0.00    +0.000 A 
ATOM     10  C   UNL     1       5.153  29.034  15.064  0.00  0.00    +0.000 A 
ATOM     11  C   UNL     1       8.439  27.362  14.786  0.00  0.00    +0.000 C 
ATOM     12  C   UNL     1       3.411  33.542  15.177  0.00  0.00    +0.000 C 
ENDROOT
BRANCH   2  13
ATOM     13  C   UNL     1       9.057  30.018  16.279  0.00  0.00    +0.000 C 
ATOM     14  C   UNL     1      10.432  30.199  16.935  0.00  0.00    +0.000 C 
BRANCH  14  15
ATOM     15  C   UNL     1      11.709  30.302  17.536  0.00  0.00    +0.000 C 
ATOM     16  O   UNL     1      11.781  30.250  18.976  0.00  0.00    +0.000 OA
ATOM     17  C   UNL     1      13.009  30.400  19.630  0.00  0.00    +0.000 C 
ATOM     18  O   UNL     1      13.146  30.367  20.843  0.00  0.00    +0.000 OA
ATOM     19  C   UNL     1      14.125  30.608  18.742  0.00  0.00    +0.000 C 
ATOM     20  C   UNL     1      14.245  30.698  17.339  0.00  0.00    +0.000 C 
ATOM     21  C   UNL     1      12.932  30.524  16.849  0.00  0.00    +0.000 C 
BRANCH  20  22
ATOM     22  O   UNL     1      15.150  31.535  16.755  0.00  0.00    +0.000 OA
ATOM     23  H   UNL     1      16.016  31.108  16.611  0.00  0.00    +0.000 HD
ENDBRANCH  20  22
ENDBRANCH  14  15
ENDBRANCH   2  13
BRANCH   3  24
ATOM     24  O   UNL     1       7.988  32.856  15.600  0.00  0.00    +0.000 OA
BRANCH  24  25
ATOM     25  C   UNL     1       8.798  33.526  16.498  0.00  0.00    +0.000 C 
ATOM     26  O   UNL     1       8.504  33.697  17.683  0.00  0.00    +0.000 OA
BRANCH  25  27
ATOM     27  C   UNL     1      10.103  34.043  15.799  0.00  0.00    +0.000 C 
ATOM     28  C   UNL     1      10.382  33.180  14.511  0.00  0.00    +0.000 C 
ATOM     29  C   UNL     1      11.349  33.924  16.767  0.00  0.00    +0.000 C 
BRANCH  27  30
ATOM     30  C   UNL     1       9.880  35.474  15.450  0.00  0.00    +0.000 C 
ATOM     31  C   UNL     1       9.598  36.960  15.081  0.00  0.00    +0.000 C 
ENDBRANCH  27  30
ENDBRANCH  25  27
ENDBRANCH  24  25
ENDBRANCH   3  24
TORSDOF 7
ENDMDL
MODEL 6
REMARK VINA RESULT:      -7.6      3.008      6.365
REMARK  Name = Simvastatin.pdbqt.pdb
REMARK  7 active torsions:
REMARK  status: ('A' for Active; 'I' for Inactive)
REMARK    1  A    between atoms: C_2  and  C_13
REMARK    2  A    between atoms: C_3  and  O_24
REMARK    3  A    between atoms: C_14  and  C_15
REMARK    4  A    between atoms: C_20  and  O_22
REMARK    5  A    between atoms: O_24  and  C_25
REMARK    6  A    between atoms: C_25  and  C_27
REMARK    7  A    between atoms: C_27  and  C_30
REMARK                            x       y       z     vdW  Elec       q    Type
REMARK                         _______ _______ _______ _____ _____    ______ ____
ROOT
ATOM      1  C   UNL     1       7.054  30.834  15.586  0.00  0.00    +0.000 A 
ATOM      2  C   UNL     1       6.187  31.998  16.017  0.00  0.00    +0.000 A 
ATOM      3  C   UNL     1       8.555  30.777  15.698  0.00  0.00    +0.000 A 
ATOM      4  C   UNL     1       4.714  31.820  16.128  0.00  0.00    +0.000 A 
ATOM      5  C   UNL     1       6.323  29.578  15.065  0.00  0.00    +0.000 A 
ATOM      6  C   UNL     1       9.069  29.494  15.302  0.00  0.00    +0.000 A 
ATOM      7  C   UNL     1       8.463  28.272  14.870  0.00  0.00    +0.000 A 
ATOM      8  C   UNL     1       7.060  28.534  14.826  0.00  0.00    +0.000 A 
ATOM      9  C   UNL     1       4.291  30.529  15.700  0.00  0.00    +0.000 A 
ATOM     10  C   UNL     1       4.926  29.608  15.267  0.00  0.00    +0.000 A 
ATOM     11  C   UNL     1       3.721  32.853  16.567  0.00  0.00    +0.000 C 
ATOM     12  C   UNL     1       8.971  26.965  15.388  0.00  0.00    +0.000 C 
ENDROOT
BRANCH   2  13
ATOM     13  C   UNL     1       6.762  33.299  16.098  0.00  0.00    +0.000 C 
ATOM     14  C   UNL     1       7.431  34.673  16.231  0.00  0.00    +0.000 C 
BRANCH  14  15
ATOM     15  C   UNL     1       8.102  35.911  16.375  0.00  0.00    +0.000 C 
ATOM     16  O   UNL     1       9.323  35.930  17.144  0.00  0.00    +0.000 OA
ATOM     17  C   UNL     1      10.002  37.132  17.366  0.00  0.00    +0.000 C 
ATOM     18  O   UNL     1      11.039  37.224  18.005  0.00  0.00    +0.000 OA
ATOM     19  C   UNL     1       9.367  38.283  16.775  0.00  0.00    +0.000 C 
ATOM     20  C   UNL     1       8.190  38.459  16.016  0.00  0.00    +0.000 C 
ATOM     21  C   UNL     1       7.643  37.163  15.886  0.00  0.00    +0.000 C 
BRANCH  20  22
ATOM     22  O   UNL     1       7.423  39.579  16.141  0.00  0.00    +0.000 OA
ATOM     23  H   UNL     1       6.537  39.387  16.504  0.00  0.00    +0.000 HD
ENDBRANCH  20  22
ENDBRANCH  14  15
ENDBRANCH   2  13
BRANCH   3  24
ATOM     24  O   UNL     1       9.087  31.377  16.843  0.00  0.00    +0.000 OA
BRANCH  24  25
ATOM     25  C   UNL     1      10.256  32.068  16.583  0.00  0.00    +0.000 C 
ATOM     26  O   UNL     1      10.383  32.866  15.652  0.00  0.00    +0.000 OA
BRANCH  25  27
ATOM     27  C   UNL     1      11.377  31.677  17.608  0.00  0.00    +0.000 C 
ATOM     28  C   UNL     1      11.622  32.878  18.597  0.00  0.00    +0.000 C 
ATOM     29  C   UNL     1      12.735  31.349  16.866  0.00  0.00    +0.000 C 
BRANCH  27  30
ATOM     30  C   UNL     1      10.906  30.467  18.339  0.00  0.00    +0.000 C 
ATOM     31  C   UNL     1      10.367  29.213  19.088  0.00  0.00    +0.000 C 
ENDBRANCH  27  30
ENDBRANCH  25  27
ENDBRANCH  24  25
ENDBRANCH   3  24
TORSDOF 7
ENDMDL
MODEL 7
REMARK VINA RESULT:      -7.2     11.371     15.552
REMARK  Name = Simvastatin.pdbqt.pdb
REMARK  7 active torsions:
REMARK  status: ('A' for Active; 'I' for Inactive)
REMARK    1  A    between atoms: C_2  and  C_13
REMARK    2  A    between atoms: C_3  and  O_24
REMARK    3  A    between atoms: C_14  and  C_15
REMARK    4  A    between atoms: C_20  and  O_22
REMARK    5  A    between atoms: O_24  and  C_25
REMARK    6  A    between atoms: C_25  and  C_27
REMARK    7  A    between atoms: C_27  and  C_30
REMARK                            x       y       z     vdW  Elec       q    Type
REMARK                         _______ _______ _______ _____ _____    ______ ____
ROOT
ATOM      1  C   UNL     1      -9.219  40.462  13.327  0.00  0.00    +0.000 A 
ATOM      2  C   UNL     1      -7.936  40.651  12.546  0.00  0.00    +0.000 A 
ATOM      3  C   UNL     1      -9.417  40.813  14.778  0.00  0.00    +0.000 A 
ATOM      4  C   UNL     1      -7.951  40.544  11.062  0.00  0.00    +0.000 A 
ATOM      5  C   UNL     1     -10.441  39.940  12.540  0.00  0.00    +0.000 A 
ATOM      6  C   UNL     1     -10.779  40.612  15.192  0.00  0.00    +0.000 A 
ATOM      7  C   UNL     1     -11.971  40.195  14.519  0.00  0.00    +0.000 A 
ATOM      8  C   UNL     1     -11.573  39.910  13.178  0.00  0.00    +0.000 A 
ATOM      9  C   UNL     1      -9.229  40.165  10.561  0.00  0.00    +0.000 A 
ATOM     10  C   UNL     1     -10.249  39.916  11.141  0.00  0.00    +0.000 A 
ATOM     11  C   UNL     1      -6.783  40.732  10.142  0.00  0.00    +0.000 C 
ATOM     12  C   UNL     1     -13.263  40.895  14.791  0.00  0.00    +0.000 C 
ENDROOT
BRANCH   2  13
ATOM     13  C   UNL     1      -6.698  40.711  13.250  0.00  0.00    +0.000 C 
ATOM     14  C   UNL     1      -5.342  40.721  13.967  0.00  0.00    +0.000 C 
BRANCH  14  15
ATOM     15  C   UNL     1      -4.066  40.696  14.579  0.00  0.00    +0.000 C 
ATOM     16  O   UNL     1      -4.012  40.647  16.020  0.00  0.00    +0.000 OA
ATOM     17  C   UNL     1      -2.781  40.675  16.684  0.00  0.00    +0.000 C 
ATOM     18  O   UNL     1      -2.658  40.636  17.899  0.00  0.00    +0.000 OA
ATOM     19  C   UNL     1      -1.641  40.763  15.805  0.00  0.00    +0.000 C 
ATOM     20  C   UNL     1      -1.502  40.831  14.403  0.00  0.00    +0.000 C 
ATOM     21  C   UNL     1      -2.822  40.788  13.902  0.00  0.00    +0.000 C 
BRANCH  20  22
ATOM     22  O   UNL     1      -0.511  41.567  13.822  0.00  0.00    +0.000 OA
ATOM     23  H   UNL     1      -0.059  41.085  13.103  0.00  0.00    +0.000 HD
ENDBRANCH  20  22
ENDBRANCH  14  15
ENDBRANCH   2  13
BRANCH   3  24
ATOM     24  O   UNL     1      -8.761  41.972  15.201  0.00  0.00    +0.000 OA
BRANCH  24  25
ATOM     25  C   UNL     1      -8.302  41.875  16.502  0.00  0.00    +0.000 C 
ATOM     26  O   UNL     1      -7.612  40.939  16.912  0.00  0.00    +0.000 OA
BRANCH  25  27
ATOM     27  C   UNL     1      -8.795  43.089  17.364  0.00  0.00    +0.000 C 
ATOM     28  C   UNL     1      -9.130  44.300  16.415  0.00  0.00    +0.000 C 
ATOM     29  C   UNL     1      -7.682  43.544  18.392  0.00  0.00    +0.000 C 
BRANCH  27  30
ATOM     30  C   UNL     1     -10.004  42.639  18.108  0.00  0.00    +0.000 C 
ATOM     31  C   UNL     1     -11.297  42.192  18.853  0.00  0.00    +0.000 C 
ENDBRANCH  27  30
ENDBRANCH  25  27
ENDBRANCH  24  25
ENDBRANCH   3  24
TORSDOF 7
ENDMDL
MODEL 8
REMARK VINA RESULT:      -7.2      2.936      9.181
REMARK  Name = Simvastatin.pdbqt.pdb
REMARK  7 active torsions:
REMARK  status: ('A' for Active; 'I' for Inactive)
REMARK    1  A    between atoms: C_2  and  C_13
REMARK    2  A    between atoms: C_3  and  O_24
REMARK    3  A    between atoms: C_14  and  C_15
REMARK    4  A    between atoms: C_20  and  O_22
REMARK    5  A    between atoms: O_24  and  C_25
REMARK    6  A    between atoms: C_25  and  C_27
REMARK    7  A    between atoms: C_27  and  C_30
REMARK                            x       y       z     vdW  Elec       q    Type
REMARK                         _______ _______ _______ _____ _____    ______ ____
ROOT
ATOM      1  C   UNL     1       9.268  36.100  17.971  0.00  0.00    +0.000 A 
ATOM      2  C   UNL     1       8.516  36.110  16.657  0.00  0.00    +0.000 A 
ATOM      3  C   UNL     1       9.529  34.882  18.817  0.00  0.00    +0.000 A 
ATOM      4  C   UNL     1       8.577  37.309  15.779  0.00  0.00    +0.000 A 
ATOM      5  C   UNL     1       9.881  37.441  18.431  0.00  0.00    +0.000 A 
ATOM      6  C   UNL     1      10.362  35.190  19.948  0.00  0.00    +0.000 A 
ATOM      7  C   UNL     1      11.014  36.378  20.407  0.00  0.00    +0.000 A 
ATOM      8  C   UNL     1      10.640  37.402  19.485  0.00  0.00    +0.000 A 
ATOM      9  C   UNL     1       9.304  38.379  16.376  0.00  0.00    +0.000 A 
ATOM     10  C   UNL     1       9.839  38.453  17.446  0.00  0.00    +0.000 A 
ATOM     11  C   UNL     1       7.921  37.470  14.441  0.00  0.00    +0.000 C 
ATOM     12  C   UNL     1      12.413  36.306  20.929  0.00  0.00    +0.000 C 
ENDROOT
BRANCH   2  13
ATOM     13  C   UNL     1       7.588  35.063  16.382  0.00  0.00    +0.000 C 
ATOM     14  C   UNL     1       6.554  33.955  16.146  0.00  0.00    +0.000 C 
BRANCH  14  15
ATOM     15  C   UNL     1       5.561  32.962  15.971  0.00  0.00    +0.000 C 
ATOM     16  O   UNL     1       5.979  31.581  15.989  0.00  0.00    +0.000 OA
ATOM     17  C   UNL     1       5.053  30.557  15.768  0.00  0.00    +0.000 C 
ATOM     18  O   UNL     1       5.334  29.368  15.769  0.00  0.00    +0.000 OA
ATOM     19  C   UNL     1       3.710  31.022  15.526  0.00  0.00    +0.000 C 
ATOM     20  C   UNL     1       3.125  32.305  15.460  0.00  0.00    +0.000 C 
ATOM     21  C   UNL     1       4.187  33.203  15.706  0.00  0.00    +0.000 C 
BRANCH  20  22
ATOM     22  O   UNL     1       2.107  32.579  14.594  0.00  0.00    +0.000 OA
ATOM     23  H   UNL     1       2.218  32.131  13.733  0.00  0.00    +0.000 HD
ENDBRANCH  20  22
ENDBRANCH  14  15
ENDBRANCH   2  13
BRANCH   3  24
ATOM     24  O   UNL     1       9.792  33.710  18.103  0.00  0.00    +0.000 OA
BRANCH  24  25
ATOM     25  C   UNL     1      11.070  33.230  18.325  0.00  0.00    +0.000 C 
ATOM     26  O   UNL     1      11.419  32.682  19.373  0.00  0.00    +0.000 OA
BRANCH  25  27
ATOM     27  C   UNL     1      11.994  33.501  17.087  0.00  0.00    +0.000 C 
ATOM     28  C   UNL     1      13.142  32.423  17.047  0.00  0.00    +0.000 C 
ATOM     29  C   UNL     1      12.651  34.937  17.173  0.00  0.00    +0.000 C 
BRANCH  27  30
ATOM     30  C   UNL     1      11.137  33.419  15.870  0.00  0.00    +0.000 C 
ATOM     31  C   UNL     1      10.274  33.301  14.580  0.00  0.00    +0.000 C 
ENDBRANCH  27  30
ENDBRANCH  25  27
ENDBRANCH  24  25
ENDBRANCH   3  24
TORSDOF 7
ENDMDL
MODEL 9
REMARK VINA RESULT:      -7.0     28.348     32.040
REMARK  Name = Simvastatin.pdbqt.pdb
REMARK  7 active torsions:
REMARK  status: ('A' for Active; 'I' for Inactive)
REMARK    1  A    between atoms: C_2  and  C_13
REMARK    2  A    between atoms: C_3  and  O_24
REMARK    3  A    between atoms: C_14  and  C_15
REMARK    4  A    between atoms: C_20  and  O_22
REMARK    5  A    between atoms: O_24  and  C_25
REMARK    6  A    between atoms: C_25  and  C_27
REMARK    7  A    between atoms: C_27  and  C_30
REMARK                            x       y       z     vdW  Elec       q    Type
REMARK                         _______ _______ _______ _____ _____    ______ ____
ROOT
ATOM      1  C   UNL     1      -0.541  63.201   9.747  0.00  0.00    +0.000 A 
ATOM      2  C   UNL     1      -0.995  62.924  11.164  0.00  0.00    +0.000 A 
ATOM      3  C   UNL     1      -1.286  62.806   8.500  0.00  0.00    +0.000 A 
ATOM      4  C   UNL     1      -0.330  63.615  12.302  0.00  0.00    +0.000 A 
ATOM      5  C   UNL     1       0.754  64.026   9.581  0.00  0.00    +0.000 A 
ATOM      6  C   UNL     1      -0.644  63.308   7.315  0.00  0.00    +0.000 A 
ATOM      7  C   UNL     1       0.510  64.121   7.080  0.00  0.00    +0.000 A 
ATOM      8  C   UNL     1       1.067  64.378   8.369  0.00  0.00    +0.000 A 
ATOM      9  C   UNL     1       0.769  64.417  11.879  0.00  0.00    +0.000 A 
ATOM     10  C   UNL     1       1.223  64.597  10.784  0.00  0.00    +0.000 A 
ATOM     11  C   UNL     1      -0.675  63.479  13.754  0.00  0.00    +0.000 C 
ATOM     12  C   UNL     1       0.462  65.202   6.049  0.00  0.00    +0.000 C 
ENDROOT
BRANCH   2  13
ATOM     13  C   UNL     1      -1.900  61.850  11.405  0.00  0.00    +0.000 C 
ATOM     14  C   UNL     1      -2.915  60.740  11.706  0.00  0.00    +0.000 C 
BRANCH  14  15
ATOM     15  C   UNL     1      -3.894  59.760  11.999  0.00  0.00    +0.000 C 
ATOM     16  O   UNL     1      -3.554  58.734  12.955  0.00  0.00    +0.000 OA
ATOM     17  C   UNL     1      -4.460  57.709  13.246  0.00  0.00    +0.000 C 
ATOM     18  O   UNL     1      -4.242  56.809  14.042  0.00  0.00    +0.000 OA
ATOM     19  C   UNL     1      -5.698  57.793  12.511  0.00  0.00    +0.000 C 
ATOM     20  C   UNL     1      -6.194  58.697  11.547  0.00  0.00    +0.000 C 
ATOM     21  C   UNL     1      -5.168  59.652  11.381  0.00  0.00    +0.000 C 
BRANCH  20  22
ATOM     22  O   UNL     1      -6.991  58.277  10.523  0.00  0.00    +0.000 OA
ATOM     23  H   UNL     1      -6.482  57.873   9.794  0.00  0.00    +0.000 HD
ENDBRANCH  20  22
ENDBRANCH  14  15
ENDBRANCH   2  13
BRANCH   3  24
ATOM     24  O   UNL     1      -2.678  62.901   8.587  0.00  0.00    +0.000 OA
BRANCH  24  25
ATOM     25  C   UNL     1      -3.303  62.620   7.386  0.00  0.00    +0.000 C 
ATOM     26  O   UNL     1      -3.226  61.529   6.816  0.00  0.00    +0.000 OA
BRANCH  25  27
ATOM     27  C   UNL     1      -4.088  63.871   6.856  0.00  0.00    +0.000 C 
ATOM     28  C   UNL     1      -3.757  65.116   7.761  0.00  0.00    +0.000 C 
ATOM     29  C   UNL     1      -5.649  63.618   6.892  0.00  0.00    +0.000 C 
BRANCH  27  30
ATOM     30  C   UNL     1      -3.655  64.100   5.449  0.00  0.00    +0.000 C 
ATOM     31  C   UNL     1      -3.241  64.369   3.972  0.00  0.00    +0.000 C 
ENDBRANCH  27  30
ENDBRANCH  25  27
ENDBRANCH  24  25
ENDBRANCH   3  24
TORSDOF 7
ENDMDL
