MODEL 1
REMARK VINA RESULT:      -8.9      0.000      0.000
REMARK  Name = Staurosporine.pdbqt.pdb
REMARK  2 active torsions:
REMARK  status: ('A' for Active; 'I' for Inactive)
REMARK    1  A    between atoms: C_3  and  O_11
REMARK    2  A    between atoms: C_5  and  N_8
REMARK                            x       y       z     vdW  Elec       q    Type
REMARK                         _______ _______ _______ _____ _____    ______ ____
ROOT
ATOM      1  O   UNL     1       8.724  34.211  15.894  0.00  0.00    +0.000 OA
ATOM      2  C   UNL     1       9.904  33.652  16.534  0.00  0.00    +0.000 C 
ATOM      3  C   UNL     1       9.987  33.877  18.056  0.00  0.00    +0.000 C 
ATOM      4  C   UNL     1       7.543  33.878  16.537  0.00  0.00    +0.000 C 
ATOM      5  C   UNL     1       8.753  34.136  18.794  0.00  0.00    +0.000 C 
ATOM      6  C   UNL     1       7.651  34.140  17.919  0.00  0.00    +0.000 C 
ATOM      7  C   UNL     1      11.078  34.462  15.888  0.00  0.00    +0.000 C 
ATOM      8  N   UNL     1       9.964  32.217  16.170  0.00  0.00    +0.000 N 
ATOM      9  C   UNL     1       8.986  31.334  15.788  0.00  0.00    +0.000 A 
ATOM     10  C   UNL     1       7.604  31.544  15.760  0.00  0.00    +0.000 A 
ATOM     11  C   UNL     1       9.355  30.027  15.440  0.00  0.00    +0.000 A 
ATOM     12  N   UNL     1       6.971  32.681  16.160  0.00  0.00    +0.000 N 
ATOM     13  C   UNL     1       6.837  30.417  15.430  0.00  0.00    +0.000 A 
ATOM     14  C   UNL     1       5.635  32.233  16.177  0.00  0.00    +0.000 A 
ATOM     15  C   UNL     1       5.528  30.875  15.699  0.00  0.00    +0.000 A 
ATOM     16  C   UNL     1       4.489  32.951  16.557  0.00  0.00    +0.000 A 
ATOM     17  C   UNL     1       4.246  30.295  15.641  0.00  0.00    +0.000 A 
ATOM     18  C   UNL     1       3.121  31.024  16.023  0.00  0.00    +0.000 A 
ATOM     19  C   UNL     1       3.244  32.329  16.474  0.00  0.00    +0.000 A 
ATOM     20  C   UNL     1       7.198  29.104  15.068  0.00  0.00    +0.000 A 
ATOM     21  C   UNL     1       8.606  28.902  15.069  0.00  0.00    +0.000 A 
ATOM     22  C   UNL     1       6.511  27.879  14.731  0.00  0.00    +0.000 C 
ATOM     23  C   UNL     1       8.834  27.476  14.713  0.00  0.00    +0.000 C 
ATOM     24  N   UNL     1       7.583  26.995  14.545  0.00  0.00    +0.000 N 
ATOM     25  H   UNL     1       7.404  26.034  14.289  0.00  0.00    +0.000 HD
ATOM     26  O   UNL     1       5.335  27.571  14.609  0.00  0.00    +0.000 OA
ATOM     27  C   UNL     1      10.744  30.043  15.643  0.00  0.00    +0.000 A 
ATOM     28  C   UNL     1      11.100  31.365  16.101  0.00  0.00    +0.000 A 
ATOM     29  C   UNL     1      11.764  29.077  15.517  0.00  0.00    +0.000 A 
ATOM     30  C   UNL     1      12.441  31.658  16.402  0.00  0.00    +0.000 A 
ATOM     31  C   UNL     1      13.416  30.670  16.259  0.00  0.00    +0.000 A 
ATOM     32  C   UNL     1      13.085  29.398  15.822  0.00  0.00    +0.000 A 
ENDROOT
BRANCH   5  33
ATOM     33  N   UNL     1       8.661  34.155  20.212  0.00  0.00    +0.000 N 
ATOM     34  C   UNL     1       9.157  35.359  20.843  0.00  0.00    +0.000 C 
ATOM     35  H   UNL     1       8.909  33.277  20.673  0.00  0.00    +0.000 HD
ENDBRANCH   5  33
BRANCH   3  36
ATOM     36  O   UNL     1      11.073  33.308  18.687  0.00  0.00    +0.000 OA
ATOM     37  C   UNL     1      12.026  34.269  19.056  0.00  0.00    +0.000 C 
ENDBRANCH   3  36
TORSDOF 2
ENDMDL
MODEL 2
REMARK VINA RESULT:      -7.8     30.864     33.393
REMARK  Name = Staurosporine.pdbqt.pdb
REMARK  2 active torsions:
REMARK  status: ('A' for Active; 'I' for Inactive)
REMARK    1  A    between atoms: C_3  and  O_11
REMARK    2  A    between atoms: C_5  and  N_8
REMARK                            x       y       z     vdW  Elec       q    Type
REMARK                         _______ _______ _______ _____ _____    ______ ____
ROOT
ATOM      1  O   UNL     1      -1.374  64.289  14.538  0.00  0.00    +0.000 OA
ATOM      2  C   UNL     1      -0.007  64.729  14.311  0.00  0.00    +0.000 C 
ATOM      3  C   UNL     1       1.067  63.932  15.079  0.00  0.00    +0.000 C 
ATOM      4  C   UNL     1      -1.540  62.921  14.398  0.00  0.00    +0.000 C 
ATOM      5  C   UNL     1       0.750  62.577  15.522  0.00  0.00    +0.000 C 
ATOM      6  C   UNL     1      -0.563  62.235  15.150  0.00  0.00    +0.000 C 
ATOM      7  C   UNL     1       0.002  66.183  14.893  0.00  0.00    +0.000 C 
ATOM      8  N   UNL     1       0.222  64.723  12.849  0.00  0.00    +0.000 N 
ATOM      9  C   UNL     1      -0.380  64.020  11.836  0.00  0.00    +0.000 A 
ATOM     10  C   UNL     1      -1.323  62.994  11.948  0.00  0.00    +0.000 A 
ATOM     11  C   UNL     1       0.011  64.270  10.514  0.00  0.00    +0.000 A 
ATOM     12  N   UNL     1      -1.788  62.473  13.117  0.00  0.00    +0.000 N 
ATOM     13  C   UNL     1      -1.681  62.379  10.739  0.00  0.00    +0.000 A 
ATOM     14  C   UNL     1      -2.463  61.334  12.636  0.00  0.00    +0.000 A 
ATOM     15  C   UNL     1      -2.444  61.280  11.193  0.00  0.00    +0.000 A 
ATOM     16  C   UNL     1      -3.127  60.346  13.381  0.00  0.00    +0.000 A 
ATOM     17  C   UNL     1      -3.098  60.202  10.565  0.00  0.00    +0.000 A 
ATOM     18  C   UNL     1      -3.751  59.232  11.322  0.00  0.00    +0.000 A 
ATOM     19  C   UNL     1      -3.762  59.304  12.707  0.00  0.00    +0.000 A 
ATOM     20  C   UNL     1      -1.303  62.630   9.406  0.00  0.00    +0.000 A 
ATOM     21  C   UNL     1      -0.365  63.694   9.293  0.00  0.00    +0.000 A 
ATOM     22  C   UNL     1      -1.584  62.064   8.107  0.00  0.00    +0.000 C 
ATOM     23  C   UNL     1      -0.029  63.817   7.849  0.00  0.00    +0.000 C 
ATOM     24  N   UNL     1      -0.774  62.848   7.274  0.00  0.00    +0.000 N 
ATOM     25  H   UNL     1      -0.766  62.681   6.278  0.00  0.00    +0.000 HD
ATOM     26  O   UNL     1      -2.304  61.158   7.714  0.00  0.00    +0.000 OA
ATOM     27  C   UNL     1       1.014  65.240  10.675  0.00  0.00    +0.000 A 
ATOM     28  C   UNL     1       1.146  65.494  12.090  0.00  0.00    +0.000 A 
ATOM     29  C   UNL     1       1.860  65.932   9.785  0.00  0.00    +0.000 A 
ATOM     30  C   UNL     1       2.101  66.420  12.544  0.00  0.00    +0.000 A 
ATOM     31  C   UNL     1       2.915  67.083  11.624  0.00  0.00    +0.000 A 
ATOM     32  C   UNL     1       2.797  66.846  10.265  0.00  0.00    +0.000 A 
ENDROOT
BRANCH   5  33
ATOM     33  N   UNL     1       1.706  61.666  16.049  0.00  0.00    +0.000 N 
ATOM     34  C   UNL     1       1.255  60.295  16.152  0.00  0.00    +0.000 C 
ATOM     35  H   UNL     1       2.244  62.018  16.844  0.00  0.00    +0.000 HD
ENDBRANCH   5  33
BRANCH   3  36
ATOM     36  O   UNL     1       2.373  64.301  14.836  0.00  0.00    +0.000 OA
ATOM     37  C   UNL     1       2.995  64.809  15.986  0.00  0.00    +0.000 C 
ENDBRANCH   3  36
TORSDOF 2
ENDMDL
MODEL 3
REMARK VINA RESULT:      -7.6     32.647     35.129
REMARK  Name = Staurosporine.pdbqt.pdb
REMARK  2 active torsions:
REMARK  status: ('A' for Active; 'I' for Inactive)
REMARK    1  A    between atoms: C_3  and  O_11
REMARK    2  A    between atoms: C_5  and  N_8
REMARK                            x       y       z     vdW  Elec       q    Type
REMARK                         _______ _______ _______ _____ _____    ______ ____
ROOT
ATOM      1  O   UNL     1       2.384  65.146   8.533  0.00  0.00    +0.000 OA
ATOM      2  C   UNL     1       2.342  66.210   9.524  0.00  0.00    +0.000 C 
ATOM      3  C   UNL     1       1.683  67.519   9.044  0.00  0.00    +0.000 C 
ATOM      4  C   UNL     1       1.164  64.921   7.918  0.00  0.00    +0.000 C 
ATOM      5  C   UNL     1       0.746  67.461   7.925  0.00  0.00    +0.000 C 
ATOM      6  C   UNL     1       0.619  66.139   7.459  0.00  0.00    +0.000 C 
ATOM      7  C   UNL     1       3.855  66.527   9.773  0.00  0.00    +0.000 C 
ATOM      8  N   UNL     1       1.691  65.660  10.734  0.00  0.00    +0.000 N 
ATOM      9  C   UNL     1       0.812  64.619  10.902  0.00  0.00    +0.000 A 
ATOM     10  C   UNL     1       0.187  63.857   9.910  0.00  0.00    +0.000 A 
ATOM     11  C   UNL     1       0.403  64.282  12.199  0.00  0.00    +0.000 A 
ATOM     12  N   UNL     1       0.314  64.051   8.569  0.00  0.00    +0.000 N 
ATOM     13  C   UNL     1      -0.753  62.927  10.378  0.00  0.00    +0.000 A 
ATOM     14  C   UNL     1      -0.716  63.215   8.094  0.00  0.00    +0.000 A 
ATOM     15  C   UNL     1      -1.349  62.494   9.173  0.00  0.00    +0.000 A 
ATOM     16  C   UNL     1      -1.122  63.016   6.764  0.00  0.00    +0.000 A 
ATOM     17  C   UNL     1      -2.391  61.602   8.849  0.00  0.00    +0.000 A 
ATOM     18  C   UNL     1      -2.779  61.419   7.523  0.00  0.00    +0.000 A 
ATOM     19  C   UNL     1      -2.154  62.118   6.500  0.00  0.00    +0.000 A 
ATOM     20  C   UNL     1      -1.163  62.574  11.679  0.00  0.00    +0.000 A 
ATOM     21  C   UNL     1      -0.503  63.331  12.686  0.00  0.00    +0.000 A 
ATOM     22  C   UNL     1      -2.116  61.664  12.272  0.00  0.00    +0.000 C 
ATOM     23  C   UNL     1      -1.060  62.883  13.991  0.00  0.00    +0.000 C 
ATOM     24  N   UNL     1      -1.961  61.941  13.637  0.00  0.00    +0.000 N 
ATOM     25  H   UNL     1      -2.511  61.439  14.318  0.00  0.00    +0.000 HD
ATOM     26  O   UNL     1      -2.894  60.837  11.821  0.00  0.00    +0.000 OA
ATOM     27  C   UNL     1       1.075  65.235  12.983  0.00  0.00    +0.000 A 
ATOM     28  C   UNL     1       1.836  66.073  12.087  0.00  0.00    +0.000 A 
ATOM     29  C   UNL     1       1.116  65.514  14.365  0.00  0.00    +0.000 A 
ATOM     30  C   UNL     1       2.597  67.134  12.608  0.00  0.00    +0.000 A 
ATOM     31  C   UNL     1       2.609  67.369  13.983  0.00  0.00    +0.000 A 
ATOM     32  C   UNL     1       1.882  66.571  14.850  0.00  0.00    +0.000 A 
ENDROOT
BRANCH   5  33
ATOM     33  N   UNL     1      -0.081  68.545   7.520  0.00  0.00    +0.000 N 
ATOM     34  C   UNL     1       0.439  69.337   6.427  0.00  0.00    +0.000 C 
ATOM     35  H   UNL     1      -0.510  69.069   8.285  0.00  0.00    +0.000 HD
ENDBRANCH   5  33
BRANCH   3  36
ATOM     36  O   UNL     1       1.587  68.520   9.986  0.00  0.00    +0.000 OA
ATOM     37  C   UNL     1       2.361  69.638   9.641  0.00  0.00    +0.000 C 
ENDBRANCH   3  36
TORSDOF 2
ENDMDL
MODEL 4
REMARK VINA RESULT:      -7.4     34.829     37.140
REMARK  Name = Staurosporine.pdbqt.pdb
REMARK  2 active torsions:
REMARK  status: ('A' for Active; 'I' for Inactive)
REMARK    1  A    between atoms: C_3  and  O_11
REMARK    2  A    between atoms: C_5  and  N_8
REMARK                            x       y       z     vdW  Elec       q    Type
REMARK                         _______ _______ _______ _____ _____    ______ ____
ROOT
ATOM      1  O   UNL     1       7.075  61.403  -5.106  0.00  0.00    +0.000 OA
ATOM      2  C   UNL     1       5.971  62.171  -5.658  0.00  0.00    +0.000 C 
ATOM      3  C   UNL     1       6.327  63.028  -6.890  0.00  0.00    +0.000 C 
ATOM      4  C   UNL     1       7.771  60.680  -6.061  0.00  0.00    +0.000 C 
ATOM      5  C   UNL     1       7.490  62.653  -7.690  0.00  0.00    +0.000 C 
ATOM      6  C   UNL     1       8.112  61.513  -7.148  0.00  0.00    +0.000 C 
ATOM      7  C   UNL     1       5.613  63.164  -4.501  0.00  0.00    +0.000 C 
ATOM      8  N   UNL     1       4.866  61.224  -5.928  0.00  0.00    +0.000 N 
ATOM      9  C   UNL     1       4.863  59.872  -6.168  0.00  0.00    +0.000 A 
ATOM     10  C   UNL     1       5.967  59.031  -6.345  0.00  0.00    +0.000 A 
ATOM     11  C   UNL     1       3.636  59.217  -6.334  0.00  0.00    +0.000 A 
ATOM     12  N   UNL     1       7.269  59.429  -6.353  0.00  0.00    +0.000 N 
ATOM     13  C   UNL     1       5.657  57.707  -6.689  0.00  0.00    +0.000 A 
ATOM     14  C   UNL     1       7.887  58.258  -6.836  0.00  0.00    +0.000 A 
ATOM     15  C   UNL     1       6.932  57.190  -7.008  0.00  0.00    +0.000 A 
ATOM     16  C   UNL     1       9.249  58.053  -7.109  0.00  0.00    +0.000 A 
ATOM     17  C   UNL     1       7.408  55.947  -7.470  0.00  0.00    +0.000 A 
ATOM     18  C   UNL     1       8.763  55.763  -7.736  0.00  0.00    +0.000 A 
ATOM     19  C   UNL     1       9.666  56.801  -7.559  0.00  0.00    +0.000 A 
ATOM     20  C   UNL     1       4.428  57.037  -6.847  0.00  0.00    +0.000 A 
ATOM     21  C   UNL     1       3.308  57.889  -6.637  0.00  0.00    +0.000 A 
ATOM     22  C   UNL     1       3.992  55.709  -7.209  0.00  0.00    +0.000 C 
ATOM     23  C   UNL     1       2.092  57.065  -6.875  0.00  0.00    +0.000 C 
ATOM     24  N   UNL     1       2.597  55.853  -7.191  0.00  0.00    +0.000 N 
ATOM     25  H   UNL     1       2.007  55.062  -7.407  0.00  0.00    +0.000 HD
ATOM     26  O   UNL     1       4.573  54.668  -7.477  0.00  0.00    +0.000 OA
ATOM     27  C   UNL     1       2.715  60.271  -6.215  0.00  0.00    +0.000 A 
ATOM     28  C   UNL     1       3.468  61.481  -5.988  0.00  0.00    +0.000 A 
ATOM     29  C   UNL     1       1.310  60.359  -6.297  0.00  0.00    +0.000 A 
ATOM     30  C   UNL     1       2.792  62.705  -5.849  0.00  0.00    +0.000 A 
ATOM     31  C   UNL     1       1.400  62.741  -5.934  0.00  0.00    +0.000 A 
ATOM     32  C   UNL     1       0.667  61.586  -6.153  0.00  0.00    +0.000 A 
ENDROOT
BRANCH   5  33
ATOM     33  N   UNL     1       7.806  63.223  -8.954  0.00  0.00    +0.000 N 
ATOM     34  C   UNL     1       7.341  62.473 -10.099  0.00  0.00    +0.000 C 
ATOM     35  H   UNL     1       8.749  63.610  -9.028  0.00  0.00    +0.000 HD
ENDBRANCH   5  33
BRANCH   3  36
ATOM     36  O   UNL     1       5.281  63.722  -7.458  0.00  0.00    +0.000 OA
ATOM     37  C   UNL     1       5.458  65.110  -7.356  0.00  0.00    +0.000 C 
ENDBRANCH   3  36
TORSDOF 2
ENDMDL
MODEL 5
REMARK VINA RESULT:      -7.3     34.145     36.231
REMARK  Name = Staurosporine.pdbqt.pdb
REMARK  2 active torsions:
REMARK  status: ('A' for Active; 'I' for Inactive)
REMARK    1  A    between atoms: C_3  and  O_11
REMARK    2  A    between atoms: C_5  and  N_8
REMARK                            x       y       z     vdW  Elec       q    Type
REMARK                         _______ _______ _______ _____ _____    ______ ____
ROOT
ATOM      1  O   UNL     1       9.298  55.836  -6.904  0.00  0.00    +0.000 OA
ATOM      2  C   UNL     1      10.186  56.771  -7.576  0.00  0.00    +0.000 C 
ATOM      3  C   UNL     1      10.342  56.544  -9.093  0.00  0.00    +0.000 C 
ATOM      4  C   UNL     1       8.075  55.690  -7.538  0.00  0.00    +0.000 C 
ATOM      5  C   UNL     1       9.288  55.825  -9.805  0.00  0.00    +0.000 C 
ATOM      6  C   UNL     1       8.268  55.443  -8.914  0.00  0.00    +0.000 C 
ATOM      7  C   UNL     1      11.579  56.471  -6.925  0.00  0.00    +0.000 C 
ATOM      8  N   UNL     1       9.714  58.137  -7.254  0.00  0.00    +0.000 N 
ATOM      9  C   UNL     1       8.481  58.610  -6.882  0.00  0.00    +0.000 A 
ATOM     10  C   UNL     1       7.274  57.906  -6.828  0.00  0.00    +0.000 A 
ATOM     11  C   UNL     1       8.343  59.970  -6.576  0.00  0.00    +0.000 A 
ATOM     12  N   UNL     1       7.103  56.604  -7.187  0.00  0.00    +0.000 N 
ATOM     13  C   UNL     1       6.146  58.680  -6.518  0.00  0.00    +0.000 A 
ATOM     14  C   UNL     1       5.696  56.527  -7.196  0.00  0.00    +0.000 A 
ATOM     15  C   UNL     1       5.098  57.764  -6.754  0.00  0.00    +0.000 A 
ATOM     16  C   UNL     1       4.895  55.426  -7.539  0.00  0.00    +0.000 A 
ATOM     17  C   UNL     1       3.692  57.833  -6.694  0.00  0.00    +0.000 A 
ATOM     18  C   UNL     1       2.914  56.729  -7.039  0.00  0.00    +0.000 A 
ATOM     19  C   UNL     1       3.509  55.547  -7.455  0.00  0.00    +0.000 A 
ATOM     20  C   UNL     1       5.999  60.044  -6.199  0.00  0.00    +0.000 A 
ATOM     21  C   UNL     1       7.233  60.751  -6.226  0.00  0.00    +0.000 A 
ATOM     22  C   UNL     1       4.910  60.941  -5.886  0.00  0.00    +0.000 C 
ATOM     23  C   UNL     1       6.920  62.171  -5.913  0.00  0.00    +0.000 C 
ATOM     24  N   UNL     1       5.581  62.163  -5.740  0.00  0.00    +0.000 N 
ATOM     25  H   UNL     1       5.062  62.997  -5.508  0.00  0.00    +0.000 HD
ATOM     26  O   UNL     1       3.703  60.797  -5.755  0.00  0.00    +0.000 OA
ATOM     27  C   UNL     1       9.639  60.461  -6.799  0.00  0.00    +0.000 A 
ATOM     28  C   UNL     1      10.456  59.350  -7.225  0.00  0.00    +0.000 A 
ATOM     29  C   UNL     1      10.232  61.738  -6.716  0.00  0.00    +0.000 A 
ATOM     30  C   UNL     1      11.810  59.562  -7.538  0.00  0.00    +0.000 A 
ATOM     31  C   UNL     1      12.352  60.844  -7.437  0.00  0.00    +0.000 A 
ATOM     32  C   UNL     1      11.577  61.917  -7.030  0.00  0.00    +0.000 A 
ENDROOT
BRANCH   5  33
ATOM     33  N   UNL     1       9.204  55.729 -11.220  0.00  0.00    +0.000 N 
ATOM     34  C   UNL     1       8.295  54.717 -11.714  0.00  0.00    +0.000 C 
ATOM     35  H   UNL     1      10.098  55.802 -11.711  0.00  0.00    +0.000 HD
ENDBRANCH   5  33
BRANCH   3  36
ATOM     36  O   UNL     1      11.139  57.453  -9.755  0.00  0.00    +0.000 OA
ATOM     37  C   UNL     1      12.289  56.850 -10.286  0.00  0.00    +0.000 C 
ENDBRANCH   3  36
TORSDOF 2
ENDMDL
MODEL 6
REMARK VINA RESULT:      -7.3     31.666     34.272
REMARK  Name = Staurosporine.pdbqt.pdb
REMARK  2 active torsions:
REMARK  status: ('A' for Active; 'I' for Inactive)
REMARK    1  A    between atoms: C_3  and  O_11
REMARK    2  A    between atoms: C_5  and  N_8
REMARK                            x       y       z     vdW  Elec       q    Type
REMARK                         _______ _______ _______ _____ _____    ______ ____
ROOT
ATOM      1  O   UNL     1       0.495  63.713  13.401  0.00  0.00    +0.000 OA
ATOM      2  C   UNL     1      -0.772  63.087  13.745  0.00  0.00    +0.000 C 
ATOM      3  C   UNL     1      -1.786  64.015  14.444  0.00  0.00    +0.000 C 
ATOM      4  C   UNL     1       0.348  64.920  12.738  0.00  0.00    +0.000 C 
ATOM      5  C   UNL     1      -1.656  65.458  14.261  0.00  0.00    +0.000 C 
ATOM      6  C   UNL     1      -0.554  65.750  13.435  0.00  0.00    +0.000 C 
ATOM      7  C   UNL     1      -0.359  61.994  14.788  0.00  0.00    +0.000 C 
ATOM      8  N   UNL     1      -1.317  62.485  12.507  0.00  0.00    +0.000 N 
ATOM      9  C   UNL     1      -1.109  62.780  11.183  0.00  0.00    +0.000 A 
ATOM     10  C   UNL     1      -0.389  63.852  10.647  0.00  0.00    +0.000 A 
ATOM     11  C   UNL     1      -1.725  61.984  10.208  0.00  0.00    +0.000 A 
ATOM     12  N   UNL     1       0.209  64.840  11.368  0.00  0.00    +0.000 N 
ATOM     13  C   UNL     1      -0.440  63.964   9.250  0.00  0.00    +0.000 A 
ATOM     14  C   UNL     1       0.518  65.752  10.338  0.00  0.00    +0.000 A 
ATOM     15  C   UNL     1       0.168  65.222   9.042  0.00  0.00    +0.000 A 
ATOM     16  C   UNL     1       1.120  67.015  10.458  0.00  0.00    +0.000 A 
ATOM     17  C   UNL     1       0.436  66.017   7.910  0.00  0.00    +0.000 A 
ATOM     18  C   UNL     1       1.033  67.268   8.049  0.00  0.00    +0.000 A 
ATOM     19  C   UNL     1       1.367  67.757   9.304  0.00  0.00    +0.000 A 
ATOM     20  C   UNL     1      -1.048  63.165   8.262  0.00  0.00    +0.000 A 
ATOM     21  C   UNL     1      -1.754  62.058   8.809  0.00  0.00    +0.000 A 
ATOM     22  C   UNL     1      -1.182  63.189   6.823  0.00  0.00    +0.000 C 
ATOM     23  C   UNL     1      -2.371  61.335   7.665  0.00  0.00    +0.000 C 
ATOM     24  N   UNL     1      -1.983  62.061   6.594  0.00  0.00    +0.000 N 
ATOM     25  H   UNL     1      -2.246  61.814   5.651  0.00  0.00    +0.000 HD
ATOM     26  O   UNL     1      -0.764  63.928   5.944  0.00  0.00    +0.000 OA
ATOM     27  C   UNL     1      -2.452  61.067  10.985  0.00  0.00    +0.000 A 
ATOM     28  C   UNL     1      -2.212  61.388  12.372  0.00  0.00    +0.000 A 
ATOM     29  C   UNL     1      -3.319  59.997  10.682  0.00  0.00    +0.000 A 
ATOM     30  C   UNL     1      -2.838  60.632  13.378  0.00  0.00    +0.000 A 
ATOM     31  C   UNL     1      -3.685  59.581  13.029  0.00  0.00    +0.000 A 
ATOM     32  C   UNL     1      -3.923  59.265  11.702  0.00  0.00    +0.000 A 
ENDROOT
BRANCH   5  33
ATOM     33  N   UNL     1      -2.633  66.406  14.673  0.00  0.00    +0.000 N 
ATOM     34  C   UNL     1      -3.576  66.799  13.649  0.00  0.00    +0.000 C 
ATOM     35  H   UNL     1      -2.279  67.160  15.265  0.00  0.00    +0.000 HD
ENDBRANCH   5  33
BRANCH   3  36
ATOM     36  O   UNL     1      -3.011  63.453  14.731  0.00  0.00    +0.000 OA
ATOM     37  C   UNL     1      -3.248  63.392  16.112  0.00  0.00    +0.000 C 
ENDBRANCH   3  36
TORSDOF 2
ENDMDL
MODEL 7
REMARK VINA RESULT:      -7.2     25.852     29.755
REMARK  Name = Staurosporine.pdbqt.pdb
REMARK  2 active torsions:
REMARK  status: ('A' for Active; 'I' for Inactive)
REMARK    1  A    between atoms: C_3  and  O_11
REMARK    2  A    between atoms: C_5  and  N_8
REMARK                            x       y       z     vdW  Elec       q    Type
REMARK                         _______ _______ _______ _____ _____    ______ ____
ROOT
ATOM      1  O   UNL     1     -18.466  35.504   7.024  0.00  0.00    +0.000 OA
ATOM      2  C   UNL     1     -18.804  36.617   6.151  0.00  0.00    +0.000 C 
ATOM      3  C   UNL     1     -17.716  37.703   6.032  0.00  0.00    +0.000 C 
ATOM      4  C   UNL     1     -17.216  34.965   6.766  0.00  0.00    +0.000 C 
ATOM      5  C   UNL     1     -16.333  37.343   6.333  0.00  0.00    +0.000 C 
ATOM      6  C   UNL     1     -16.248  35.990   6.708  0.00  0.00    +0.000 C 
ATOM      7  C   UNL     1     -20.029  37.276   6.870  0.00  0.00    +0.000 C 
ATOM      8  N   UNL     1     -19.182  36.047   4.837  0.00  0.00    +0.000 N 
ATOM      9  C   UNL     1     -18.856  34.860   4.232  0.00  0.00    +0.000 A 
ATOM     10  C   UNL     1     -17.945  33.895   4.674  0.00  0.00    +0.000 A 
ATOM     11  C   UNL     1     -19.421  34.558   2.986  0.00  0.00    +0.000 A 
ATOM     12  N   UNL     1     -17.171  33.992   5.790  0.00  0.00    +0.000 N 
ATOM     13  C   UNL     1     -17.732  32.828   3.789  0.00  0.00    +0.000 A 
ATOM     14  C   UNL     1     -16.290  32.913   5.581  0.00  0.00    +0.000 A 
ATOM     15  C   UNL     1     -16.638  32.170   4.393  0.00  0.00    +0.000 A 
ATOM     16  C   UNL     1     -15.210  32.514   6.385  0.00  0.00    +0.000 A 
ATOM     17  C   UNL     1     -15.853  31.047   4.063  0.00  0.00    +0.000 A 
ATOM     18  C   UNL     1     -14.785  30.668   4.873  0.00  0.00    +0.000 A 
ATOM     19  C   UNL     1     -14.470  31.392   6.014  0.00  0.00    +0.000 A 
ATOM     20  C   UNL     1     -18.303  32.510   2.540  0.00  0.00    +0.000 A 
ATOM     21  C   UNL     1     -19.251  33.479   2.108  0.00  0.00    +0.000 A 
ATOM     22  C   UNL     1     -18.153  31.471   1.548  0.00  0.00    +0.000 C 
ATOM     23  C   UNL     1     -19.734  33.038   0.772  0.00  0.00    +0.000 C 
ATOM     24  N   UNL     1     -19.048  31.895   0.556  0.00  0.00    +0.000 N 
ATOM     25  H   UNL     1     -19.165  31.347  -0.284  0.00  0.00    +0.000 HD
ATOM     26  O   UNL     1     -17.474  30.458   1.476  0.00  0.00    +0.000 OA
ATOM     27  C   UNL     1     -20.195  35.700   2.724  0.00  0.00    +0.000 A 
ATOM     28  C   UNL     1     -20.031  36.600   3.839  0.00  0.00    +0.000 A 
ATOM     29  C   UNL     1     -21.014  36.102   1.649  0.00  0.00    +0.000 A 
ATOM     30  C   UNL     1     -20.687  37.844   3.832  0.00  0.00    +0.000 A 
ATOM     31  C   UNL     1     -21.489  38.197   2.746  0.00  0.00    +0.000 A 
ATOM     32  C   UNL     1     -21.654  37.340   1.671  0.00  0.00    +0.000 A 
ENDROOT
BRANCH   5  33
ATOM     33  N   UNL     1     -15.215  38.180   6.066  0.00  0.00    +0.000 N 
ATOM     34  C   UNL     1     -14.217  38.224   7.112  0.00  0.00    +0.000 C 
ATOM     35  H   UNL     1     -15.442  39.077   5.630  0.00  0.00    +0.000 HD
ENDBRANCH   5  33
BRANCH   3  36
ATOM     36  O   UNL     1     -17.998  38.739   5.167  0.00  0.00    +0.000 OA
ATOM     37  C   UNL     1     -18.030  39.976   5.827  0.00  0.00    +0.000 C 
ENDBRANCH   3  36
TORSDOF 2
ENDMDL
MODEL 8
REMARK VINA RESULT:      -7.0     35.364     37.559
REMARK  Name = Staurosporine.pdbqt.pdb
REMARK  2 active torsions:
REMARK  status: ('A' for Active; 'I' for Inactive)
REMARK    1  A    between atoms: C_3  and  O_11
REMARK    2  A    between atoms: C_5  and  N_8
REMARK                            x       y       z     vdW  Elec       q    Type
REMARK                         _______ _______ _______ _____ _____    ______ ____
ROOT
ATOM      1  O   UNL     1       1.853  62.237  -7.324  0.00  0.00    +0.000 OA
ATOM      2  C   UNL     1       2.186  63.100  -6.203  0.00  0.00    +0.000 C 
ATOM      3  C   UNL     1       1.201  63.036  -5.018  0.00  0.00    +0.000 C 
ATOM      4  C   UNL     1       1.573  60.933  -6.947  0.00  0.00    +0.000 C 
ATOM      5  C   UNL     1       0.372  61.844  -4.861  0.00  0.00    +0.000 C 
ATOM      6  C   UNL     1       0.638  60.923  -5.891  0.00  0.00    +0.000 C 
ATOM      7  C   UNL     1       2.072  64.538  -6.813  0.00  0.00    +0.000 C 
ATOM      8  N   UNL     1       3.576  62.785  -5.801  0.00  0.00    +0.000 N 
ATOM      9  C   UNL     1       4.335  61.652  -5.959  0.00  0.00    +0.000 A 
ATOM     10  C   UNL     1       3.927  60.410  -6.458  0.00  0.00    +0.000 A 
ATOM     11  C   UNL     1       5.666  61.664  -5.523  0.00  0.00    +0.000 A 
ATOM     12  N   UNL     1       2.660  60.091  -6.841  0.00  0.00    +0.000 N 
ATOM     13  C   UNL     1       4.897  59.398  -6.400  0.00  0.00    +0.000 A 
ATOM     14  C   UNL     1       2.782  58.694  -6.974  0.00  0.00    +0.000 A 
ATOM     15  C   UNL     1       4.140  58.259  -6.749  0.00  0.00    +0.000 A 
ATOM     16  C   UNL     1       1.780  57.770  -7.312  0.00  0.00    +0.000 A 
ATOM     17  C   UNL     1       4.420  56.883  -6.866  0.00  0.00    +0.000 A 
ATOM     18  C   UNL     1       3.411  55.981  -7.202  0.00  0.00    +0.000 A 
ATOM     19  C   UNL     1       2.114  56.420  -7.419  0.00  0.00    +0.000 A 
ATOM     20  C   UNL     1       6.239  59.403  -5.973  0.00  0.00    +0.000 A 
ATOM     21  C   UNL     1       6.659  60.675  -5.495  0.00  0.00    +0.000 A 
ATOM     22  C   UNL     1       7.308  58.439  -5.852  0.00  0.00    +0.000 C 
ATOM     23  C   UNL     1       8.068  60.520  -5.045  0.00  0.00    +0.000 C 
ATOM     24  N   UNL     1       8.331  59.218  -5.292  0.00  0.00    +0.000 N 
ATOM     25  H   UNL     1       9.229  58.802  -5.093  0.00  0.00    +0.000 HD
ATOM     26  O   UNL     1       7.417  57.252  -6.124  0.00  0.00    +0.000 OA
ATOM     27  C   UNL     1       5.794  62.954  -4.984  0.00  0.00    +0.000 A 
ATOM     28  C   UNL     1       4.522  63.617  -5.141  0.00  0.00    +0.000 A 
ATOM     29  C   UNL     1       6.843  63.652  -4.350  0.00  0.00    +0.000 A 
ATOM     30  C   UNL     1       4.359  64.931  -4.668  0.00  0.00    +0.000 A 
ATOM     31  C   UNL     1       5.427  65.581  -4.049  0.00  0.00    +0.000 A 
ATOM     32  C   UNL     1       6.652  64.954  -3.892  0.00  0.00    +0.000 A 
ENDROOT
BRANCH   5  33
ATOM     33  N   UNL     1      -0.418  61.568  -3.712  0.00  0.00    +0.000 N 
ATOM     34  C   UNL     1      -1.735  62.166  -3.714  0.00  0.00    +0.000 C 
ATOM     35  H   UNL     1       0.086  61.605  -2.823  0.00  0.00    +0.000 HD
ENDBRANCH   5  33
BRANCH   3  36
ATOM     36  O   UNL     1       1.530  63.809  -3.925  0.00  0.00    +0.000 OA
ATOM     37  C   UNL     1       0.657  64.896  -3.772  0.00  0.00    +0.000 C 
ENDBRANCH   3  36
TORSDOF 2
ENDMDL
MODEL 9
REMARK VINA RESULT:      -7.0     27.574     30.716
REMARK  Name = Staurosporine.pdbqt.pdb
REMARK  2 active torsions:
REMARK  status: ('A' for Active; 'I' for Inactive)
REMARK    1  A    between atoms: C_3  and  O_11
REMARK    2  A    between atoms: C_5  and  N_8
REMARK                            x       y       z     vdW  Elec       q    Type
REMARK                         _______ _______ _______ _____ _____    ______ ____
ROOT
ATOM      1  O   UNL     1      -3.986  60.581  15.206  0.00  0.00    +0.000 OA
ATOM      2  C   UNL     1      -3.749  59.174  15.488  0.00  0.00    +0.000 C 
ATOM      3  C   UNL     1      -3.987  58.223  14.298  0.00  0.00    +0.000 C 
ATOM      4  C   UNL     1      -3.360  61.022  14.051  0.00  0.00    +0.000 C 
ATOM      5  C   UNL     1      -3.919  58.766  12.944  0.00  0.00    +0.000 C 
ATOM      6  C   UNL     1      -3.640  60.145  12.982  0.00  0.00    +0.000 C 
ATOM      7  C   UNL     1      -4.835  58.837  16.565  0.00  0.00    +0.000 C 
ATOM      8  N   UNL     1      -2.379  59.060  16.038  0.00  0.00    +0.000 N 
ATOM      9  C   UNL     1      -1.273  59.862  15.901  0.00  0.00    +0.000 A 
ATOM     10  C   UNL     1      -1.121  60.977  15.071  0.00  0.00    +0.000 A 
ATOM     11  C   UNL     1      -0.106  59.529  16.601  0.00  0.00    +0.000 A 
ATOM     12  N   UNL     1      -2.056  61.446  14.200  0.00  0.00    +0.000 N 
ATOM     13  C   UNL     1       0.165  61.537  15.057  0.00  0.00    +0.000 A 
ATOM     14  C   UNL     1      -1.279  62.366  13.467  0.00  0.00    +0.000 A 
ATOM     15  C   UNL     1       0.060  62.465  13.997  0.00  0.00    +0.000 A 
ATOM     16  C   UNL     1      -1.678  63.153  12.375  0.00  0.00    +0.000 A 
ATOM     17  C   UNL     1       0.951  63.362  13.376  0.00  0.00    +0.000 A 
ATOM     18  C   UNL     1       0.536  64.135  12.293  0.00  0.00    +0.000 A 
ATOM     19  C   UNL     1      -0.757  64.028  11.802  0.00  0.00    +0.000 A 
ATOM     20  C   UNL     1       1.341  61.217  15.764  0.00  0.00    +0.000 A 
ATOM     21  C   UNL     1       1.173  60.100  16.629  0.00  0.00    +0.000 A 
ATOM     22  C   UNL     1       2.701  61.699  15.818  0.00  0.00    +0.000 C 
ATOM     23  C   UNL     1       2.493  59.854  17.271  0.00  0.00    +0.000 C 
ATOM     24  N   UNL     1       3.279  60.815  16.740  0.00  0.00    +0.000 N 
ATOM     25  H   UNL     1       4.253  60.914  16.989  0.00  0.00    +0.000 HD
ATOM     26  O   UNL     1       3.302  62.610  15.267  0.00  0.00    +0.000 OA
ATOM     27  C   UNL     1      -0.478  58.346  17.260  0.00  0.00    +0.000 A 
ATOM     28  C   UNL     1      -1.847  58.062  16.900  0.00  0.00    +0.000 A 
ATOM     29  C   UNL     1       0.192  57.448  18.117  0.00  0.00    +0.000 A 
ATOM     30  C   UNL     1      -2.475  56.912  17.409  0.00  0.00    +0.000 A 
ATOM     31  C   UNL     1      -1.771  56.055  18.256  0.00  0.00    +0.000 A 
ATOM     32  C   UNL     1      -0.458  56.318  18.607  0.00  0.00    +0.000 A 
ENDROOT
BRANCH   5  33
ATOM     33  N   UNL     1      -3.912  57.972  11.765  0.00  0.00    +0.000 N 
ATOM     34  C   UNL     1      -5.219  57.646  11.237  0.00  0.00    +0.000 C 
ATOM     35  H   UNL     1      -3.229  57.211  11.761  0.00  0.00    +0.000 HD
ENDBRANCH   5  33
BRANCH   3  36
ATOM     36  O   UNL     1      -3.716  56.892  14.533  0.00  0.00    +0.000 OA
ATOM     37  C   UNL     1      -4.889  56.128  14.623  0.00  0.00    +0.000 C 
ENDBRANCH   3  36
TORSDOF 2
ENDMDL
