MODEL 1
REMARK VINA RESULT:      -6.2      0.000      0.000
REMARK  Name = Testosterone.pdbqt.pdb
REMARK  1 active torsions:
REMARK  status: ('A' for Active; 'I' for Inactive)
REMARK    1  A    between atoms: C_9  and  O_21
REMARK                            x       y       z     vdW  Elec       q    Type
REMARK                         _______ _______ _______ _____ _____    ______ ____
ROOT
ATOM      1  O   UNL     1     -16.815  42.125  15.743  0.00  0.00    +0.000 OA
ATOM      2  C   UNL     1     -15.281  39.412   8.751  0.00  0.00    +0.000 C 
ATOM      3  C   UNL     1     -13.816  39.502   8.108  0.00  0.00    +0.000 C 
ATOM      4  C   UNL     1     -15.482  39.363  10.213  0.00  0.00    +0.000 C 
ATOM      5  C   UNL     1     -14.454  39.696  11.259  0.00  0.00    +0.000 C 
ATOM      6  C   UNL     1     -14.688  39.542  12.778  0.00  0.00    +0.000 C 
ATOM      7  C   UNL     1     -12.940  39.982   9.178  0.00  0.00    +0.000 C 
ATOM      8  C   UNL     1     -13.214  40.055  10.660  0.00  0.00    +0.000 C 
ATOM      9  C   UNL     1     -13.979  40.541   6.973  0.00  0.00    +0.000 C 
ATOM     10  C   UNL     1     -16.132  40.239   7.947  0.00  0.00    +0.000 C 
ATOM     11  C   UNL     1     -16.762  39.130  10.766  0.00  0.00    +0.000 C 
ATOM     12  C   UNL     1     -15.332  40.971   6.898  0.00  0.00    +0.000 C 
ATOM     13  C   UNL     1     -16.276  39.490  13.245  0.00  0.00    +0.000 C 
ATOM     14  C   UNL     1     -17.184  39.180  12.203  0.00  0.00    +0.000 C 
ATOM     15  C   UNL     1     -13.394  38.125   7.536  0.00  0.00    +0.000 C 
ATOM     16  C   UNL     1     -14.164  40.742  13.511  0.00  0.00    +0.000 C 
ATOM     17  C   UNL     1     -14.025  38.229  13.279  0.00  0.00    +0.000 C 
ATOM     18  C   UNL     1     -14.795  41.685  14.561  0.00  0.00    +0.000 C 
ATOM     19  C   UNL     1     -16.668  40.337  14.174  0.00  0.00    +0.000 C 
ATOM     20  C   UNL     1     -16.173  41.464  14.950  0.00  0.00    +0.000 C 
ENDROOT
BRANCH   9  21
ATOM     21  O   UNL     1     -13.191  40.522   5.837  0.00  0.00    +0.000 OA
ATOM     22  H   UNL     1     -12.765  39.651   5.715  0.00  0.00    +0.000 HD
ENDBRANCH   9  21
TORSDOF 1
ENDMDL
MODEL 2
REMARK VINA RESULT:      -6.0     24.990     26.725
REMARK  Name = Testosterone.pdbqt.pdb
REMARK  1 active torsions:
REMARK  status: ('A' for Active; 'I' for Inactive)
REMARK    1  A    between atoms: C_9  and  O_21
REMARK                            x       y       z     vdW  Elec       q    Type
REMARK                         _______ _______ _______ _____ _____    ______ ____
ROOT
ATOM      1  O   UNL     1      12.285  41.111  18.133  0.00  0.00    +0.000 OA
ATOM      2  C   UNL     1      10.637  33.954  15.972  0.00  0.00    +0.000 C 
ATOM      3  C   UNL     1       9.326  33.191  16.491  0.00  0.00    +0.000 C 
ATOM      4  C   UNL     1      10.685  35.426  15.871  0.00  0.00    +0.000 C 
ATOM      5  C   UNL     1       9.714  36.389  16.498  0.00  0.00    +0.000 C 
ATOM      6  C   UNL     1       9.758  37.918  16.287  0.00  0.00    +0.000 C 
ATOM      7  C   UNL     1       8.541  34.194  17.214  0.00  0.00    +0.000 C 
ATOM      8  C   UNL     1       8.694  35.695  17.206  0.00  0.00    +0.000 C 
ATOM      9  C   UNL     1       9.889  32.098  17.431  0.00  0.00    +0.000 C 
ATOM     10  C   UNL     1      11.761  33.244  16.507  0.00  0.00    +0.000 C 
ATOM     11  C   UNL     1      11.785  36.080  15.271  0.00  0.00    +0.000 C 
ATOM     12  C   UNL     1      11.310  32.148  17.439  0.00  0.00    +0.000 C 
ATOM     13  C   UNL     1      11.212  38.517  15.767  0.00  0.00    +0.000 C 
ATOM     14  C   UNL     1      12.075  37.549  15.198  0.00  0.00    +0.000 C 
ATOM     15  C   UNL     1       8.568  32.555  15.300  0.00  0.00    +0.000 C 
ATOM     16  C   UNL     1       9.551  38.631  17.591  0.00  0.00    +0.000 C 
ATOM     17  C   UNL     1       8.695  38.332  15.232  0.00  0.00    +0.000 C 
ATOM     18  C   UNL     1      10.337  39.752  18.308  0.00  0.00    +0.000 C 
ATOM     19  C   UNL     1      11.754  39.495  16.463  0.00  0.00    +0.000 C 
ATOM     20  C   UNL     1      11.549  40.251  17.689  0.00  0.00    +0.000 C 
ENDROOT
BRANCH   9  21
ATOM     21  O   UNL     1       9.233  30.899  17.642  0.00  0.00    +0.000 OA
ATOM     22  H   UNL     1       9.250  30.647  18.586  0.00  0.00    +0.000 HD
ENDBRANCH   9  21
TORSDOF 1
ENDMDL
MODEL 3
REMARK VINA RESULT:      -5.9     26.116     27.986
REMARK  Name = Testosterone.pdbqt.pdb
REMARK  1 active torsions:
REMARK  status: ('A' for Active; 'I' for Inactive)
REMARK    1  A    between atoms: C_9  and  O_21
REMARK                            x       y       z     vdW  Elec       q    Type
REMARK                         _______ _______ _______ _____ _____    ______ ____
ROOT
ATOM      1  O   UNL     1      12.080  26.158  17.595  0.00  0.00    +0.000 OA
ATOM      2  C   UNL     1      10.601  33.658  17.176  0.00  0.00    +0.000 C 
ATOM      3  C   UNL     1      10.309  34.388  15.780  0.00  0.00    +0.000 C 
ATOM      4  C   UNL     1      10.307  32.224  17.374  0.00  0.00    +0.000 C 
ATOM      5  C   UNL     1      10.021  31.221  16.291  0.00  0.00    +0.000 C 
ATOM      6  C   UNL     1       9.630  29.751  16.558  0.00  0.00    +0.000 C 
ATOM      7  C   UNL     1      10.205  33.320  14.785  0.00  0.00    +0.000 C 
ATOM      8  C   UNL     1      10.043  31.836  15.008  0.00  0.00    +0.000 C 
ATOM      9  C   UNL     1      11.561  35.272  15.563  0.00  0.00    +0.000 C 
ATOM     10  C   UNL     1      11.829  34.203  17.674  0.00  0.00    +0.000 C 
ATOM     11  C   UNL     1      10.424  31.625  18.650  0.00  0.00    +0.000 C 
ATOM     12  C   UNL     1      12.444  35.146  16.670  0.00  0.00    +0.000 C 
ATOM     13  C   UNL     1      10.038  29.174  18.055  0.00  0.00    +0.000 C 
ATOM     14  C   UNL     1      10.303  30.178  19.019  0.00  0.00    +0.000 C 
ATOM     15  C   UNL     1       9.033  35.260  15.886  0.00  0.00    +0.000 C 
ATOM     16  C   UNL     1      10.379  28.837  15.633  0.00  0.00    +0.000 C 
ATOM     17  C   UNL     1       8.093  29.583  16.411  0.00  0.00    +0.000 C 
ATOM     18  C   UNL     1      11.229  27.568  15.875  0.00  0.00    +0.000 C 
ATOM     19  C   UNL     1      10.744  28.063  18.111  0.00  0.00    +0.000 C 
ATOM     20  C   UNL     1      11.427  27.119  17.239  0.00  0.00    +0.000 C 
ENDROOT
BRANCH   9  21
ATOM     21  O   UNL     1      11.515  36.450  14.840  0.00  0.00    +0.000 OA
ATOM     22  H   UNL     1      12.158  37.102  15.181  0.00  0.00    +0.000 HD
ENDBRANCH   9  21
TORSDOF 1
ENDMDL
MODEL 4
REMARK VINA RESULT:      -5.7     26.010     27.392
REMARK  Name = Testosterone.pdbqt.pdb
REMARK  1 active torsions:
REMARK  status: ('A' for Active; 'I' for Inactive)
REMARK    1  A    between atoms: C_9  and  O_21
REMARK                            x       y       z     vdW  Elec       q    Type
REMARK                         _______ _______ _______ _____ _____    ______ ____
ROOT
ATOM      1  O   UNL     1       3.492  62.855  15.383  0.00  0.00    +0.000 OA
ATOM      2  C   UNL     1      -1.445  63.633   9.584  0.00  0.00    +0.000 C 
ATOM      3  C   UNL     1      -2.611  62.568   9.312  0.00  0.00    +0.000 C 
ATOM      4  C   UNL     1      -0.894  63.848  10.937  0.00  0.00    +0.000 C 
ATOM      5  C   UNL     1      -1.086  62.945  12.124  0.00  0.00    +0.000 C 
ATOM      6  C   UNL     1      -0.562  63.263  13.542  0.00  0.00    +0.000 C 
ATOM      7  C   UNL     1      -2.593  61.657  10.459  0.00  0.00    +0.000 C 
ATOM      8  C   UNL     1      -1.906  61.832  11.791  0.00  0.00    +0.000 C 
ATOM      9  C   UNL     1      -2.169  61.870   8.004  0.00  0.00    +0.000 C 
ATOM     10  C   UNL     1      -0.557  63.562   8.461  0.00  0.00    +0.000 C 
ATOM     11  C   UNL     1       0.022  64.894  11.193  0.00  0.00    +0.000 C 
ATOM     12  C   UNL     1      -0.964  62.453   7.524  0.00  0.00    +0.000 C 
ATOM     13  C   UNL     1       0.661  64.377  13.609  0.00  0.00    +0.000 C 
ATOM     14  C   UNL     1       0.784  65.183  12.451  0.00  0.00    +0.000 C 
ATOM     15  C   UNL     1      -3.966  63.291   9.119  0.00  0.00    +0.000 C 
ATOM     16  C   UNL     1       0.065  62.043  14.152  0.00  0.00    +0.000 C 
ATOM     17  C   UNL     1      -1.722  63.811  14.419  0.00  0.00    +0.000 C 
ATOM     18  C   UNL     1       1.432  61.796  14.829  0.00  0.00    +0.000 C 
ATOM     19  C   UNL     1       1.763  64.039  14.246  0.00  0.00    +0.000 C 
ATOM     20  C   UNL     1       2.376  62.893  14.902  0.00  0.00    +0.000 C 
ENDROOT
BRANCH   9  21
ATOM     21  O   UNL     1      -3.078  61.323   7.117  0.00  0.00    +0.000 OA
ATOM     22  H   UNL     1      -2.979  60.352   7.060  0.00  0.00    +0.000 HD
ENDBRANCH   9  21
TORSDOF 1
ENDMDL
MODEL 5
REMARK VINA RESULT:      -5.6     23.949     26.118
REMARK  Name = Testosterone.pdbqt.pdb
REMARK  1 active torsions:
REMARK  status: ('A' for Active; 'I' for Inactive)
REMARK    1  A    between atoms: C_9  and  O_21
REMARK                            x       y       z     vdW  Elec       q    Type
REMARK                         _______ _______ _______ _____ _____    ______ ____
ROOT
ATOM      1  O   UNL     1      -2.512  14.114   9.618  0.00  0.00    +0.000 OA
ATOM      2  C   UNL     1      -9.586  16.262  11.610  0.00  0.00    +0.000 C 
ATOM      3  C   UNL     1     -10.222  15.875  13.028  0.00  0.00    +0.000 C 
ATOM      4  C   UNL     1      -8.126  16.395  11.428  0.00  0.00    +0.000 C 
ATOM      5  C   UNL     1      -7.068  15.906  12.378  0.00  0.00    +0.000 C 
ATOM      6  C   UNL     1      -5.555  16.151  12.184  0.00  0.00    +0.000 C 
ATOM      7  C   UNL     1      -9.136  15.271  13.802  0.00  0.00    +0.000 C 
ATOM      8  C   UNL     1      -7.652  15.300  13.525  0.00  0.00    +0.000 C 
ATOM      9  C   UNL     1     -11.323  14.849  12.666  0.00  0.00    +0.000 C 
ATOM     10  C   UNL     1     -10.364  15.586  10.614  0.00  0.00    +0.000 C 
ATOM     11  C   UNL     1      -7.583  16.884  10.218  0.00  0.00    +0.000 C 
ATOM     12  C   UNL     1     -11.387  14.682  11.255  0.00  0.00    +0.000 C 
ATOM     13  C   UNL     1      -5.093  16.518  10.637  0.00  0.00    +0.000 C 
ATOM     14  C   UNL     1      -6.146  16.962   9.800  0.00  0.00    +0.000 C 
ATOM     15  C   UNL     1     -10.837  17.127  13.701  0.00  0.00    +0.000 C 
ATOM     16  C   UNL     1      -4.783  14.897  12.473  0.00  0.00    +0.000 C 
ATOM     17  C   UNL     1      -5.095  17.329  13.086  0.00  0.00    +0.000 C 
ATOM     18  C   UNL     1      -3.704  14.124  11.680  0.00  0.00    +0.000 C 
ATOM     19  C   UNL     1      -4.138  15.791  10.095  0.00  0.00    +0.000 C 
ATOM     20  C   UNL     1      -3.326  14.616  10.370  0.00  0.00    +0.000 C 
ENDROOT
BRANCH   9  21
ATOM     21  O   UNL     1     -12.458  14.682  13.439  0.00  0.00    +0.000 OA
ATOM     22  H   UNL     1     -12.271  14.845  14.384  0.00  0.00    +0.000 HD
ENDBRANCH   9  21
TORSDOF 1
ENDMDL
MODEL 6
REMARK VINA RESULT:      -5.6     35.830     39.111
REMARK  Name = Testosterone.pdbqt.pdb
REMARK  1 active torsions:
REMARK  status: ('A' for Active; 'I' for Inactive)
REMARK    1  A    between atoms: C_9  and  O_21
REMARK                            x       y       z     vdW  Elec       q    Type
REMARK                         _______ _______ _______ _____ _____    ______ ____
ROOT
ATOM      1  O   UNL     1      18.383  36.623 -11.837  0.00  0.00    +0.000 OA
ATOM      2  C   UNL     1      18.497  42.302  -6.704  0.00  0.00    +0.000 C 
ATOM      3  C   UNL     1      18.638  42.023  -5.132  0.00  0.00    +0.000 C 
ATOM      4  C   UNL     1      19.044  41.366  -7.707  0.00  0.00    +0.000 C 
ATOM      5  C   UNL     1      19.492  39.954  -7.448  0.00  0.00    +0.000 C 
ATOM      6  C   UNL     1      20.141  39.046  -8.516  0.00  0.00    +0.000 C 
ATOM      7  C   UNL     1      18.918  40.592  -5.005  0.00  0.00    +0.000 C 
ATOM      8  C   UNL     1      19.345  39.616  -6.074  0.00  0.00    +0.000 C 
ATOM      9  C   UNL     1      17.246  42.399  -4.570  0.00  0.00    +0.000 C 
ATOM     10  C   UNL     1      17.198  42.873  -6.904  0.00  0.00    +0.000 C 
ATOM     11  C   UNL     1      19.052  41.694  -9.083  0.00  0.00    +0.000 C 
ATOM     12  C   UNL     1      16.413  42.883  -5.616  0.00  0.00    +0.000 C 
ATOM     13  C   UNL     1      19.861  39.491 -10.086  0.00  0.00    +0.000 C 
ATOM     14  C   UNL     1      19.433  40.832 -10.248  0.00  0.00    +0.000 C 
ATOM     15  C   UNL     1      19.739  42.925  -4.522  0.00  0.00    +0.000 C 
ATOM     16  C   UNL     1      19.556  37.665  -8.452  0.00  0.00    +0.000 C 
ATOM     17  C   UNL     1      21.682  39.026  -8.319  0.00  0.00    +0.000 C 
ATOM     18  C   UNL     1      18.948  36.734  -9.526  0.00  0.00    +0.000 C 
ATOM     19  C   UNL     1      19.365  38.583 -10.900  0.00  0.00    +0.000 C 
ATOM     20  C   UNL     1      18.850  37.222 -10.887  0.00  0.00    +0.000 C 
ENDROOT
BRANCH   9  21
ATOM     21  O   UNL     1      17.072  42.854  -3.276  0.00  0.00    +0.000 OA
ATOM     22  H   UNL     1      16.125  42.905  -3.041  0.00  0.00    +0.000 HD
ENDBRANCH   9  21
TORSDOF 1
ENDMDL
MODEL 7
REMARK VINA RESULT:      -5.5     28.860     30.823
REMARK  Name = Testosterone.pdbqt.pdb
REMARK  1 active torsions:
REMARK  status: ('A' for Active; 'I' for Inactive)
REMARK    1  A    between atoms: C_9  and  O_21
REMARK                            x       y       z     vdW  Elec       q    Type
REMARK                         _______ _______ _______ _____ _____    ______ ____
ROOT
ATOM      1  O   UNL     1      11.274  48.621  13.739  0.00  0.00    +0.000 OA
ATOM      2  C   UNL     1      17.003  46.029   9.372  0.00  0.00    +0.000 C 
ATOM      3  C   UNL     1      17.003  44.545   8.765  0.00  0.00    +0.000 C 
ATOM      4  C   UNL     1      15.744  46.736   9.682  0.00  0.00    +0.000 C 
ATOM      5  C   UNL     1      14.380  46.111   9.784  0.00  0.00    +0.000 C 
ATOM      6  C   UNL     1      13.081  46.912  10.023  0.00  0.00    +0.000 C 
ATOM      7  C   UNL     1      15.681  43.992   9.063  0.00  0.00    +0.000 C 
ATOM      8  C   UNL     1      14.436  44.716   9.516  0.00  0.00    +0.000 C 
ATOM      9  C   UNL     1      18.129  43.831   9.552  0.00  0.00    +0.000 C 
ATOM     10  C   UNL     1      18.097  46.093  10.295  0.00  0.00    +0.000 C 
ATOM     11  C   UNL     1      15.748  48.095  10.071  0.00  0.00    +0.000 C 
ATOM     12  C   UNL     1      18.750  44.742  10.448  0.00  0.00    +0.000 C 
ATOM     13  C   UNL     1      13.291  48.418  10.678  0.00  0.00    +0.000 C 
ATOM     14  C   UNL     1      14.604  48.935  10.552  0.00  0.00    +0.000 C 
ATOM     15  C   UNL     1      17.330  44.584   7.252  0.00  0.00    +0.000 C 
ATOM     16  C   UNL     1      12.223  46.222  11.043  0.00  0.00    +0.000 C 
ATOM     17  C   UNL     1      12.329  47.104   8.677  0.00  0.00    +0.000 C 
ATOM     18  C   UNL     1      11.534  46.713  12.337  0.00  0.00    +0.000 C 
ATOM     19  C   UNL     1      12.615  48.710  11.770  0.00  0.00    +0.000 C 
ATOM     20  C   UNL     1      11.729  48.090  12.744  0.00  0.00    +0.000 C 
ENDROOT
BRANCH   9  21
ATOM     21  O   UNL     1      18.851  42.781   9.014  0.00  0.00    +0.000 OA
ATOM     22  H   UNL     1      19.573  43.103   8.441  0.00  0.00    +0.000 HD
ENDBRANCH   9  21
TORSDOF 1
ENDMDL
MODEL 8
REMARK VINA RESULT:      -5.5     36.553     39.270
REMARK  Name = Testosterone.pdbqt.pdb
REMARK  1 active torsions:
REMARK  status: ('A' for Active; 'I' for Inactive)
REMARK    1  A    between atoms: C_9  and  O_21
REMARK                            x       y       z     vdW  Elec       q    Type
REMARK                         _______ _______ _______ _____ _____    ______ ____
ROOT
ATOM      1  O   UNL     1      24.736  46.002  -1.804  0.00  0.00    +0.000 OA
ATOM      2  C   UNL     1      18.800  42.094  -4.651  0.00  0.00    +0.000 C 
ATOM      3  C   UNL     1      18.269  42.327  -6.145  0.00  0.00    +0.000 C 
ATOM      4  C   UNL     1      20.207  42.350  -4.283  0.00  0.00    +0.000 C 
ATOM      5  C   UNL     1      21.209  43.121  -5.097  0.00  0.00    +0.000 C 
ATOM      6  C   UNL     1      22.695  43.283  -4.708  0.00  0.00    +0.000 C 
ATOM      7  C   UNL     1      19.245  43.213  -6.782  0.00  0.00    +0.000 C 
ATOM      8  C   UNL     1      20.635  43.574  -6.317  0.00  0.00    +0.000 C 
ATOM      9  C   UNL     1      16.898  43.015  -5.941  0.00  0.00    +0.000 C 
ATOM     10  C   UNL     1      17.751  42.519  -3.773  0.00  0.00    +0.000 C 
ATOM     11  C   UNL     1      20.703  41.997  -3.006  0.00  0.00    +0.000 C 
ATOM     12  C   UNL     1      16.613  43.131  -4.553  0.00  0.00    +0.000 C 
ATOM     13  C   UNL     1      23.038  43.020  -3.110  0.00  0.00    +0.000 C 
ATOM     14  C   UNL     1      22.043  42.296  -2.408  0.00  0.00    +0.000 C 
ATOM     15  C   UNL     1      18.099  40.970  -6.873  0.00  0.00    +0.000 C 
ATOM     16  C   UNL     1      23.136  44.703  -4.914  0.00  0.00    +0.000 C 
ATOM     17  C   UNL     1      23.563  42.288  -5.527  0.00  0.00    +0.000 C 
ATOM     18  C   UNL     1      23.861  45.717  -4.001  0.00  0.00    +0.000 C 
ATOM     19  C   UNL     1      23.689  43.963  -2.461  0.00  0.00    +0.000 C 
ATOM     20  C   UNL     1      24.187  45.318  -2.646  0.00  0.00    +0.000 C 
ENDROOT
BRANCH   9  21
ATOM     21  O   UNL     1      15.867  42.891  -6.854  0.00  0.00    +0.000 OA
ATOM     22  H   UNL     1      15.611  43.759  -7.221  0.00  0.00    +0.000 HD
ENDBRANCH   9  21
TORSDOF 1
ENDMDL
MODEL 9
REMARK VINA RESULT:      -5.4     25.561     27.252
REMARK  Name = Testosterone.pdbqt.pdb
REMARK  1 active torsions:
REMARK  status: ('A' for Active; 'I' for Inactive)
REMARK    1  A    between atoms: C_9  and  O_21
REMARK                            x       y       z     vdW  Elec       q    Type
REMARK                         _______ _______ _______ _____ _____    ______ ____
ROOT
ATOM      1  O   UNL     1      15.354  39.864  18.625  0.00  0.00    +0.000 OA
ATOM      2  C   UNL     1       9.900  35.276  15.829  0.00  0.00    +0.000 C 
ATOM      3  C   UNL     1       8.742  34.671  16.757  0.00  0.00    +0.000 C 
ATOM      4  C   UNL     1      10.564  36.554  16.157  0.00  0.00    +0.000 C 
ATOM      5  C   UNL     1      10.502  37.271  17.477  0.00  0.00    +0.000 C 
ATOM      6  C   UNL     1      11.142  38.652  17.739  0.00  0.00    +0.000 C 
ATOM      7  C   UNL     1       8.884  35.333  18.055  0.00  0.00    +0.000 C 
ATOM      8  C   UNL     1       9.683  36.566  18.402  0.00  0.00    +0.000 C 
ATOM      9  C   UNL     1       9.082  33.163  16.828  0.00  0.00    +0.000 C 
ATOM     10  C   UNL     1      10.685  34.165  15.380  0.00  0.00    +0.000 C 
ATOM     11  C   UNL     1      11.473  37.155  15.256  0.00  0.00    +0.000 C 
ATOM     12  C   UNL     1      10.224  32.884  16.029  0.00  0.00    +0.000 C 
ATOM     13  C   UNL     1      12.338  39.087  16.680  0.00  0.00    +0.000 C 
ATOM     14  C   UNL     1      12.338  38.361  15.464  0.00  0.00    +0.000 C 
ATOM     15  C   UNL     1       7.356  34.892  16.100  0.00  0.00    +0.000 C 
ATOM     16  C   UNL     1      11.852  38.655  19.062  0.00  0.00    +0.000 C 
ATOM     17  C   UNL     1      10.052  39.756  17.671  0.00  0.00    +0.000 C 
ATOM     18  C   UNL     1      13.280  39.069  19.484  0.00  0.00    +0.000 C 
ATOM     19  C   UNL     1      13.501  39.446  17.184  0.00  0.00    +0.000 C 
ATOM     20  C   UNL     1      14.199  39.523  18.459  0.00  0.00    +0.000 C 
ENDROOT
BRANCH   9  21
ATOM     21  O   UNL     1       8.111  32.197  17.016  0.00  0.00    +0.000 OA
ATOM     22  H   UNL     1       7.354  32.331  16.412  0.00  0.00    +0.000 HD
ENDBRANCH   9  21
TORSDOF 1
ENDMDL
