MODEL 1
REMARK VINA RESULT:      -3.5      0.000      0.000
REMARK  Name = Tetrachloroethylene.pdbqt.pdb
REMARK  0 active torsions:
REMARK  status: ('A' for Active; 'I' for Inactive)
REMARK                            x       y       z     vdW  Elec       q    Type
REMARK                         _______ _______ _______ _____ _____    ______ ____
ROOT
ATOM      1 CL   UNL     1       4.589  30.558  16.632  0.00  0.00    +0.000 Cl
ATOM      2 CL   UNL     1       1.886  29.787  15.811  0.00  0.00    +0.000 Cl
ATOM      3 CL   UNL     1       3.106  27.398  14.035  0.00  0.00    +0.000 Cl
ATOM      4 CL   UNL     1       5.809  28.168  14.856  0.00  0.00    +0.000 Cl
ATOM      5  C   UNL     1       3.593  29.477  15.704  0.00  0.00    +0.000 C 
ATOM      6  C   UNL     1       4.102  28.478  14.962  0.00  0.00    +0.000 C 
ENDROOT
TORSDOF 0
ENDMDL
MODEL 2
REMARK VINA RESULT:      -3.5      0.149      3.637
REMARK  Name = Tetrachloroethylene.pdbqt.pdb
REMARK  0 active torsions:
REMARK  status: ('A' for Active; 'I' for Inactive)
REMARK                            x       y       z     vdW  Elec       q    Type
REMARK                         _______ _______ _______ _____ _____    ______ ____
ROOT
ATOM      1 CL   UNL     1       3.073  27.475  13.935  0.00  0.00    +0.000 Cl
ATOM      2 CL   UNL     1       5.727  28.246  14.901  0.00  0.00    +0.000 Cl
ATOM      3 CL   UNL     1       4.395  30.529  16.737  0.00  0.00    +0.000 Cl
ATOM      4 CL   UNL     1       1.741  29.758  15.770  0.00  0.00    +0.000 Cl
ATOM      5  C   UNL     1       4.012  28.525  14.953  0.00  0.00    +0.000 C 
ATOM      6  C   UNL     1       3.456  29.479  15.719  0.00  0.00    +0.000 C 
ENDROOT
TORSDOF 0
ENDMDL
MODEL 3
REMARK VINA RESULT:      -3.5      1.211      2.579
REMARK  Name = Tetrachloroethylene.pdbqt.pdb
REMARK  0 active torsions:
REMARK  status: ('A' for Active; 'I' for Inactive)
REMARK                            x       y       z     vdW  Elec       q    Type
REMARK                         _______ _______ _______ _____ _____    ______ ____
ROOT
ATOM      1 CL   UNL     1       0.792  28.794  15.248  0.00  0.00    +0.000 Cl
ATOM      2 CL   UNL     1       2.459  30.894  16.422  0.00  0.00    +0.000 Cl
ATOM      3 CL   UNL     1       5.104  29.324  15.476  0.00  0.00    +0.000 Cl
ATOM      4 CL   UNL     1       3.436  27.223  14.301  0.00  0.00    +0.000 Cl
ATOM      5  C   UNL     1       2.395  29.387  15.560  0.00  0.00    +0.000 C 
ATOM      6  C   UNL     1       3.500  28.731  15.164  0.00  0.00    +0.000 C 
ENDROOT
TORSDOF 0
ENDMDL
MODEL 4
REMARK VINA RESULT:      -3.5      2.314      3.683
REMARK  Name = Tetrachloroethylene.pdbqt.pdb
REMARK  0 active torsions:
REMARK  status: ('A' for Active; 'I' for Inactive)
REMARK                            x       y       z     vdW  Elec       q    Type
REMARK                         _______ _______ _______ _____ _____    ______ ____
ROOT
ATOM      1 CL   UNL     1      -0.226  30.912  17.002  0.00  0.00    +0.000 Cl
ATOM      2 CL   UNL     1       2.108  32.678  17.090  0.00  0.00    +0.000 Cl
ATOM      3 CL   UNL     1       3.779  30.557  15.340  0.00  0.00    +0.000 Cl
ATOM      4 CL   UNL     1       1.445  28.791  15.252  0.00  0.00    +0.000 Cl
ATOM      5  C   UNL     1       1.427  31.178  16.536  0.00  0.00    +0.000 C 
ATOM      6  C   UNL     1       2.125  30.292  15.805  0.00  0.00    +0.000 C 
ENDROOT
TORSDOF 0
ENDMDL
MODEL 5
REMARK VINA RESULT:      -3.5      2.333      2.886
REMARK  Name = Tetrachloroethylene.pdbqt.pdb
REMARK  0 active torsions:
REMARK  status: ('A' for Active; 'I' for Inactive)
REMARK                            x       y       z     vdW  Elec       q    Type
REMARK                         _______ _______ _______ _____ _____    ______ ____
ROOT
ATOM      1 CL   UNL     1       2.174  32.524  17.135  0.00  0.00    +0.000 Cl
ATOM      2 CL   UNL     1      -0.332  31.032  16.874  0.00  0.00    +0.000 Cl
ATOM      3 CL   UNL     1       1.185  28.786  15.139  0.00  0.00    +0.000 Cl
ATOM      4 CL   UNL     1       3.691  30.278  15.400  0.00  0.00    +0.000 Cl
ATOM      5  C   UNL     1       1.363  31.124  16.499  0.00  0.00    +0.000 C 
ATOM      6  C   UNL     1       1.996  30.186  15.775  0.00  0.00    +0.000 C 
ENDROOT
TORSDOF 0
ENDMDL
MODEL 6
REMARK VINA RESULT:      -3.5      0.597      2.577
REMARK  Name = Tetrachloroethylene.pdbqt.pdb
REMARK  0 active torsions:
REMARK  status: ('A' for Active; 'I' for Inactive)
REMARK                            x       y       z     vdW  Elec       q    Type
REMARK                         _______ _______ _______ _____ _____    ______ ____
ROOT
ATOM      1 CL   UNL     1       4.935  30.575  16.490  0.00  0.00    +0.000 Cl
ATOM      2 CL   UNL     1       6.177  28.373  15.013  0.00  0.00    +0.000 Cl
ATOM      3 CL   UNL     1       3.263  27.271  14.206  0.00  0.00    +0.000 Cl
ATOM      4 CL   UNL     1       2.021  29.473  15.683  0.00  0.00    +0.000 Cl
ATOM      5  C   UNL     1       4.707  29.153  15.517  0.00  0.00    +0.000 C 
ATOM      6  C   UNL     1       3.490  28.693  15.179  0.00  0.00    +0.000 C 
ENDROOT
TORSDOF 0
ENDMDL
MODEL 7
REMARK VINA RESULT:      -3.4      0.809      2.725
REMARK  Name = Tetrachloroethylene.pdbqt.pdb
REMARK  0 active torsions:
REMARK  status: ('A' for Active; 'I' for Inactive)
REMARK                            x       y       z     vdW  Elec       q    Type
REMARK                         _______ _______ _______ _____ _____    ______ ____
ROOT
ATOM      1 CL   UNL     1       6.480  28.021  14.934  0.00  0.00    +0.000 Cl
ATOM      2 CL   UNL     1       5.553  30.500  16.186  0.00  0.00    +0.000 Cl
ATOM      3 CL   UNL     1       2.507  29.689  15.538  0.00  0.00    +0.000 Cl
ATOM      4 CL   UNL     1       3.434  27.210  14.286  0.00  0.00    +0.000 Cl
ATOM      5  C   UNL     1       5.130  29.024  15.371  0.00  0.00    +0.000 C 
ATOM      6  C   UNL     1       3.857  28.686  15.101  0.00  0.00    +0.000 C 
ENDROOT
TORSDOF 0
ENDMDL
MODEL 8
REMARK VINA RESULT:      -3.4     17.999     19.486
REMARK  Name = Tetrachloroethylene.pdbqt.pdb
REMARK  0 active torsions:
REMARK  status: ('A' for Active; 'I' for Inactive)
REMARK                            x       y       z     vdW  Elec       q    Type
REMARK                         _______ _______ _______ _____ _____    ______ ____
ROOT
ATOM      1 CL   UNL     1     -12.684  28.479  19.924  0.00  0.00    +0.000 Cl
ATOM      2 CL   UNL     1     -14.219  28.429  22.417  0.00  0.00    +0.000 Cl
ATOM      3 CL   UNL     1     -16.940  28.842  20.749  0.00  0.00    +0.000 Cl
ATOM      4 CL   UNL     1     -15.405  28.891  18.257  0.00  0.00    +0.000 Cl
ATOM      5  C   UNL     1     -14.244  28.574  20.685  0.00  0.00    +0.000 C 
ATOM      6  C   UNL     1     -15.380  28.746  19.989  0.00  0.00    +0.000 C 
ENDROOT
TORSDOF 0
ENDMDL
MODEL 9
REMARK VINA RESULT:      -3.2     19.336     20.265
REMARK  Name = Tetrachloroethylene.pdbqt.pdb
REMARK  0 active torsions:
REMARK  status: ('A' for Active; 'I' for Inactive)
REMARK                            x       y       z     vdW  Elec       q    Type
REMARK                         _______ _______ _______ _____ _____    ______ ____
ROOT
ATOM      1 CL   UNL     1      -1.249  46.512   9.410  0.00  0.00    +0.000 Cl
ATOM      2 CL   UNL     1      -1.116  45.145   6.824  0.00  0.00    +0.000 Cl
ATOM      3 CL   UNL     1      -4.030  46.286   6.072  0.00  0.00    +0.000 Cl
ATOM      4 CL   UNL     1      -4.163  47.652   8.658  0.00  0.00    +0.000 Cl
ATOM      5  C   UNL     1      -2.031  46.161   7.898  0.00  0.00    +0.000 C 
ATOM      6  C   UNL     1      -3.248  46.637   7.584  0.00  0.00    +0.000 C 
ENDROOT
TORSDOF 0
ENDMDL
