MODEL 1
REMARK VINA RESULT:      -8.8      0.000      0.000
REMARK  Name = Thalidomide.pdbqt.pdb
REMARK  1 active torsions:
REMARK  status: ('A' for Active; 'I' for Inactive)
REMARK    1  A    between atoms: N_3  and  C_12
REMARK                            x       y       z     vdW  Elec       q    Type
REMARK                         _______ _______ _______ _____ _____    ______ ____
ROOT
ATOM      1  O   UNL     1       2.227  28.558  14.494  0.00  0.00    +0.000 OA
ATOM      2  O   UNL     1       4.280  32.272  16.270  0.00  0.00    +0.000 OA
ATOM      3  N   UNL     1       2.811  30.558  15.594  0.00  0.00    +0.000 N 
ATOM      4  C   UNL     1       3.016  29.329  15.009  0.00  0.00    +0.000 C 
ATOM      5  C   UNL     1       4.013  31.128  15.957  0.00  0.00    +0.000 C 
ATOM      6  C   UNL     1       4.441  29.039  15.118  0.00  0.00    +0.000 A 
ATOM      7  C   UNL     1       5.045  30.127  15.714  0.00  0.00    +0.000 A 
ATOM      8  C   UNL     1       5.156  27.931  14.714  0.00  0.00    +0.000 A 
ATOM      9  C   UNL     1       6.405  30.185  15.932  0.00  0.00    +0.000 A 
ATOM     10  C   UNL     1       6.533  27.959  14.939  0.00  0.00    +0.000 A 
ATOM     11  C   UNL     1       7.150  29.070  15.539  0.00  0.00    +0.000 A 
ENDROOT
BRANCH   3  12
ATOM     12  C   UNL     1       1.595  31.188  15.686  0.00  0.00    +0.000 C 
ATOM     13  C   UNL     1       0.654  30.908  16.701  0.00  0.00    +0.000 C 
ATOM     14  C   UNL     1      -0.729  31.484  16.687  0.00  0.00    +0.000 C 
ATOM     15  C   UNL     1      -1.167  32.396  15.672  0.00  0.00    +0.000 C 
ATOM     16  O   UNL     1      -2.266  32.923  15.703  0.00  0.00    +0.000 OA
ATOM     17  N   UNL     1      -0.192  32.645  14.709  0.00  0.00    +0.000 N 
ATOM     18  C   UNL     1       1.163  32.281  14.713  0.00  0.00    +0.000 C 
ATOM     19  H   UNL     1      -0.424  33.384  14.062  0.00  0.00    +0.000 HD
ATOM     20  O   UNL     1       1.971  32.923  14.049  0.00  0.00    +0.000 OA
ENDBRANCH   3  12
TORSDOF 1
ENDMDL
MODEL 2
REMARK VINA RESULT:      -8.2      2.654      3.757
REMARK  Name = Thalidomide.pdbqt.pdb
REMARK  1 active torsions:
REMARK  status: ('A' for Active; 'I' for Inactive)
REMARK    1  A    between atoms: N_3  and  C_12
REMARK                            x       y       z     vdW  Elec       q    Type
REMARK                         _______ _______ _______ _____ _____    ______ ____
ROOT
ATOM      1  O   UNL     1      -0.554  31.839  14.304  0.00  0.00    +0.000 OA
ATOM      2  O   UNL     1       3.264  33.530  16.236  0.00  0.00    +0.000 OA
ATOM      3  N   UNL     1       1.100  33.107  15.403  0.00  0.00    +0.000 N 
ATOM      4  C   UNL     1       0.494  31.975  14.907  0.00  0.00    +0.000 C 
ATOM      5  C   UNL     1       2.337  32.804  15.929  0.00  0.00    +0.000 C 
ATOM      6  C   UNL     1       1.354  30.849  15.253  0.00  0.00    +0.000 A 
ATOM      7  C   UNL     1       2.467  31.352  15.894  0.00  0.00    +0.000 A 
ATOM      8  C   UNL     1       1.191  29.500  15.012  0.00  0.00    +0.000 A 
ATOM      9  C   UNL     1       3.497  30.542  16.323  0.00  0.00    +0.000 A 
ATOM     10  C   UNL     1       2.214  28.658  15.451  0.00  0.00    +0.000 A 
ATOM     11  C   UNL     1       3.352  29.171  16.098  0.00  0.00    +0.000 A 
ENDROOT
BRANCH   3  12
ATOM     12  C   UNL     1       0.603  34.380  15.275  0.00  0.00    +0.000 C 
ATOM     13  C   UNL     1      -0.405  34.905  16.116  0.00  0.00    +0.000 C 
ATOM     14  C   UNL     1      -1.048  36.232  15.855  0.00  0.00    +0.000 C 
ATOM     15  C   UNL     1      -0.647  37.076  14.769  0.00  0.00    +0.000 C 
ATOM     16  O   UNL     1      -1.119  38.189  14.604  0.00  0.00    +0.000 OA
ATOM     17  N   UNL     1       0.359  36.513  13.987  0.00  0.00    +0.000 N 
ATOM     18  C   UNL     1       1.122  35.362  14.230  0.00  0.00    +0.000 C 
ATOM     19  H   UNL     1       0.753  37.140  13.301  0.00  0.00    +0.000 HD
ATOM     20  O   UNL     1       2.226  35.239  13.708  0.00  0.00    +0.000 OA
ENDBRANCH   3  12
TORSDOF 1
ENDMDL
MODEL 3
REMARK VINA RESULT:      -8.0      2.216      6.165
REMARK  Name = Thalidomide.pdbqt.pdb
REMARK  1 active torsions:
REMARK  status: ('A' for Active; 'I' for Inactive)
REMARK    1  A    between atoms: N_3  and  C_12
REMARK                            x       y       z     vdW  Elec       q    Type
REMARK                         _______ _______ _______ _____ _____    ______ ____
ROOT
ATOM      1  O   UNL     1       2.658  28.450  16.157  0.00  0.00    +0.000 OA
ATOM      2  O   UNL     1       4.567  32.534  15.240  0.00  0.00    +0.000 OA
ATOM      3  N   UNL     1       3.993  30.258  15.451  0.00  0.00    +0.000 N 
ATOM      4  C   UNL     1       2.851  29.618  15.874  0.00  0.00    +0.000 C 
ATOM      5  C   UNL     1       3.777  31.615  15.344  0.00  0.00    +0.000 C 
ATOM      6  C   UNL     1       1.795  30.623  15.922  0.00  0.00    +0.000 A 
ATOM      7  C   UNL     1       2.355  31.836  15.579  0.00  0.00    +0.000 A 
ATOM      8  C   UNL     1       0.463  30.496  16.256  0.00  0.00    +0.000 A 
ATOM      9  C   UNL     1       1.624  33.005  15.563  0.00  0.00    +0.000 A 
ATOM     10  C   UNL     1      -0.303  31.663  16.231  0.00  0.00    +0.000 A 
ATOM     11  C   UNL     1       0.270  32.901  15.889  0.00  0.00    +0.000 A 
ENDROOT
BRANCH   3  12
ATOM     12  C   UNL     1       5.214  29.652  15.284  0.00  0.00    +0.000 C 
ATOM     13  C   UNL     1       6.301  29.848  16.163  0.00  0.00    +0.000 C 
ATOM     14  C   UNL     1       7.668  29.311  15.872  0.00  0.00    +0.000 C 
ATOM     15  C   UNL     1       7.948  28.521  14.710  0.00  0.00    +0.000 C 
ATOM     16  O   UNL     1       9.043  28.020  14.513  0.00  0.00    +0.000 OA
ATOM     17  N   UNL     1       6.835  28.348  13.890  0.00  0.00    +0.000 N 
ATOM     18  C   UNL     1       5.495  28.677  14.145  0.00  0.00    +0.000 C 
ATOM     19  H   UNL     1       6.968  27.686  13.140  0.00  0.00    +0.000 HD
ATOM     20  O   UNL     1       4.597  28.088  13.551  0.00  0.00    +0.000 OA
ENDBRANCH   3  12
TORSDOF 1
ENDMDL
MODEL 4
REMARK VINA RESULT:      -7.2      3.946      7.319
REMARK  Name = Thalidomide.pdbqt.pdb
REMARK  1 active torsions:
REMARK  status: ('A' for Active; 'I' for Inactive)
REMARK    1  A    between atoms: N_3  and  C_12
REMARK                            x       y       z     vdW  Elec       q    Type
REMARK                         _______ _______ _______ _____ _____    ______ ____
ROOT
ATOM      1  O   UNL     1       7.887  28.051  14.473  0.00  0.00    +0.000 OA
ATOM      2  O   UNL     1       5.866  31.646  16.513  0.00  0.00    +0.000 OA
ATOM      3  N   UNL     1       7.285  30.137  15.390  0.00  0.00    +0.000 N 
ATOM      4  C   UNL     1       7.086  28.879  14.867  0.00  0.00    +0.000 C 
ATOM      5  C   UNL     1       6.089  30.686  15.800  0.00  0.00    +0.000 C 
ATOM      6  C   UNL     1       5.645  28.660  14.828  0.00  0.00    +0.000 A 
ATOM      7  C   UNL     1       5.037  29.769  15.378  0.00  0.00    +0.000 A 
ATOM      8  C   UNL     1       4.923  27.577  14.371  0.00  0.00    +0.000 A 
ATOM      9  C   UNL     1       3.669  29.863  15.521  0.00  0.00    +0.000 A 
ATOM     10  C   UNL     1       3.534  27.655  14.490  0.00  0.00    +0.000 A 
ATOM     11  C   UNL     1       2.915  28.782  15.058  0.00  0.00    +0.000 A 
ENDROOT
BRANCH   3  12
ATOM     12  C   UNL     1       8.514  30.713  15.596  0.00  0.00    +0.000 C 
ATOM     13  C   UNL     1       8.955  31.863  14.904  0.00  0.00    +0.000 C 
ATOM     14  C   UNL     1      10.357  32.375  15.022  0.00  0.00    +0.000 C 
ATOM     15  C   UNL     1      11.325  31.763  15.883  0.00  0.00    +0.000 C 
ATOM     16  O   UNL     1      12.443  32.227  16.036  0.00  0.00    +0.000 OA
ATOM     17  N   UNL     1      10.828  30.646  16.550  0.00  0.00    +0.000 N 
ATOM     18  C   UNL     1       9.507  30.180  16.624  0.00  0.00    +0.000 C 
ATOM     19  H   UNL     1      11.442  30.279  17.262  0.00  0.00    +0.000 HD
ATOM     20  O   UNL     1       9.158  29.477  17.568  0.00  0.00    +0.000 OA
ENDBRANCH   3  12
TORSDOF 1
ENDMDL
MODEL 5
REMARK VINA RESULT:      -7.1      2.868      6.305
REMARK  Name = Thalidomide.pdbqt.pdb
REMARK  1 active torsions:
REMARK  status: ('A' for Active; 'I' for Inactive)
REMARK    1  A    between atoms: N_3  and  C_12
REMARK                            x       y       z     vdW  Elec       q    Type
REMARK                         _______ _______ _______ _____ _____    ______ ____
ROOT
ATOM      1  O   UNL     1       4.279  30.185  16.879  0.00  0.00    +0.000 OA
ATOM      2  O   UNL     1       3.970  34.155  14.576  0.00  0.00    +0.000 OA
ATOM      3  N   UNL     1       4.626  32.152  15.630  0.00  0.00    +0.000 N 
ATOM      4  C   UNL     1       3.916  31.104  16.169  0.00  0.00    +0.000 C 
ATOM      5  C   UNL     1       3.783  33.019  14.968  0.00  0.00    +0.000 C 
ATOM      6  C   UNL     1       2.538  31.246  15.712  0.00  0.00    +0.000 A 
ATOM      7  C   UNL     1       2.462  32.402  14.964  0.00  0.00    +0.000 A 
ATOM      8  C   UNL     1       1.438  30.448  15.946  0.00  0.00    +0.000 A 
ATOM      9  C   UNL     1       1.278  32.845  14.412  0.00  0.00    +0.000 A 
ATOM     10  C   UNL     1       0.230  30.866  15.384  0.00  0.00    +0.000 A 
ATOM     11  C   UNL     1       0.151  32.049  14.627  0.00  0.00    +0.000 A 
ENDROOT
BRANCH   3  12
ATOM     12  C   UNL     1       5.965  32.376  15.833  0.00  0.00    +0.000 C 
ATOM     13  C   UNL     1       6.459  33.376  16.701  0.00  0.00    +0.000 C 
ATOM     14  C   UNL     1       7.917  33.712  16.780  0.00  0.00    +0.000 C 
ATOM     15  C   UNL     1       8.907  33.007  16.021  0.00  0.00    +0.000 C 
ATOM     16  O   UNL     1      10.099  33.231  16.144  0.00  0.00    +0.000 OA
ATOM     17  N   UNL     1       8.362  32.025  15.198  0.00  0.00    +0.000 N 
ATOM     18  C   UNL     1       7.048  31.536  15.163  0.00  0.00    +0.000 C 
ATOM     19  H   UNL     1       9.043  31.425  14.757  0.00  0.00    +0.000 HD
ATOM     20  O   UNL     1       6.824  30.412  14.723  0.00  0.00    +0.000 OA
ENDBRANCH   3  12
TORSDOF 1
ENDMDL
MODEL 6
REMARK VINA RESULT:      -7.0     19.604     20.526
REMARK  Name = Thalidomide.pdbqt.pdb
REMARK  1 active torsions:
REMARK  status: ('A' for Active; 'I' for Inactive)
REMARK    1  A    between atoms: N_3  and  C_12
REMARK                            x       y       z     vdW  Elec       q    Type
REMARK                         _______ _______ _______ _____ _____    ______ ____
ROOT
ATOM      1  O   UNL     1     -14.490  30.911  25.406  0.00  0.00    +0.000 OA
ATOM      2  O   UNL     1     -15.594  33.705  21.921  0.00  0.00    +0.000 OA
ATOM      3  N   UNL     1     -15.416  31.989  23.526  0.00  0.00    +0.000 N 
ATOM      4  C   UNL     1     -14.716  31.881  24.706  0.00  0.00    +0.000 C 
ATOM      5  C   UNL     1     -15.330  33.270  23.026  0.00  0.00    +0.000 C 
ATOM      6  C   UNL     1     -14.252  33.221  25.046  0.00  0.00    +0.000 A 
ATOM      7  C   UNL     1     -14.644  34.071  24.033  0.00  0.00    +0.000 A 
ATOM      8  C   UNL     1     -13.532  33.662  26.137  0.00  0.00    +0.000 A 
ATOM      9  C   UNL     1     -14.329  35.413  24.035  0.00  0.00    +0.000 A 
ATOM     10  C   UNL     1     -13.214  35.021  26.170  0.00  0.00    +0.000 A 
ATOM     11  C   UNL     1     -13.607  35.885  25.134  0.00  0.00    +0.000 A 
ENDROOT
BRANCH   3  12
ATOM     12  C   UNL     1     -16.009  30.938  22.870  0.00  0.00    +0.000 C 
ATOM     13  C   UNL     1     -15.338  30.151  21.907  0.00  0.00    +0.000 C 
ATOM     14  C   UNL     1     -16.050  29.121  21.085  0.00  0.00    +0.000 C 
ATOM     15  C   UNL     1     -17.442  28.831  21.260  0.00  0.00    +0.000 C 
ATOM     16  O   UNL     1     -18.002  27.940  20.644  0.00  0.00    +0.000 OA
ATOM     17  N   UNL     1     -18.044  29.626  22.232  0.00  0.00    +0.000 N 
ATOM     18  C   UNL     1     -17.443  30.501  23.150  0.00  0.00    +0.000 C 
ATOM     19  H   UNL     1     -18.986  29.352  22.471  0.00  0.00    +0.000 HD
ATOM     20  O   UNL     1     -18.020  30.782  24.196  0.00  0.00    +0.000 OA
ENDBRANCH   3  12
TORSDOF 1
ENDMDL
MODEL 7
REMARK VINA RESULT:      -6.5     11.472     13.287
REMARK  Name = Thalidomide.pdbqt.pdb
REMARK  1 active torsions:
REMARK  status: ('A' for Active; 'I' for Inactive)
REMARK    1  A    between atoms: N_3  and  C_12
REMARK                            x       y       z     vdW  Elec       q    Type
REMARK                         _______ _______ _______ _____ _____    ______ ____
ROOT
ATOM      1  O   UNL     1      -0.363  41.533  14.039  0.00  0.00    +0.000 OA
ATOM      2  O   UNL     1      -0.966  42.688  18.451  0.00  0.00    +0.000 OA
ATOM      3  N   UNL     1      -0.260  42.422  16.218  0.00  0.00    +0.000 N 
ATOM      4  C   UNL     1      -0.838  41.826  15.121  0.00  0.00    +0.000 C 
ATOM      5  C   UNL     1      -1.151  42.470  17.269  0.00  0.00    +0.000 C 
ATOM      6  C   UNL     1      -2.237  41.587  15.456  0.00  0.00    +0.000 A 
ATOM      7  C   UNL     1      -2.432  41.998  16.758  0.00  0.00    +0.000 A 
ATOM      8  C   UNL     1      -3.251  41.039  14.698  0.00  0.00    +0.000 A 
ATOM      9  C   UNL     1      -3.650  41.875  17.393  0.00  0.00    +0.000 A 
ATOM     10  C   UNL     1      -4.498  40.919  15.314  0.00  0.00    +0.000 A 
ATOM     11  C   UNL     1      -4.695  41.330  16.644  0.00  0.00    +0.000 A 
ENDROOT
BRANCH   3  12
ATOM     12  C   UNL     1       1.057  42.799  16.301  0.00  0.00    +0.000 C 
ATOM     13  C   UNL     1       1.503  44.114  16.044  0.00  0.00    +0.000 C 
ATOM     14  C   UNL     1       2.958  44.463  15.978  0.00  0.00    +0.000 C 
ATOM     15  C   UNL     1       3.988  43.498  16.223  0.00  0.00    +0.000 C 
ATOM     16  O   UNL     1       5.170  43.800  16.243  0.00  0.00    +0.000 OA
ATOM     17  N   UNL     1       3.488  42.225  16.486  0.00  0.00    +0.000 N 
ATOM     18  C   UNL     1       2.162  41.832  16.717  0.00  0.00    +0.000 C 
ATOM     19  H   UNL     1       4.181  41.560  16.795  0.00  0.00    +0.000 HD
ATOM     20  O   UNL     1       1.929  40.807  17.351  0.00  0.00    +0.000 OA
ENDBRANCH   3  12
TORSDOF 1
ENDMDL
MODEL 8
REMARK VINA RESULT:      -6.5      4.703      7.643
REMARK  Name = Thalidomide.pdbqt.pdb
REMARK  1 active torsions:
REMARK  status: ('A' for Active; 'I' for Inactive)
REMARK    1  A    between atoms: N_3  and  C_12
REMARK                            x       y       z     vdW  Elec       q    Type
REMARK                         _______ _______ _______ _____ _____    ______ ____
ROOT
ATOM      1  O   UNL     1       6.213  33.543  16.030  0.00  0.00    +0.000 OA
ATOM      2  O   UNL     1       9.235  30.129  15.415  0.00  0.00    +0.000 OA
ATOM      3  N   UNL     1       8.074  32.098  15.988  0.00  0.00    +0.000 N 
ATOM      4  C   UNL     1       6.747  32.456  15.913  0.00  0.00    +0.000 C 
ATOM      5  C   UNL     1       8.233  30.762  15.690  0.00  0.00    +0.000 C 
ATOM      6  C   UNL     1       5.991  31.232  15.670  0.00  0.00    +0.000 A 
ATOM      7  C   UNL     1       6.896  30.197  15.554  0.00  0.00    +0.000 A 
ATOM      8  C   UNL     1       4.632  31.038  15.540  0.00  0.00    +0.000 A 
ATOM      9  C   UNL     1       6.502  28.903  15.286  0.00  0.00    +0.000 A 
ATOM     10  C   UNL     1       4.207  29.733  15.284  0.00  0.00    +0.000 A 
ATOM     11  C   UNL     1       5.129  28.679  15.158  0.00  0.00    +0.000 A 
ENDROOT
BRANCH   3  12
ATOM     12  C   UNL     1       9.109  32.974  16.201  0.00  0.00    +0.000 C 
ATOM     13  C   UNL     1       9.512  33.397  17.487  0.00  0.00    +0.000 C 
ATOM     14  C   UNL     1      10.530  34.476  17.688  0.00  0.00    +0.000 C 
ATOM     15  C   UNL     1      11.199  35.111  16.591  0.00  0.00    +0.000 C 
ATOM     16  O   UNL     1      12.082  35.935  16.758  0.00  0.00    +0.000 OA
ATOM     17  N   UNL     1      10.772  34.641  15.351  0.00  0.00    +0.000 N 
ATOM     18  C   UNL     1       9.947  33.544  15.062  0.00  0.00    +0.000 C 
ATOM     19  H   UNL     1      11.320  34.970  14.570  0.00  0.00    +0.000 HD
ATOM     20  O   UNL     1      10.016  33.000  13.963  0.00  0.00    +0.000 OA
ENDBRANCH   3  12
TORSDOF 1
ENDMDL
MODEL 9
REMARK VINA RESULT:      -6.4      1.944      6.157
REMARK  Name = Thalidomide.pdbqt.pdb
REMARK  1 active torsions:
REMARK  status: ('A' for Active; 'I' for Inactive)
REMARK    1  A    between atoms: N_3  and  C_12
REMARK                            x       y       z     vdW  Elec       q    Type
REMARK                         _______ _______ _______ _____ _____    ______ ____
ROOT
ATOM      1  O   UNL     1       0.769  30.689  13.954  0.00  0.00    +0.000 OA
ATOM      2  O   UNL     1       2.410  33.104  17.510  0.00  0.00    +0.000 OA
ATOM      3  N   UNL     1       2.063  31.742  15.619  0.00  0.00    +0.000 N 
ATOM      4  C   UNL     1       0.977  31.543  14.797  0.00  0.00    +0.000 C 
ATOM      5  C   UNL     1       1.824  32.778  16.495  0.00  0.00    +0.000 C 
ATOM      6  C   UNL     1       0.025  32.609  15.087  0.00  0.00    +0.000 A 
ATOM      7  C   UNL     1       0.551  33.373  16.108  0.00  0.00    +0.000 A 
ATOM      8  C   UNL     1      -1.205  32.879  14.525  0.00  0.00    +0.000 A 
ATOM      9  C   UNL     1      -0.125  34.449  16.644  0.00  0.00    +0.000 A 
ATOM     10  C   UNL     1      -1.902  33.974  15.039  0.00  0.00    +0.000 A 
ATOM     11  C   UNL     1      -1.370  34.748  16.085  0.00  0.00    +0.000 A 
ENDROOT
BRANCH   3  12
ATOM     12  C   UNL     1       3.176  30.939  15.652  0.00  0.00    +0.000 C 
ATOM     13  C   UNL     1       4.495  31.445  15.641  0.00  0.00    +0.000 C 
ATOM     14  C   UNL     1       5.690  30.552  15.510  0.00  0.00    +0.000 C 
ATOM     15  C   UNL     1       5.575  29.126  15.440  0.00  0.00    +0.000 C 
ATOM     16  O   UNL     1       6.552  28.396  15.410  0.00  0.00    +0.000 OA
ATOM     17  N   UNL     1       4.254  28.686  15.471  0.00  0.00    +0.000 N 
ATOM     18  C   UNL     1       3.089  29.419  15.741  0.00  0.00    +0.000 C 
ATOM     19  H   UNL     1       4.149  27.686  15.561  0.00  0.00    +0.000 HD
ATOM     20  O   UNL     1       2.087  28.845  16.159  0.00  0.00    +0.000 OA
ENDBRANCH   3  12
TORSDOF 1
ENDMDL
