MODEL 1
REMARK VINA RESULT:      -6.8      0.000      0.000
REMARK  Name = Thapsigargin.pdbqt.pdb
REMARK  10 active torsions:
REMARK  status: ('A' for Active; 'I' for Inactive)
REMARK    1  A    between atoms: O_2  and  C_24
REMARK    2  A    between atoms: C_17  and  O_43
REMARK    3  A    between atoms: C_19  and  C_24
REMARK    4  A    between atoms: C_19  and  O_47
REMARK    5  A    between atoms: C_27  and  C_35
REMARK    6  A    between atoms: C_35  and  C_36
REMARK    7  A    between atoms: C_37  and  C_38
REMARK    8  A    between atoms: C_39  and  C_40
REMARK    9  A    between atoms: C_42  and  O_43
REMARK   10  A    between atoms: C_42  and  C_44
REMARK                            x       y       z     vdW  Elec       q    Type
REMARK                         _______ _______ _______ _____ _____    ______ ____
ROOT
ATOM      1  O   UNL     1      -2.864  17.269   6.399  0.00  0.00    +0.000 OA
ATOM      2  O   UNL     1       0.372  22.012   4.468  0.00  0.00    +0.000 OA
ATOM      3  O   UNL     1       1.366  20.057   3.152  0.00  0.00    +0.000 OA
ATOM      4  O   UNL     1       1.993  19.094   7.166  0.00  0.00    +0.000 OA
ATOM      5  O   UNL     1      -4.716  15.933   6.310  0.00  0.00    +0.000 OA
ATOM      6  O   UNL     1       0.190  20.619   2.464  0.00  0.00    +0.000 OA
ATOM      7  O   UNL     1       3.782  20.442   3.233  0.00  0.00    +0.000 OA
ATOM      8  O   UNL     1       1.341  16.693   7.073  0.00  0.00    +0.000 OA
ATOM      9  C   UNL     1      -0.992  20.706   6.166  0.00  0.00    +0.000 C 
ATOM     10  C   UNL     1      -3.783  19.192   5.477  0.00  0.00    +0.000 C 
ATOM     11  C   UNL     1      -2.631  18.603   6.090  0.00  0.00    +0.000 C 
ATOM     12  C   UNL     1      -1.838  21.779   5.570  0.00  0.00    +0.000 C 
ATOM     13  C   UNL     1      -1.479  19.244   6.384  0.00  0.00    +0.000 C 
ATOM     14  C   UNL     1      -3.761  20.465   5.249  0.00  0.00    +0.000 C 
ATOM     15  C   UNL     1      -3.146  21.735   5.254  0.00  0.00    +0.000 C 
ATOM     16  C   UNL     1       0.217  20.798   6.952  0.00  0.00    +0.000 C 
ATOM     17  C   UNL     1      -4.845  18.179   5.350  0.00  0.00    +0.000 C 
ATOM     18  C   UNL     1       0.658  19.497   7.269  0.00  0.00    +0.000 C 
ATOM     19  C   UNL     1      -0.350  18.618   7.080  0.00  0.00    +0.000 C 
ATOM     20  C   UNL     1      -0.759  21.172   4.770  0.00  0.00    +0.000 C 
ATOM     21  C   UNL     1      -4.167  16.999   6.049  0.00  0.00    +0.000 C 
ATOM     22  C   UNL     1       0.169  17.317   7.067  0.00  0.00    +0.000 C 
ATOM     23  C   UNL     1      -0.429  21.583   3.358  0.00  0.00    +0.000 C 
ATOM     24  C   UNL     1       2.534  20.652   2.661  0.00  0.00    +0.000 C 
ATOM     25  C   UNL     1       2.243  17.742   6.724  0.00  0.00    +0.000 C 
ATOM     26  C   UNL     1      -1.125  22.744   2.635  0.00  0.00    +0.000 C 
ATOM     27  C   UNL     1       3.175  17.525   5.774  0.00  0.00    +0.000 C 
ATOM     28  C   UNL     1       3.455  16.140   5.236  0.00  0.00    +0.000 C 
ATOM     29  C   UNL     1       3.638  18.604   4.968  0.00  0.00    +0.000 C 
ATOM     30  C   UNL     1       3.760  19.489   4.164  0.00  0.00    +0.000 C 
ENDROOT
BRANCH  17  31
ATOM     31  O   UNL     1      -6.029  18.604   6.003  0.00  0.00    +0.000 OA
ATOM     32  H   UNL     1      -5.740  19.253   6.672  0.00  0.00    +0.000 HD
ENDBRANCH  17  31
BRANCH  17  33
ATOM     33  C   UNL     1      -5.133  17.899   3.931  0.00  0.00    +0.000 C 
BRANCH  33  34
ATOM     34  O   UNL     1      -5.416  17.640   2.656  0.00  0.00    +0.000 OA
ATOM     35  H   UNL     1      -4.715  17.102   2.243  0.00  0.00    +0.000 HD
ENDBRANCH  33  34
ENDBRANCH  17  33
BRANCH  24  36
ATOM     36  C   UNL     1       2.492  21.583   1.757  0.00  0.00    +0.000 C 
BRANCH  36  37
ATOM     37  C   UNL     1       2.401  22.700   0.712  0.00  0.00    +0.000 C 
ATOM     38  C   UNL     1       2.336  23.599  -0.081  0.00  0.00    +0.000 C 
BRANCH  38  39
ATOM     39  C   UNL     1       2.261  24.765  -1.072  0.00  0.00    +0.000 C 
ATOM     40  C   UNL     1       2.191  25.672  -1.856  0.00  0.00    +0.000 C 
BRANCH  40  41
ATOM     41  C   UNL     1       2.094  26.826  -2.858  0.00  0.00    +0.000 C 
ATOM     42  C   UNL     1       2.009  27.832  -3.727  0.00  0.00    +0.000 C 
ENDBRANCH  40  41
ENDBRANCH  38  39
ENDBRANCH  36  37
ENDBRANCH  24  36
BRANCH  15  43
ATOM     43  O   UNL     1      -3.914  22.905   5.221  0.00  0.00    +0.000 OA
BRANCH  43  45
ATOM     44  O   UNL     1      -6.214  22.727   4.898  0.00  0.00    +0.000 OA
ATOM     45  C   UNL     1      -5.064  22.798   4.488  0.00  0.00    +0.000 C 
BRANCH  45  46
ATOM     46  C   UNL     1      -4.794  22.767   3.083  0.00  0.00    +0.000 C 
ATOM     47  C   UNL     1      -4.562  22.744   1.909  0.00  0.00    +0.000 C 
ATOM     48  C   UNL     1      -4.281  22.710   0.405  0.00  0.00    +0.000 C 
ENDBRANCH  45  46
ENDBRANCH  43  45
ENDBRANCH  15  43
TORSDOF 10
ENDMDL
MODEL 2
REMARK VINA RESULT:      -6.8     37.236     40.795
REMARK  Name = Thapsigargin.pdbqt.pdb
REMARK  10 active torsions:
REMARK  status: ('A' for Active; 'I' for Inactive)
REMARK    1  A    between atoms: O_2  and  C_24
REMARK    2  A    between atoms: C_17  and  O_43
REMARK    3  A    between atoms: C_19  and  C_24
REMARK    4  A    between atoms: C_19  and  O_47
REMARK    5  A    between atoms: C_27  and  C_35
REMARK    6  A    between atoms: C_35  and  C_36
REMARK    7  A    between atoms: C_37  and  C_38
REMARK    8  A    between atoms: C_39  and  C_40
REMARK    9  A    between atoms: C_42  and  O_43
REMARK   10  A    between atoms: C_42  and  C_44
REMARK                            x       y       z     vdW  Elec       q    Type
REMARK                         _______ _______ _______ _____ _____    ______ ____
ROOT
ATOM      1  O   UNL     1       9.160  60.821  -6.727  0.00  0.00    +0.000 OA
ATOM      2  O   UNL     1       8.072  55.229  -8.789  0.00  0.00    +0.000 OA
ATOM      3  O   UNL     1       6.838  56.716 -10.465  0.00  0.00    +0.000 OA
ATOM      4  O   UNL     1       5.068  57.540  -6.774  0.00  0.00    +0.000 OA
ATOM      5  O   UNL     1      10.477  62.683  -6.575  0.00  0.00    +0.000 OA
ATOM      6  O   UNL     1       8.251  56.547 -10.844  0.00  0.00    +0.000 OA
ATOM      7  O   UNL     1       4.705  55.570 -10.832  0.00  0.00    +0.000 OA
ATOM      8  O   UNL     1       4.945  60.020  -6.971  0.00  0.00    +0.000 OA
ATOM      9  C   UNL     1       8.550  56.957  -6.990  0.00  0.00    +0.000 C 
ATOM     10  C   UNL     1      10.812  59.274  -7.252  0.00  0.00    +0.000 C 
ATOM     11  C   UNL     1       9.428  59.475  -6.943  0.00  0.00    +0.000 C 
ATOM     12  C   UNL     1       9.798  56.200  -7.294  0.00  0.00    +0.000 C 
ATOM     13  C   UNL     1       8.497  58.504  -6.825  0.00  0.00    +0.000 C 
ATOM     14  C   UNL     1      11.238  58.058  -7.353  0.00  0.00    +0.000 C 
ATOM     15  C   UNL     1      11.063  56.657  -7.345  0.00  0.00    +0.000 C 
ATOM     16  C   UNL     1       7.287  56.500  -6.457  0.00  0.00    +0.000 C 
ATOM     17  C   UNL     1      11.507  60.574  -7.263  0.00  0.00    +0.000 C 
ATOM     18  C   UNL     1       6.405  57.596  -6.365  0.00  0.00    +0.000 C 
ATOM     19  C   UNL     1       7.105  58.749  -6.434  0.00  0.00    +0.000 C 
ATOM     20  C   UNL     1       8.789  56.400  -8.351  0.00  0.00    +0.000 C 
ATOM     21  C   UNL     1      10.358  61.489  -6.834  0.00  0.00    +0.000 C 
ATOM     22  C   UNL     1       6.224  59.810  -6.680  0.00  0.00    +0.000 C 
ATOM     23  C   UNL     1       8.925  55.863  -9.752  0.00  0.00    +0.000 C 
ATOM     24  C   UNL     1       6.052  55.761 -11.118  0.00  0.00    +0.000 C 
ATOM     25  C   UNL     1       4.515  58.724  -7.388  0.00  0.00    +0.000 C 
ATOM     26  C   UNL     1      10.089  54.970 -10.203  0.00  0.00    +0.000 C 
ATOM     27  C   UNL     1       3.797  58.599  -8.523  0.00  0.00    +0.000 C 
ATOM     28  C   UNL     1       3.227  59.802  -9.241  0.00  0.00    +0.000 C 
ATOM     29  C   UNL     1       3.883  57.405  -9.294  0.00  0.00    +0.000 C 
ATOM     30  C   UNL     1       4.223  56.505 -10.015  0.00  0.00    +0.000 C 
ENDROOT
BRANCH  17  31
ATOM     31  O   UNL     1      12.588  60.575  -6.346  0.00  0.00    +0.000 OA
ATOM     32  H   UNL     1      12.238  60.977  -5.529  0.00  0.00    +0.000 HD
ENDBRANCH  17  31
BRANCH  17  33
ATOM     33  C   UNL     1      12.001  60.891  -8.615  0.00  0.00    +0.000 C 
BRANCH  33  34
ATOM     34  O   UNL     1      12.439  61.154  -9.845  0.00  0.00    +0.000 OA
ATOM     35  H   UNL     1      13.161  60.548 -10.098  0.00  0.00    +0.000 HD
ENDBRANCH  33  34
ENDBRANCH  17  33
BRANCH  24  36
ATOM     36  C   UNL     1       6.580  54.867 -11.899  0.00  0.00    +0.000 C 
BRANCH  36  37
ATOM     37  C   UNL     1       7.217  53.786 -12.779  0.00  0.00    +0.000 C 
ATOM     38  C   UNL     1       7.690  52.916 -13.457  0.00  0.00    +0.000 C 
BRANCH  38  39
ATOM     39  C   UNL     1       8.274  51.788 -14.315  0.00  0.00    +0.000 C 
ATOM     40  C   UNL     1       8.726  50.895 -14.977  0.00  0.00    +0.000 C 
BRANCH  40  41
ATOM     41  C   UNL     1       9.298  49.750 -15.818  0.00  0.00    +0.000 C 
ATOM     42  C   UNL     1       9.793  48.754 -16.551  0.00  0.00    +0.000 C 
ENDBRANCH  40  41
ENDBRANCH  38  39
ENDBRANCH  36  37
ENDBRANCH  24  36
BRANCH  15  43
ATOM     43  O   UNL     1      12.143  55.800  -7.107  0.00  0.00    +0.000 OA
BRANCH  43  45
ATOM     44  O   UNL     1      13.329  55.750  -9.111  0.00  0.00    +0.000 OA
ATOM     45  C   UNL     1      13.219  56.017  -7.923  0.00  0.00    +0.000 C 
BRANCH  45  46
ATOM     46  C   UNL     1      14.304  56.628  -7.216  0.00  0.00    +0.000 C 
ATOM     47  C   UNL     1      15.206  57.143  -6.622  0.00  0.00    +0.000 C 
ATOM     48  C   UNL     1      16.371  57.794  -5.872  0.00  0.00    +0.000 C 
ENDBRANCH  45  46
ENDBRANCH  43  45
ENDBRANCH  15  43
TORSDOF 10
ENDMDL
MODEL 3
REMARK VINA RESULT:      -6.7     37.978     40.851
REMARK  Name = Thapsigargin.pdbqt.pdb
REMARK  10 active torsions:
REMARK  status: ('A' for Active; 'I' for Inactive)
REMARK    1  A    between atoms: O_2  and  C_24
REMARK    2  A    between atoms: C_17  and  O_43
REMARK    3  A    between atoms: C_19  and  C_24
REMARK    4  A    between atoms: C_19  and  O_47
REMARK    5  A    between atoms: C_27  and  C_35
REMARK    6  A    between atoms: C_35  and  C_36
REMARK    7  A    between atoms: C_37  and  C_38
REMARK    8  A    between atoms: C_39  and  C_40
REMARK    9  A    between atoms: C_42  and  O_43
REMARK   10  A    between atoms: C_42  and  C_44
REMARK                            x       y       z     vdW  Elec       q    Type
REMARK                         _______ _______ _______ _____ _____    ______ ____
ROOT
ATOM      1  O   UNL     1       9.512  55.544 -11.189  0.00  0.00    +0.000 OA
ATOM      2  O   UNL     1       7.568  58.210  -6.108  0.00  0.00    +0.000 OA
ATOM      3  O   UNL     1       8.892  60.066  -7.267  0.00  0.00    +0.000 OA
ATOM      4  O   UNL     1      11.654  57.000  -6.628  0.00  0.00    +0.000 OA
ATOM      5  O   UNL     1       9.202  54.889 -13.357  0.00  0.00    +0.000 OA
ATOM      6  O   UNL     1       7.499  60.029  -7.744  0.00  0.00    +0.000 OA
ATOM      7  O   UNL     1      10.171  61.114  -5.461  0.00  0.00    +0.000 OA
ATOM      8  O   UNL     1      12.783  57.055  -8.847  0.00  0.00    +0.000 OA
ATOM      9  C   UNL     1       8.318  56.236  -7.519  0.00  0.00    +0.000 C 
ATOM     10  C   UNL     1       7.283  55.671 -10.546  0.00  0.00    +0.000 C 
ATOM     11  C   UNL     1       8.648  55.764 -10.123  0.00  0.00    +0.000 C 
ATOM     12  C   UNL     1       6.832  56.216  -7.387  0.00  0.00    +0.000 C 
ATOM     13  C   UNL     1       9.068  55.988  -8.859  0.00  0.00    +0.000 C 
ATOM     14  C   UNL     1       6.364  55.726  -9.639  0.00  0.00    +0.000 C 
ATOM     15  C   UNL     1       5.915  55.866  -8.308  0.00  0.00    +0.000 C 
ATOM     16  C   UNL     1       9.347  56.126  -6.510  0.00  0.00    +0.000 C 
ATOM     17  C   UNL     1       7.234  55.390 -11.993  0.00  0.00    +0.000 C 
ATOM     18  C   UNL     1      10.609  56.219  -7.131  0.00  0.00    +0.000 C 
ATOM     19  C   UNL     1      10.479  56.003  -8.458  0.00  0.00    +0.000 C 
ATOM     20  C   UNL     1       7.550  57.504  -7.364  0.00  0.00    +0.000 C 
ATOM     21  C   UNL     1       8.731  55.252 -12.283  0.00  0.00    +0.000 C 
ATOM     22  C   UNL     1      11.646  56.420  -9.110  0.00  0.00    +0.000 C 
ATOM     23  C   UNL     1       6.872  58.838  -7.193  0.00  0.00    +0.000 C 
ATOM     24  C   UNL     1       9.013  60.983  -6.218  0.00  0.00    +0.000 C 
ATOM     25  C   UNL     1      12.502  57.666  -7.589  0.00  0.00    +0.000 C 
ATOM     26  C   UNL     1       5.368  58.992  -6.933  0.00  0.00    +0.000 C 
ATOM     27  C   UNL     1      12.808  58.967  -7.401  0.00  0.00    +0.000 C 
ATOM     28  C   UNL     1      13.655  59.735  -8.392  0.00  0.00    +0.000 C 
ATOM     29  C   UNL     1      12.038  59.759  -6.503  0.00  0.00    +0.000 C 
ATOM     30  C   UNL     1      11.185  60.411  -5.962  0.00  0.00    +0.000 C 
ENDROOT
BRANCH  17  31
ATOM     31  O   UNL     1       6.507  54.202 -12.251  0.00  0.00    +0.000 OA
ATOM     32  H   UNL     1       6.540  54.080 -13.219  0.00  0.00    +0.000 HD
ENDBRANCH  17  31
BRANCH  17  33
ATOM     33  C   UNL     1       6.624  56.516 -12.722  0.00  0.00    +0.000 C 
BRANCH  33  34
ATOM     34  O   UNL     1       6.085  57.549 -13.368  0.00  0.00    +0.000 OA
ATOM     35  H   UNL     1       5.540  57.248 -14.119  0.00  0.00    +0.000 HD
ENDBRANCH  33  34
ENDBRANCH  17  33
BRANCH  24  36
ATOM     36  C   UNL     1       7.984  61.637  -5.767  0.00  0.00    +0.000 C 
BRANCH  36  37
ATOM     37  C   UNL     1       6.782  62.391  -5.188  0.00  0.00    +0.000 C 
ATOM     38  C   UNL     1       5.826  62.982  -4.768  0.00  0.00    +0.000 C 
BRANCH  38  39
ATOM     39  C   UNL     1       4.594  63.735  -4.257  0.00  0.00    +0.000 C 
ATOM     40  C   UNL     1       3.621  64.313  -3.855  0.00  0.00    +0.000 C 
BRANCH  40  41
ATOM     41  C   UNL     1       2.377  65.042  -3.338  0.00  0.00    +0.000 C 
ATOM     42  C   UNL     1       1.297  65.678  -2.887  0.00  0.00    +0.000 C 
ENDBRANCH  40  41
ENDBRANCH  38  39
ENDBRANCH  36  37
ENDBRANCH  24  36
BRANCH  15  43
ATOM     43  O   UNL     1       4.660  55.384  -7.919  0.00  0.00    +0.000 OA
BRANCH  43  45
ATOM     44  O   UNL     1       3.505  55.830  -9.892  0.00  0.00    +0.000 OA
ATOM     45  C   UNL     1       3.622  55.855  -8.675  0.00  0.00    +0.000 C 
BRANCH  45  46
ATOM     46  C   UNL     1       2.597  56.435  -7.862  0.00  0.00    +0.000 C 
ATOM     47  C   UNL     1       1.742  56.917  -7.177  0.00  0.00    +0.000 C 
ATOM     48  C   UNL     1       0.642  57.540  -6.314  0.00  0.00    +0.000 C 
ENDBRANCH  45  46
ENDBRANCH  43  45
ENDBRANCH  15  43
TORSDOF 10
ENDMDL
MODEL 4
REMARK VINA RESULT:      -6.5     39.335     43.789
REMARK  Name = Thapsigargin.pdbqt.pdb
REMARK  10 active torsions:
REMARK  status: ('A' for Active; 'I' for Inactive)
REMARK    1  A    between atoms: O_2  and  C_24
REMARK    2  A    between atoms: C_17  and  O_43
REMARK    3  A    between atoms: C_19  and  C_24
REMARK    4  A    between atoms: C_19  and  O_47
REMARK    5  A    between atoms: C_27  and  C_35
REMARK    6  A    between atoms: C_35  and  C_36
REMARK    7  A    between atoms: C_37  and  C_38
REMARK    8  A    between atoms: C_39  and  C_40
REMARK    9  A    between atoms: C_42  and  O_43
REMARK   10  A    between atoms: C_42  and  C_44
REMARK                            x       y       z     vdW  Elec       q    Type
REMARK                         _______ _______ _______ _____ _____    ______ ____
ROOT
ATOM      1  O   UNL     1      -5.702  63.840   7.230  0.00  0.00    +0.000 OA
ATOM      2  O   UNL     1      -1.121  62.561  10.982  0.00  0.00    +0.000 OA
ATOM      3  O   UNL     1      -0.610  64.954  10.237  0.00  0.00    +0.000 OA
ATOM      4  O   UNL     1      -0.607  62.699   6.723  0.00  0.00    +0.000 OA
ATOM      5  O   UNL     1      -7.841  64.547   6.841  0.00  0.00    +0.000 OA
ATOM      6  O   UNL     1      -1.521  64.941  11.395  0.00  0.00    +0.000 OA
ATOM      7  O   UNL     1       1.803  64.955   9.820  0.00  0.00    +0.000 OA
ATOM      8  O   UNL     1      -1.896  64.268   5.280  0.00  0.00    +0.000 OA
ATOM      9  C   UNL     1      -2.930  61.989   9.294  0.00  0.00    +0.000 C 
ATOM     10  C   UNL     1      -5.967  63.135   9.427  0.00  0.00    +0.000 C 
ATOM     11  C   UNL     1      -5.080  63.219   8.305  0.00  0.00    +0.000 C 
ATOM     12  C   UNL     1      -3.390  61.612  10.661  0.00  0.00    +0.000 C 
ATOM     13  C   UNL     1      -3.823  62.729   8.256  0.00  0.00    +0.000 C 
ATOM     14  C   UNL     1      -5.571  62.467  10.461  0.00  0.00    +0.000 C 
ATOM     15  C   UNL     1      -4.628  61.706  11.183  0.00  0.00    +0.000 C 
ATOM     16  C   UNL     1      -1.811  61.504   8.518  0.00  0.00    +0.000 C 
ATOM     17  C   UNL     1      -7.257  63.759   9.082  0.00  0.00    +0.000 C 
ATOM     18  C   UNL     1      -1.780  62.184   7.284  0.00  0.00    +0.000 C 
ATOM     19  C   UNL     1      -2.975  62.773   7.059  0.00  0.00    +0.000 C 
ATOM     20  C   UNL     1      -2.462  62.746  10.490  0.00  0.00    +0.000 C 
ATOM     21  C   UNL     1      -6.995  64.108   7.615  0.00  0.00    +0.000 C 
ATOM     22  C   UNL     1      -2.842  63.708   6.025  0.00  0.00    +0.000 C 
ATOM     23  C   UNL     1      -1.917  63.562  11.632  0.00  0.00    +0.000 C 
ATOM     24  C   UNL     1       0.713  65.077  10.674  0.00  0.00    +0.000 C 
ATOM     25  C   UNL     1      -0.712  63.951   6.009  0.00  0.00    +0.000 C 
ATOM     26  C   UNL     1      -2.197  63.242  13.106  0.00  0.00    +0.000 C 
ATOM     27  C   UNL     1       0.197  64.919   6.248  0.00  0.00    +0.000 C 
ATOM     28  C   UNL     1       0.121  66.267   5.568  0.00  0.00    +0.000 C 
ATOM     29  C   UNL     1       1.008  64.864   7.418  0.00  0.00    +0.000 C 
ATOM     30  C   UNL     1       1.439  64.892   8.540  0.00  0.00    +0.000 C 
ENDROOT
BRANCH  17  31
ATOM     31  O   UNL     1      -8.323  62.841   9.252  0.00  0.00    +0.000 OA
ATOM     32  H   UNL     1      -9.117  63.296   8.915  0.00  0.00    +0.000 HD
ENDBRANCH  17  31
BRANCH  17  33
ATOM     33  C   UNL     1      -7.495  64.956   9.909  0.00  0.00    +0.000 C 
BRANCH  33  34
ATOM     34  O   UNL     1      -7.699  66.052  10.638  0.00  0.00    +0.000 OA
ATOM     35  H   UNL     1      -7.393  66.850  10.167  0.00  0.00    +0.000 HD
ENDBRANCH  33  34
ENDBRANCH  17  33
BRANCH  24  36
ATOM     36  C   UNL     1       1.008  65.127  11.938  0.00  0.00    +0.000 C 
BRANCH  36  37
ATOM     37  C   UNL     1       1.372  65.138  13.426  0.00  0.00    +0.000 C 
ATOM     38  C   UNL     1       1.689  65.133  14.584  0.00  0.00    +0.000 C 
BRANCH  38  39
ATOM     39  C   UNL     1       2.120  65.118  16.054  0.00  0.00    +0.000 C 
ATOM     40  C   UNL     1       2.451  65.120  17.208  0.00  0.00    +0.000 C 
BRANCH  40  41
ATOM     41  C   UNL     1       2.869  65.129  18.682  0.00  0.00    +0.000 C 
ATOM     42  C   UNL     1       3.233  65.134  19.963  0.00  0.00    +0.000 C 
ENDBRANCH  40  41
ENDBRANCH  38  39
ENDBRANCH  36  37
ENDBRANCH  24  36
BRANCH  15  43
ATOM     43  O   UNL     1      -5.031  60.858  12.221  0.00  0.00    +0.000 OA
BRANCH  43  45
ATOM     44  O   UNL     1      -7.083  59.900  11.675  0.00  0.00    +0.000 OA
ATOM     45  C   UNL     1      -5.870  59.852  11.827  0.00  0.00    +0.000 C 
BRANCH  45  46
ATOM     46  C   UNL     1      -5.159  58.633  11.593  0.00  0.00    +0.000 C 
ATOM     47  C   UNL     1      -4.566  57.612  11.392  0.00  0.00    +0.000 C 
ATOM     48  C   UNL     1      -3.807  56.306  11.149  0.00  0.00    +0.000 C 
ENDBRANCH  45  46
ENDBRANCH  43  45
ENDBRANCH  15  43
TORSDOF 10
ENDMDL
MODEL 5
REMARK VINA RESULT:      -6.4      8.812     14.879
REMARK  Name = Thapsigargin.pdbqt.pdb
REMARK  10 active torsions:
REMARK  status: ('A' for Active; 'I' for Inactive)
REMARK    1  A    between atoms: O_2  and  C_24
REMARK    2  A    between atoms: C_17  and  O_43
REMARK    3  A    between atoms: C_19  and  C_24
REMARK    4  A    between atoms: C_19  and  O_47
REMARK    5  A    between atoms: C_27  and  C_35
REMARK    6  A    between atoms: C_35  and  C_36
REMARK    7  A    between atoms: C_37  and  C_38
REMARK    8  A    between atoms: C_39  and  C_40
REMARK    9  A    between atoms: C_42  and  O_43
REMARK   10  A    between atoms: C_42  and  C_44
REMARK                            x       y       z     vdW  Elec       q    Type
REMARK                         _______ _______ _______ _____ _____    ______ ____
ROOT
ATOM      1  O   UNL     1      -9.569  17.869   9.113  0.00  0.00    +0.000 OA
ATOM      2  O   UNL     1      -7.059  14.988  13.814  0.00  0.00    +0.000 OA
ATOM      3  O   UNL     1      -9.222  13.681  13.420  0.00  0.00    +0.000 OA
ATOM      4  O   UNL     1     -10.451  17.579  14.275  0.00  0.00    +0.000 OA
ATOM      5  O   UNL     1      -9.790  18.233   6.867  0.00  0.00    +0.000 OA
ATOM      6  O   UNL     1      -8.132  13.175  12.568  0.00  0.00    +0.000 OA
ATOM      7  O   UNL     1     -10.107  13.286  15.668  0.00  0.00    +0.000 OA
ATOM      8  O   UNL     1     -12.196  17.808  12.514  0.00  0.00    +0.000 OA
ATOM      9  C   UNL     1      -7.536  17.010  12.353  0.00  0.00    +0.000 C 
ATOM     10  C   UNL     1      -7.426  16.973   9.107  0.00  0.00    +0.000 C 
ATOM     11  C   UNL     1      -8.527  17.412   9.910  0.00  0.00    +0.000 C 
ATOM     12  C   UNL     1      -6.171  16.492  12.052  0.00  0.00    +0.000 C 
ATOM     13  C   UNL     1      -8.559  17.435  11.260  0.00  0.00    +0.000 C 
ATOM     14  C   UNL     1      -6.333  16.638   9.711  0.00  0.00    +0.000 C 
ATOM     15  C   UNL     1      -5.545  16.425  10.862  0.00  0.00    +0.000 C 
ATOM     16  C   UNL     1      -8.081  17.551  13.578  0.00  0.00    +0.000 C 
ATOM     17  C   UNL     1      -7.765  17.128   7.681  0.00  0.00    +0.000 C 
ATOM     18  C   UNL     1      -9.433  17.890  13.368  0.00  0.00    +0.000 C 
ATOM     19  C   UNL     1      -9.682  17.963  12.043  0.00  0.00    +0.000 C 
ATOM     20  C   UNL     1      -7.223  15.561  12.502  0.00  0.00    +0.000 C 
ATOM     21  C   UNL     1      -9.140  17.787   7.809  0.00  0.00    +0.000 C 
ATOM     22  C   UNL     1     -11.067  17.965  11.832  0.00  0.00    +0.000 C 
ATOM     23  C   UNL     1      -7.005  14.084  12.702  0.00  0.00    +0.000 C 
ATOM     24  C   UNL     1      -9.286  12.937  14.603  0.00  0.00    +0.000 C 
ATOM     25  C   UNL     1     -11.736  17.214  13.726  0.00  0.00    +0.000 C 
ATOM     26  C   UNL     1      -5.638  13.405  12.546  0.00  0.00    +0.000 C 
ATOM     27  C   UNL     1     -12.373  16.130  14.216  0.00  0.00    +0.000 C 
ATOM     28  C   UNL     1     -13.700  15.668  13.656  0.00  0.00    +0.000 C 
ATOM     29  C   UNL     1     -11.657  15.166  14.981  0.00  0.00    +0.000 C 
ATOM     30  C   UNL     1     -10.938  14.281  15.363  0.00  0.00    +0.000 C 
ENDROOT
BRANCH  17  31
ATOM     31  O   UNL     1      -6.815  17.948   7.024  0.00  0.00    +0.000 OA
ATOM     32  H   UNL     1      -7.312  18.420   6.329  0.00  0.00    +0.000 HD
ENDBRANCH  17  31
BRANCH  17  33
ATOM     33  C   UNL     1      -7.833  15.814   7.015  0.00  0.00    +0.000 C 
BRANCH  33  34
ATOM     34  O   UNL     1      -7.918  14.633   6.406  0.00  0.00    +0.000 OA
ATOM     35  H   UNL     1      -8.849  14.386   6.246  0.00  0.00    +0.000 HD
ENDBRANCH  33  34
ENDBRANCH  17  33
BRANCH  24  36
ATOM     36  C   UNL     1      -8.442  11.980  14.849  0.00  0.00    +0.000 C 
BRANCH  36  37
ATOM     37  C   UNL     1      -7.461  10.830  15.096  0.00  0.00    +0.000 C 
ATOM     38  C   UNL     1      -6.691   9.922  15.253  0.00  0.00    +0.000 C 
BRANCH  38  39
ATOM     39  C   UNL     1      -5.707   8.761  15.427  0.00  0.00    +0.000 C 
ATOM     40  C   UNL     1      -4.942   7.848  15.576  0.00  0.00    +0.000 C 
BRANCH  40  41
ATOM     41  C   UNL     1      -3.970   6.681  15.773  0.00  0.00    +0.000 C 
ATOM     42  C   UNL     1      -3.123   5.666  15.942  0.00  0.00    +0.000 C 
ENDBRANCH  40  41
ENDBRANCH  38  39
ENDBRANCH  36  37
ENDBRANCH  24  36
BRANCH  15  43
ATOM     43  O   UNL     1      -4.148  16.435  10.788  0.00  0.00    +0.000 OA
BRANCH  43  45
ATOM     44  O   UNL     1      -3.561  16.082   8.562  0.00  0.00    +0.000 OA
ATOM     45  C   UNL     1      -3.639  15.732   9.731  0.00  0.00    +0.000 C 
BRANCH  45  46
ATOM     46  C   UNL     1      -3.171  14.440  10.132  0.00  0.00    +0.000 C 
ATOM     47  C   UNL     1      -2.781  13.358  10.462  0.00  0.00    +0.000 C 
ATOM     48  C   UNL     1      -2.281  11.979  10.899  0.00  0.00    +0.000 C 
ENDBRANCH  45  46
ENDBRANCH  43  45
ENDBRANCH  15  43
TORSDOF 10
ENDMDL
MODEL 6
REMARK VINA RESULT:      -6.2     38.019     41.044
REMARK  Name = Thapsigargin.pdbqt.pdb
REMARK  10 active torsions:
REMARK  status: ('A' for Active; 'I' for Inactive)
REMARK    1  A    between atoms: O_2  and  C_24
REMARK    2  A    between atoms: C_17  and  O_43
REMARK    3  A    between atoms: C_19  and  C_24
REMARK    4  A    between atoms: C_19  and  O_47
REMARK    5  A    between atoms: C_27  and  C_35
REMARK    6  A    between atoms: C_35  and  C_36
REMARK    7  A    between atoms: C_37  and  C_38
REMARK    8  A    between atoms: C_39  and  C_40
REMARK    9  A    between atoms: C_42  and  O_43
REMARK   10  A    between atoms: C_42  and  C_44
REMARK                            x       y       z     vdW  Elec       q    Type
REMARK                         _______ _______ _______ _____ _____    ______ ____
ROOT
ATOM      1  O   UNL     1       7.217  55.729 -10.926  0.00  0.00    +0.000 OA
ATOM      2  O   UNL     1       7.489  59.020  -5.847  0.00  0.00    +0.000 OA
ATOM      3  O   UNL     1       9.247  60.119  -7.346  0.00  0.00    +0.000 OA
ATOM      4  O   UNL     1      10.529  56.173  -6.883  0.00  0.00    +0.000 OA
ATOM      5  O   UNL     1       6.290  55.249 -12.960  0.00  0.00    +0.000 OA
ATOM      6  O   UNL     1       7.907  60.678  -7.599  0.00  0.00    +0.000 OA
ATOM      7  O   UNL     1      11.139  60.537  -5.850  0.00  0.00    +0.000 OA
ATOM      8  O   UNL     1      11.173  55.717  -9.246  0.00  0.00    +0.000 OA
ATOM      9  C   UNL     1       7.082  56.902  -7.188  0.00  0.00    +0.000 C 
ATOM     10  C   UNL     1       5.397  56.804  -9.964  0.00  0.00    +0.000 C 
ATOM     11  C   UNL     1       6.726  56.308  -9.764  0.00  0.00    +0.000 C 
ATOM     12  C   UNL     1       5.774  57.521  -6.829  0.00  0.00    +0.000 C 
ATOM     13  C   UNL     1       7.414  56.343  -8.602  0.00  0.00    +0.000 C 
ATOM     14  C   UNL     1       4.760  57.257  -8.934  0.00  0.00    +0.000 C 
ATOM     15  C   UNL     1       4.649  57.588  -7.567  0.00  0.00    +0.000 C 
ATOM     16  C   UNL     1       8.127  56.371  -6.342  0.00  0.00    +0.000 C 
ATOM     17  C   UNL     1       4.985  56.558 -11.357  0.00  0.00    +0.000 C 
ATOM     18  C   UNL     1       9.183  55.909  -7.155  0.00  0.00    +0.000 C 
ATOM     19  C   UNL     1       8.746  55.756  -8.423  0.00  0.00    +0.000 C 
ATOM     20  C   UNL     1       6.958  58.378  -7.023  0.00  0.00    +0.000 C 
ATOM     21  C   UNL     1       6.209  55.789 -11.860  0.00  0.00    +0.000 C 
ATOM     22  C   UNL     1       9.848  55.627  -9.279  0.00  0.00    +0.000 C 
ATOM     23  C   UNL     1       6.945  59.875  -6.862  0.00  0.00    +0.000 C 
ATOM     24  C   UNL     1       9.922  60.907  -6.407  0.00  0.00    +0.000 C 
ATOM     25  C   UNL     1      11.398  56.402  -8.015  0.00  0.00    +0.000 C 
ATOM     26  C   UNL     1       5.714  60.661  -6.389  0.00  0.00    +0.000 C 
ATOM     27  C   UNL     1      12.249  57.448  -7.985  0.00  0.00    +0.000 C 
ATOM     28  C   UNL     1      13.154  57.770  -9.153  0.00  0.00    +0.000 C 
ATOM     29  C   UNL     1      12.053  58.503  -7.049  0.00  0.00    +0.000 C 
ATOM     30  C   UNL     1      11.660  59.462  -6.439  0.00  0.00    +0.000 C 
ENDROOT
BRANCH  17  31
ATOM     31  O   UNL     1       3.793  55.792 -11.402  0.00  0.00    +0.000 OA
ATOM     32  H   UNL     1       3.203  56.263 -12.021  0.00  0.00    +0.000 HD
ENDBRANCH  17  31
BRANCH  17  33
ATOM     33  C   UNL     1       4.787  57.830 -12.076  0.00  0.00    +0.000 C 
BRANCH  33  34
ATOM     34  O   UNL     1       4.615  58.967 -12.747  0.00  0.00    +0.000 OA
ATOM     35  H   UNL     1       3.837  58.915 -13.333  0.00  0.00    +0.000 HD
ENDBRANCH  33  34
ENDBRANCH  17  33
BRANCH  24  36
ATOM     36  C   UNL     1       9.358  61.942  -5.860  0.00  0.00    +0.000 C 
BRANCH  36  37
ATOM     37  C   UNL     1       8.739  63.184  -5.211  0.00  0.00    +0.000 C 
ATOM     38  C   UNL     1       8.232  64.136  -4.683  0.00  0.00    +0.000 C 
BRANCH  38  39
ATOM     39  C   UNL     1       7.571  65.333  -3.993  0.00  0.00    +0.000 C 
ATOM     40  C   UNL     1       7.061  66.270  -3.442  0.00  0.00    +0.000 C 
BRANCH  40  41
ATOM     41  C   UNL     1       6.418  67.465  -2.733  0.00  0.00    +0.000 C 
ATOM     42  C   UNL     1       5.860  68.507  -2.118  0.00  0.00    +0.000 C 
ENDBRANCH  40  41
ENDBRANCH  38  39
ENDBRANCH  36  37
ENDBRANCH  24  36
BRANCH  15  43
ATOM     43  O   UNL     1       3.396  57.694  -6.952  0.00  0.00    +0.000 OA
BRANCH  43  45
ATOM     44  O   UNL     1       2.810  55.501  -7.477  0.00  0.00    +0.000 OA
ATOM     45  C   UNL     1       2.538  56.673  -7.255  0.00  0.00    +0.000 C 
BRANCH  45  46
ATOM     46  C   UNL     1       1.180  57.121  -7.303  0.00  0.00    +0.000 C 
ATOM     47  C   UNL     1       0.046  57.502  -7.346  0.00  0.00    +0.000 C 
ATOM     48  C   UNL     1      -1.408  57.978  -7.391  0.00  0.00    +0.000 C 
ENDBRANCH  45  46
ENDBRANCH  43  45
ENDBRANCH  15  43
TORSDOF 10
ENDMDL
MODEL 7
REMARK VINA RESULT:      -6.1     28.270     32.609
REMARK  Name = Thapsigargin.pdbqt.pdb
REMARK  10 active torsions:
REMARK  status: ('A' for Active; 'I' for Inactive)
REMARK    1  A    between atoms: O_2  and  C_24
REMARK    2  A    between atoms: C_17  and  O_43
REMARK    3  A    between atoms: C_19  and  C_24
REMARK    4  A    between atoms: C_19  and  O_47
REMARK    5  A    between atoms: C_27  and  C_35
REMARK    6  A    between atoms: C_35  and  C_36
REMARK    7  A    between atoms: C_37  and  C_38
REMARK    8  A    between atoms: C_39  and  C_40
REMARK    9  A    between atoms: C_42  and  O_43
REMARK   10  A    between atoms: C_42  and  C_44
REMARK                            x       y       z     vdW  Elec       q    Type
REMARK                         _______ _______ _______ _____ _____    ______ ____
ROOT
ATOM      1  O   UNL     1      22.006  40.104  -1.080  0.00  0.00    +0.000 OA
ATOM      2  O   UNL     1      21.171  43.939  -5.695  0.00  0.00    +0.000 OA
ATOM      3  O   UNL     1      23.405  42.828  -6.260  0.00  0.00    +0.000 OA
ATOM      4  O   UNL     1      24.027  44.705  -2.583  0.00  0.00    +0.000 OA
ATOM      5  O   UNL     1      21.660  38.089  -0.057  0.00  0.00    +0.000 OA
ATOM      6  O   UNL     1      22.272  42.030  -6.760  0.00  0.00    +0.000 OA
ATOM      7  O   UNL     1      24.816  44.671  -7.039  0.00  0.00    +0.000 OA
ATOM      8  O   UNL     1      25.271  42.874  -1.442  0.00  0.00    +0.000 OA
ATOM      9  C   UNL     1      20.927  43.156  -3.291  0.00  0.00    +0.000 C 
ATOM     10  C   UNL     1      20.123  40.126  -2.441  0.00  0.00    +0.000 C 
ATOM     11  C   UNL     1      21.268  40.856  -1.986  0.00  0.00    +0.000 C 
ATOM     12  C   UNL     1      19.653  42.910  -4.026  0.00  0.00    +0.000 C 
ATOM     13  C   UNL     1      21.588  42.121  -2.336  0.00  0.00    +0.000 C 
ATOM     14  C   UNL     1      19.271  40.745  -3.191  0.00  0.00    +0.000 C 
ATOM     15  C   UNL     1      18.807  41.868  -3.908  0.00  0.00    +0.000 C 
ATOM     16  C   UNL     1      21.611  44.395  -2.999  0.00  0.00    +0.000 C 
ATOM     17  C   UNL     1      20.108  38.793  -1.812  0.00  0.00    +0.000 C 
ATOM     18  C   UNL     1      22.796  44.108  -2.291  0.00  0.00    +0.000 C 
ATOM     19  C   UNL     1      22.732  42.856  -1.789  0.00  0.00    +0.000 C 
ATOM     20  C   UNL     1      20.934  42.874  -4.755  0.00  0.00    +0.000 C 
ATOM     21  C   UNL     1      21.327  38.921  -0.896  0.00  0.00    +0.000 C 
ATOM     22  C   UNL     1      24.012  42.454  -1.385  0.00  0.00    +0.000 C 
ATOM     23  C   UNL     1      21.050  42.616  -6.234  0.00  0.00    +0.000 C 
ATOM     24  C   UNL     1      23.865  43.685  -7.267  0.00  0.00    +0.000 C 
ATOM     25  C   UNL     1      25.207  43.883  -2.448  0.00  0.00    +0.000 C 
ATOM     26  C   UNL     1      19.836  42.453  -7.159  0.00  0.00    +0.000 C 
ATOM     27  C   UNL     1      26.129  43.897  -3.433  0.00  0.00    +0.000 C 
ATOM     28  C   UNL     1      27.366  43.028  -3.375  0.00  0.00    +0.000 C 
ATOM     29  C   UNL     1      25.794  44.407  -4.719  0.00  0.00    +0.000 C 
ATOM     30  C   UNL     1      25.356  44.584  -5.825  0.00  0.00    +0.000 C 
ENDROOT
BRANCH  17  31
ATOM     31  O   UNL     1      18.900  38.584  -1.102  0.00  0.00    +0.000 OA
ATOM     32  H   UNL     1      18.348  38.026  -1.681  0.00  0.00    +0.000 HD
ENDBRANCH  17  31
BRANCH  17  33
ATOM     33  C   UNL     1      20.278  37.736  -2.826  0.00  0.00    +0.000 C 
BRANCH  33  34
ATOM     34  O   UNL     1      20.456  36.788  -3.744  0.00  0.00    +0.000 OA
ATOM     35  H   UNL     1      21.392  36.518  -3.795  0.00  0.00    +0.000 HD
ENDBRANCH  33  34
ENDBRANCH  17  33
BRANCH  24  36
ATOM     36  C   UNL     1      23.292  43.731  -8.432  0.00  0.00    +0.000 C 
BRANCH  36  37
ATOM     37  C   UNL     1      22.575  43.804  -9.784  0.00  0.00    +0.000 C 
ATOM     38  C   UNL     1      21.981  43.857 -10.826  0.00  0.00    +0.000 C 
BRANCH  38  39
ATOM     39  C   UNL     1      21.199  43.921 -12.142  0.00  0.00    +0.000 C 
ATOM     40  C   UNL     1      20.574  43.971 -13.166  0.00  0.00    +0.000 C 
BRANCH  40  41
ATOM     41  C   UNL     1      19.770  44.036 -14.467  0.00  0.00    +0.000 C 
ATOM     42  C   UNL     1      19.073  44.094 -15.601  0.00  0.00    +0.000 C 
ENDBRANCH  40  41
ENDBRANCH  38  39
ENDBRANCH  36  37
ENDBRANCH  24  36
BRANCH  15  43
ATOM     43  O   UNL     1      17.451  42.009  -4.224  0.00  0.00    +0.000 OA
BRANCH  43  45
ATOM     44  O   UNL     1      17.468  40.476  -5.977  0.00  0.00    +0.000 OA
ATOM     45  C   UNL     1      17.111  41.523  -5.456  0.00  0.00    +0.000 C 
BRANCH  45  46
ATOM     46  C   UNL     1      16.235  42.415  -6.152  0.00  0.00    +0.000 C 
ATOM     47  C   UNL     1      15.506  43.161  -6.740  0.00  0.00    +0.000 C 
ATOM     48  C   UNL     1      14.567  44.119  -7.477  0.00  0.00    +0.000 C 
ENDBRANCH  45  46
ENDBRANCH  43  45
ENDBRANCH  15  43
TORSDOF 10
ENDMDL
MODEL 8
REMARK VINA RESULT:      -6.0     27.338     30.729
REMARK  Name = Thapsigargin.pdbqt.pdb
REMARK  10 active torsions:
REMARK  status: ('A' for Active; 'I' for Inactive)
REMARK    1  A    between atoms: O_2  and  C_24
REMARK    2  A    between atoms: C_17  and  O_43
REMARK    3  A    between atoms: C_19  and  C_24
REMARK    4  A    between atoms: C_19  and  O_47
REMARK    5  A    between atoms: C_27  and  C_35
REMARK    6  A    between atoms: C_35  and  C_36
REMARK    7  A    between atoms: C_37  and  C_38
REMARK    8  A    between atoms: C_39  and  C_40
REMARK    9  A    between atoms: C_42  and  O_43
REMARK   10  A    between atoms: C_42  and  C_44
REMARK                            x       y       z     vdW  Elec       q    Type
REMARK                         _______ _______ _______ _____ _____    ______ ____
ROOT
ATOM      1  O   UNL     1      -0.184  35.361  31.628  0.00  0.00    +0.000 OA
ATOM      2  O   UNL     1       1.449  29.659  32.859  0.00  0.00    +0.000 OA
ATOM      3  O   UNL     1      -0.453  29.367  31.174  0.00  0.00    +0.000 OA
ATOM      4  O   UNL     1      -2.167  31.379  34.406  0.00  0.00    +0.000 OA
ATOM      5  O   UNL     1       0.071  37.318  30.474  0.00  0.00    +0.000 OA
ATOM      6  O   UNL     1       0.839  29.556  30.491  0.00  0.00    +0.000 OA
ATOM      7  O   UNL     1      -1.781  27.518  32.076  0.00  0.00    +0.000 OA
ATOM      8  O   UNL     1      -3.489  33.062  33.132  0.00  0.00    +0.000 OA
ATOM      9  C   UNL     1       1.140  32.122  33.395  0.00  0.00    +0.000 C 
ATOM     10  C   UNL     1       1.974  34.536  31.389  0.00  0.00    +0.000 C 
ATOM     11  C   UNL     1       0.688  34.343  31.989  0.00  0.00    +0.000 C 
ATOM     12  C   UNL     1       2.577  31.855  33.100  0.00  0.00    +0.000 C 
ATOM     13  C   UNL     1       0.354  33.341  32.832  0.00  0.00    +0.000 C 
ATOM     14  C   UNL     1       2.929  33.737  31.734  0.00  0.00    +0.000 C 
ATOM     15  C   UNL     1       3.456  32.637  32.445  0.00  0.00    +0.000 C 
ATOM     16  C   UNL     1       0.292  31.610  34.448  0.00  0.00    +0.000 C 
ATOM     17  C   UNL     1       1.950  35.753  30.557  0.00  0.00    +0.000 C 
ATOM     18  C   UNL     1      -1.003  32.146  34.295  0.00  0.00    +0.000 C 
ATOM     19  C   UNL     1      -0.955  33.223  33.482  0.00  0.00    +0.000 C 
ATOM     20  C   UNL     1       1.534  31.038  32.451  0.00  0.00    +0.000 C 
ATOM     21  C   UNL     1       0.530  36.243  30.851  0.00  0.00    +0.000 C 
ATOM     22  C   UNL     1      -2.253  33.545  33.065  0.00  0.00    +0.000 C 
ATOM     23  C   UNL     1       1.826  29.909  31.498  0.00  0.00    +0.000 C 
ATOM     24  C   UNL     1      -0.716  28.001  31.325  0.00  0.00    +0.000 C 
ATOM     25  C   UNL     1      -3.262  31.708  33.523  0.00  0.00    +0.000 C 
ATOM     26  C   UNL     1       3.246  29.429  31.171  0.00  0.00    +0.000 C 
ATOM     27  C   UNL     1      -3.898  30.714  32.870  0.00  0.00    +0.000 C 
ATOM     28  C   UNL     1      -5.023  30.994  31.898  0.00  0.00    +0.000 C 
ATOM     29  C   UNL     1      -3.292  29.431  32.758  0.00  0.00    +0.000 C 
ATOM     30  C   UNL     1      -2.604  28.488  32.471  0.00  0.00    +0.000 C 
ENDROOT
BRANCH  17  31
ATOM     31  O   UNL     1       2.949  36.668  30.973  0.00  0.00    +0.000 OA
ATOM     32  H   UNL     1       3.387  36.248  31.737  0.00  0.00    +0.000 HD
ENDBRANCH  17  31
BRANCH  17  33
ATOM     33  C   UNL     1       2.143  35.417  29.135  0.00  0.00    +0.000 C 
BRANCH  33  34
ATOM     34  O   UNL     1       2.342  35.119  27.852  0.00  0.00    +0.000 OA
ATOM     35  H   UNL     1       3.049  35.671  27.468  0.00  0.00    +0.000 HD
ENDBRANCH  33  34
ENDBRANCH  17  33
BRANCH  24  36
ATOM     36  C   UNL     1       0.130  27.099  30.925  0.00  0.00    +0.000 C 
BRANCH  36  37
ATOM     37  C   UNL     1       1.159  26.050  30.491  0.00  0.00    +0.000 C 
ATOM     38  C   UNL     1       1.987  25.256  30.141  0.00  0.00    +0.000 C 
BRANCH  38  39
ATOM     39  C   UNL     1       3.062  24.262  29.687  0.00  0.00    +0.000 C 
ATOM     40  C   UNL     1       3.898  23.474  29.341  0.00  0.00    +0.000 C 
BRANCH  40  41
ATOM     41  C   UNL     1       4.961  22.462  28.903  0.00  0.00    +0.000 C 
ATOM     42  C   UNL     1       5.884  21.579  28.523  0.00  0.00    +0.000 C 
ENDBRANCH  40  41
ENDBRANCH  38  39
ENDBRANCH  36  37
ENDBRANCH  24  36
BRANCH  15  43
ATOM     43  O   UNL     1       4.828  32.536  32.698  0.00  0.00    +0.000 OA
BRANCH  43  45
ATOM     44  O   UNL     1       6.039  31.289  31.148  0.00  0.00    +0.000 OA
ATOM     45  C   UNL     1       5.590  32.342  31.579  0.00  0.00    +0.000 C 
BRANCH  45  46
ATOM     46  C   UNL     1       5.848  33.572  30.895  0.00  0.00    +0.000 C 
ATOM     47  C   UNL     1       6.068  34.598  30.319  0.00  0.00    +0.000 C 
ATOM     48  C   UNL     1       6.344  35.918  29.594  0.00  0.00    +0.000 C 
ENDBRANCH  45  46
ENDBRANCH  43  45
ENDBRANCH  15  43
TORSDOF 10
ENDMDL
MODEL 9
REMARK VINA RESULT:      -6.0     25.283     27.974
REMARK  Name = Thapsigargin.pdbqt.pdb
REMARK  10 active torsions:
REMARK  status: ('A' for Active; 'I' for Inactive)
REMARK    1  A    between atoms: O_2  and  C_24
REMARK    2  A    between atoms: C_17  and  O_43
REMARK    3  A    between atoms: C_19  and  C_24
REMARK    4  A    between atoms: C_19  and  O_47
REMARK    5  A    between atoms: C_27  and  C_35
REMARK    6  A    between atoms: C_35  and  C_36
REMARK    7  A    between atoms: C_37  and  C_38
REMARK    8  A    between atoms: C_39  and  C_40
REMARK    9  A    between atoms: C_42  and  O_43
REMARK   10  A    between atoms: C_42  and  C_44
REMARK                            x       y       z     vdW  Elec       q    Type
REMARK                         _______ _______ _______ _____ _____    ______ ____
ROOT
ATOM      1  O   UNL     1      -2.207  25.075  33.648  0.00  0.00    +0.000 OA
ATOM      2  O   UNL     1       1.926  25.380  29.229  0.00  0.00    +0.000 OA
ATOM      3  O   UNL     1       3.131  26.432  31.225  0.00  0.00    +0.000 OA
ATOM      4  O   UNL     1      -0.218  28.842  30.587  0.00  0.00    +0.000 OA
ATOM      5  O   UNL     1      -3.268  23.947  35.329  0.00  0.00    +0.000 OA
ATOM      6  O   UNL     1       3.284  24.967  31.223  0.00  0.00    +0.000 OA
ATOM      7  O   UNL     1       4.274  28.381  30.281  0.00  0.00    +0.000 OA
ATOM      8  O   UNL     1      -0.927  29.119  32.959  0.00  0.00    +0.000 OA
ATOM      9  C   UNL     1      -0.437  25.337  30.160  0.00  0.00    +0.000 C 
ATOM     10  C   UNL     1      -1.459  23.247  32.426  0.00  0.00    +0.000 C 
ATOM     11  C   UNL     1      -1.564  24.674  32.484  0.00  0.00    +0.000 C 
ATOM     12  C   UNL     1      -0.106  24.002  29.584  0.00  0.00    +0.000 C 
ATOM     13  C   UNL     1      -1.146  25.535  31.531  0.00  0.00    +0.000 C 
ATOM     14  C   UNL     1      -0.997  22.719  31.341  0.00  0.00    +0.000 C 
ATOM     15  C   UNL     1      -0.457  22.785  30.038  0.00  0.00    +0.000 C 
ATOM     16  C   UNL     1      -0.526  26.633  29.525  0.00  0.00    +0.000 C 
ATOM     17  C   UNL     1      -2.052  22.660  33.641  0.00  0.00    +0.000 C 
ATOM     18  C   UNL     1      -0.853  27.598  30.498  0.00  0.00    +0.000 C 
ATOM     19  C   UNL     1      -1.341  26.987  31.599  0.00  0.00    +0.000 C 
ATOM     20  C   UNL     1       0.967  24.836  30.157  0.00  0.00    +0.000 C 
ATOM     21  C   UNL     1      -2.572  23.931  34.319  0.00  0.00    +0.000 C 
ATOM     22  C   UNL     1      -1.347  27.894  32.667  0.00  0.00    +0.000 C 
ATOM     23  C   UNL     1       2.417  24.431  30.186  0.00  0.00    +0.000 C 
ATOM     24  C   UNL     1       4.221  27.025  30.577  0.00  0.00    +0.000 C 
ATOM     25  C   UNL     1       0.007  29.375  31.911  0.00  0.00    +0.000 C 
ATOM     26  C   UNL     1       2.946  23.144  29.538  0.00  0.00    +0.000 C 
ATOM     27  C   UNL     1       1.218  29.885  32.213  0.00  0.00    +0.000 C 
ATOM     28  C   UNL     1       1.534  30.419  33.593  0.00  0.00    +0.000 C 
ATOM     29  C   UNL     1       2.345  29.583  31.397  0.00  0.00    +0.000 C 
ATOM     30  C   UNL     1       3.272  29.061  30.837  0.00  0.00    +0.000 C 
ENDROOT
BRANCH  17  31
ATOM     31  O   UNL     1      -3.084  21.748  33.308  0.00  0.00    +0.000 OA
ATOM     32  H   UNL     1      -2.633  20.910  33.092  0.00  0.00    +0.000 HD
ENDBRANCH  17  31
BRANCH  17  33
ATOM     33  C   UNL     1      -1.024  21.976  34.447  0.00  0.00    +0.000 C 
BRANCH  33  34
ATOM     34  O   UNL     1      -0.086  21.349  35.154  0.00  0.00    +0.000 OA
ATOM     35  H   UNL     1      -0.322  21.316  36.100  0.00  0.00    +0.000 HD
ENDBRANCH  33  34
ENDBRANCH  17  33
BRANCH  24  36
ATOM     36  C   UNL     1       5.166  26.308  30.047  0.00  0.00    +0.000 C 
BRANCH  36  37
ATOM     37  C   UNL     1       6.288  25.500  29.387  0.00  0.00    +0.000 C 
ATOM     38  C   UNL     1       7.145  24.838  28.869  0.00  0.00    +0.000 C 
BRANCH  38  39
ATOM     39  C   UNL     1       8.220  23.972  28.205  0.00  0.00    +0.000 C 
ATOM     40  C   UNL     1       9.058  23.298  27.671  0.00  0.00    +0.000 C 
BRANCH  40  41
ATOM     41  C   UNL     1      10.124  22.441  26.983  0.00  0.00    +0.000 C 
ATOM     42  C   UNL     1      11.053  21.698  26.382  0.00  0.00    +0.000 C 
ENDBRANCH  40  41
ENDBRANCH  38  39
ENDBRANCH  36  37
ENDBRANCH  24  36
BRANCH  15  43
ATOM     43  O   UNL     1      -0.555  21.696  29.164  0.00  0.00    +0.000 OA
BRANCH  43  45
ATOM     44  O   UNL     1       1.171  20.370  29.993  0.00  0.00    +0.000 OA
ATOM     45  C   UNL     1       0.014  20.546  29.638  0.00  0.00    +0.000 C 
BRANCH  45  46
ATOM     46  C   UNL     1      -0.929  19.471  29.684  0.00  0.00    +0.000 C 
ATOM     47  C   UNL     1      -1.722  18.575  29.720  0.00  0.00    +0.000 C 
ATOM     48  C   UNL     1      -2.726  17.421  29.776  0.00  0.00    +0.000 C 
ENDBRANCH  45  46
ENDBRANCH  43  45
ENDBRANCH  15  43
TORSDOF 10
ENDMDL
