MODEL 1
REMARK VINA RESULT:      -6.1      0.000      0.000
REMARK  Name = Thioguanosine.pdbqt.pdb
REMARK  5 active torsions:
REMARK  status: ('A' for Active; 'I' for Inactive)
REMARK    1  A    between atoms: N_2  and  C1*_12
REMARK    2  A    between atoms: C4*_14  and  C5*_17
REMARK    3  A    between atoms: C3*_15  and  O3*_20
REMARK    4  A    between atoms: C2*_16  and  O2*_22
REMARK    5  A    between atoms: C5*_17  and  O5*_18
REMARK                            x       y       z     vdW  Elec       q    Type
REMARK                         _______ _______ _______ _____ _____    ______ ____
ROOT
ATOM      1  S   UNL     1      -8.197  40.668  13.906  0.00  0.00    +0.000 S 
ATOM      2  N   UNL     1      -5.711  43.891  11.181  0.00  0.00    +0.000 N 
ATOM      3  N   UNL     1      -4.349  42.632  12.799  0.00  0.00    +0.000 N 
ATOM      4  N   UNL     1      -7.681  42.895  11.682  0.00  0.00    +0.000 NA
ATOM      5  N   UNL     1      -5.515  41.084  14.178  0.00  0.00    +0.000 NA
ATOM      6  C   UNL     1      -5.491  42.968  12.172  0.00  0.00    +0.000 A 
ATOM      7  C   UNL     1      -7.067  43.777  10.918  0.00  0.00    +0.000 A 
ATOM      8  C   UNL     1      -6.691  42.383  12.485  0.00  0.00    +0.000 A 
ATOM      9  C   UNL     1      -6.726  41.377  13.548  0.00  0.00    +0.000 A 
ATOM     10  C   UNL     1      -4.431  41.692  13.790  0.00  0.00    +0.000 A 
ATOM     11  H   UNL     1      -3.459  43.084  12.605  0.00  0.00    +0.000 HD
ATOM     12  N   UNL     1      -3.243  41.422  14.381  0.00  0.00    +0.000 N 
ATOM     13  H   UNL     1      -2.481  41.265  13.734  0.00  0.00    +0.000 HD
ATOM     14  H   UNL     1      -3.335  40.638  15.023  0.00  0.00    +0.000 HD
ENDROOT
BRANCH   2  15
ATOM     15  C1* UNL     1      -4.848  44.773  10.559  0.00  0.00    +0.000 A 
ATOM     16  O4* UNL     1      -4.717  44.824   9.151  0.00  0.00    +0.000 OA
ATOM     17  C4* UNL     1      -3.765  45.798   8.808  0.00  0.00    +0.000 A 
ATOM     18  C3* UNL     1      -3.277  46.393  10.020  0.00  0.00    +0.000 A 
ATOM     19  C2* UNL     1      -3.957  45.764  11.110  0.00  0.00    +0.000 A 
BRANCH  18  20
ATOM     20  O3* UNL     1      -1.997  46.850  10.176  0.00  0.00    +0.000 OA
ATOM     21  H3* UNL     1      -1.825  47.129  11.094  0.00  0.00    +0.000 HD
ENDBRANCH  18  20
BRANCH  19  22
ATOM     22  O2* UNL     1      -3.348  45.625  12.327  0.00  0.00    +0.000 OA
ATOM     23  H2* UNL     1      -3.228  46.508  12.732  0.00  0.00    +0.000 HD
ENDBRANCH  19  22
BRANCH  17  24
ATOM     24  C5* UNL     1      -3.229  45.918   7.513  0.00  0.00    +0.000 C 
BRANCH  24  25
ATOM     25  O5* UNL     1      -2.704  46.020   6.297  0.00  0.00    +0.000 OA
ATOM     26  H5* UNL     1      -2.855  45.204   5.788  0.00  0.00    +0.000 HD
ENDBRANCH  24  25
ENDBRANCH  17  24
ENDBRANCH   2  15
TORSDOF 5
ENDMDL
MODEL 2
REMARK VINA RESULT:      -5.8      4.269      6.320
REMARK  Name = Thioguanosine.pdbqt.pdb
REMARK  5 active torsions:
REMARK  status: ('A' for Active; 'I' for Inactive)
REMARK    1  A    between atoms: N_2  and  C1*_12
REMARK    2  A    between atoms: C4*_14  and  C5*_17
REMARK    3  A    between atoms: C3*_15  and  O3*_20
REMARK    4  A    between atoms: C2*_16  and  O2*_22
REMARK    5  A    between atoms: C5*_17  and  O5*_18
REMARK                            x       y       z     vdW  Elec       q    Type
REMARK                         _______ _______ _______ _____ _____    ______ ____
ROOT
ATOM      1  S   UNL     1      -7.362  44.837  11.777  0.00  0.00    +0.000 S 
ATOM      2  N   UNL     1      -3.732  42.108  13.613  0.00  0.00    +0.000 N 
ATOM      3  N   UNL     1      -5.083  41.004  11.876  0.00  0.00    +0.000 N 
ATOM      4  N   UNL     1      -4.835  44.084  13.571  0.00  0.00    +0.000 NA
ATOM      5  N   UNL     1      -6.887  42.271  10.982  0.00  0.00    +0.000 NA
ATOM      6  C   UNL     1      -4.735  42.025  12.680  0.00  0.00    +0.000 A 
ATOM      7  C   UNL     1      -3.841  43.400  14.102  0.00  0.00    +0.000 A 
ATOM      8  C   UNL     1      -5.411  43.218  12.674  0.00  0.00    +0.000 A 
ATOM      9  C   UNL     1      -6.558  43.371  11.777  0.00  0.00    +0.000 A 
ATOM     10  C   UNL     1      -6.165  41.190  11.059  0.00  0.00    +0.000 A 
ATOM     11  H   UNL     1      -4.615  40.101  11.897  0.00  0.00    +0.000 HD
ATOM     12  N   UNL     1      -6.459  40.111  10.295  0.00  0.00    +0.000 N 
ATOM     13  H   UNL     1      -5.662  39.703   9.826  0.00  0.00    +0.000 HD
ATOM     14  H   UNL     1      -7.190  40.339   9.625  0.00  0.00    +0.000 HD
ENDROOT
BRANCH   2  15
ATOM     15  C1* UNL     1      -2.811  41.169  14.035  0.00  0.00    +0.000 A 
ATOM     16  O4* UNL     1      -2.959  39.792  13.744  0.00  0.00    +0.000 OA
ATOM     17  C4* UNL     1      -1.887  39.080  14.308  0.00  0.00    +0.000 A 
ATOM     18  C3* UNL     1      -1.027  40.019  14.971  0.00  0.00    +0.000 A 
ATOM     19  C2* UNL     1      -1.594  41.320  14.794  0.00  0.00    +0.000 A 
BRANCH  18  20
ATOM     20  O3* UNL     1      -0.315  39.723  16.102  0.00  0.00    +0.000 OA
ATOM     21  H3* UNL     1      -0.168  38.764  16.192  0.00  0.00    +0.000 HD
ENDBRANCH  18  20
BRANCH  19  22
ATOM     22  O2* UNL     1      -1.420  42.293  15.739  0.00  0.00    +0.000 OA
ATOM     23  H2* UNL     1      -0.465  42.487  15.833  0.00  0.00    +0.000 HD
ENDBRANCH  19  22
BRANCH  17  24
ATOM     24  C5* UNL     1      -1.873  37.677  14.410  0.00  0.00    +0.000 C 
BRANCH  24  25
ATOM     25  O5* UNL     1      -1.869  36.353  14.527  0.00  0.00    +0.000 OA
ATOM     26  H5* UNL     1      -1.969  35.932  13.656  0.00  0.00    +0.000 HD
ENDBRANCH  24  25
ENDBRANCH  17  24
ENDBRANCH   2  15
TORSDOF 5
ENDMDL
MODEL 3
REMARK VINA RESULT:      -5.5      4.260      6.921
REMARK  Name = Thioguanosine.pdbqt.pdb
REMARK  5 active torsions:
REMARK  status: ('A' for Active; 'I' for Inactive)
REMARK    1  A    between atoms: N_2  and  C1*_12
REMARK    2  A    between atoms: C4*_14  and  C5*_17
REMARK    3  A    between atoms: C3*_15  and  O3*_20
REMARK    4  A    between atoms: C2*_16  and  O2*_22
REMARK    5  A    between atoms: C5*_17  and  O5*_18
REMARK                            x       y       z     vdW  Elec       q    Type
REMARK                         _______ _______ _______ _____ _____    ______ ____
ROOT
ATOM      1  S   UNL     1      -5.504  45.369  10.019  0.00  0.00    +0.000 S 
ATOM      2  N   UNL     1      -4.246  42.836  14.018  0.00  0.00    +0.000 N 
ATOM      3  N   UNL     1      -5.184  41.485  12.186  0.00  0.00    +0.000 N 
ATOM      4  N   UNL     1      -4.354  44.825  12.943  0.00  0.00    +0.000 NA
ATOM      5  N   UNL     1      -5.853  42.672  10.237  0.00  0.00    +0.000 NA
ATOM      6  C   UNL     1      -4.775  42.626  12.769  0.00  0.00    +0.000 A 
ATOM      7  C   UNL     1      -3.994  44.198  14.045  0.00  0.00    +0.000 A 
ATOM      8  C   UNL     1      -4.857  43.838  12.132  0.00  0.00    +0.000 A 
ATOM      9  C   UNL     1      -5.425  43.884  10.783  0.00  0.00    +0.000 A 
ATOM     10  C   UNL     1      -5.715  41.578  10.928  0.00  0.00    +0.000 A 
ATOM     11  H   UNL     1      -5.166  40.585  12.661  0.00  0.00    +0.000 HD
ATOM     12  N   UNL     1      -6.116  40.388  10.420  0.00  0.00    +0.000 N 
ATOM     13  H   UNL     1      -5.442  39.642  10.522  0.00  0.00    +0.000 HD
ATOM     14  H   UNL     1      -6.389  40.493   9.445  0.00  0.00    +0.000 HD
ENDROOT
BRANCH   2  15
ATOM     15  C1* UNL     1      -4.010  41.958  15.059  0.00  0.00    +0.000 A 
ATOM     16  O4* UNL     1      -3.906  42.399  16.399  0.00  0.00    +0.000 OA
ATOM     17  C4* UNL     1      -3.652  41.297  17.232  0.00  0.00    +0.000 A 
ATOM     18  C3* UNL     1      -3.599  40.120  16.412  0.00  0.00    +0.000 A 
ATOM     19  C2* UNL     1      -3.832  40.527  15.061  0.00  0.00    +0.000 A 
BRANCH  18  20
ATOM     20  O3* UNL     1      -2.792  39.047  16.681  0.00  0.00    +0.000 OA
ATOM     21  H3* UNL     1      -2.000  39.042  16.112  0.00  0.00    +0.000 HD
ENDBRANCH  18  20
BRANCH  19  22
ATOM     22  O2* UNL     1      -3.269  39.844  14.018  0.00  0.00    +0.000 OA
ATOM     23  H2* UNL     1      -3.195  40.439  13.244  0.00  0.00    +0.000 HD
ENDBRANCH  19  22
BRANCH  17  24
ATOM     24  C5* UNL     1      -3.252  41.431  18.574  0.00  0.00    +0.000 C 
BRANCH  24  25
ATOM     25  O5* UNL     1      -2.897  41.558  19.848  0.00  0.00    +0.000 OA
ATOM     26  H5* UNL     1      -2.266  40.860  20.099  0.00  0.00    +0.000 HD
ENDBRANCH  24  25
ENDBRANCH  17  24
ENDBRANCH   2  15
TORSDOF 5
ENDMDL
MODEL 4
REMARK VINA RESULT:      -5.2      4.113      6.167
REMARK  Name = Thioguanosine.pdbqt.pdb
REMARK  5 active torsions:
REMARK  status: ('A' for Active; 'I' for Inactive)
REMARK    1  A    between atoms: N_2  and  C1*_12
REMARK    2  A    between atoms: C4*_14  and  C5*_17
REMARK    3  A    between atoms: C3*_15  and  O3*_20
REMARK    4  A    between atoms: C2*_16  and  O2*_22
REMARK    5  A    between atoms: C5*_17  and  O5*_18
REMARK                            x       y       z     vdW  Elec       q    Type
REMARK                         _______ _______ _______ _____ _____    ______ ____
ROOT
ATOM      1  S   UNL     1      -7.761  44.324  11.269  0.00  0.00    +0.000 S 
ATOM      2  N   UNL     1      -4.100  42.608  14.034  0.00  0.00    +0.000 N 
ATOM      3  N   UNL     1      -5.733  40.915  13.308  0.00  0.00    +0.000 N 
ATOM      4  N   UNL     1      -5.073  44.362  12.985  0.00  0.00    +0.000 NA
ATOM      5  N   UNL     1      -7.555  41.703  11.999  0.00  0.00    +0.000 NA
ATOM      6  C   UNL     1      -5.219  42.156  13.382  0.00  0.00    +0.000 A 
ATOM      7  C   UNL     1      -4.063  43.960  13.731  0.00  0.00    +0.000 A 
ATOM      8  C   UNL     1      -5.815  43.227  12.766  0.00  0.00    +0.000 A 
ATOM      9  C   UNL     1      -7.057  43.008  12.022  0.00  0.00    +0.000 A 
ATOM     10  C   UNL     1      -6.898  40.759  12.609  0.00  0.00    +0.000 A 
ATOM     11  H   UNL     1      -5.323  40.119  13.791  0.00  0.00    +0.000 HD
ATOM     12  N   UNL     1      -7.357  39.484  12.596  0.00  0.00    +0.000 N 
ATOM     13  H   UNL     1      -6.654  38.791  12.375  0.00  0.00    +0.000 HD
ATOM     14  H   UNL     1      -8.153  39.399  11.969  0.00  0.00    +0.000 HD
ENDROOT
BRANCH   2  15
ATOM     15  C1* UNL     1      -3.192  41.944  14.837  0.00  0.00    +0.000 A 
ATOM     16  O4* UNL     1      -1.805  41.942  14.554  0.00  0.00    +0.000 OA
ATOM     17  C4* UNL     1      -1.135  41.180  15.525  0.00  0.00    +0.000 A 
ATOM     18  C3* UNL     1      -2.108  40.688  16.458  0.00  0.00    +0.000 A 
ATOM     19  C2* UNL     1      -3.387  41.170  16.038  0.00  0.00    +0.000 A 
BRANCH  18  20
ATOM     20  O3* UNL     1      -2.000  39.483  17.097  0.00  0.00    +0.000 OA
ATOM     21  H3* UNL     1      -2.830  39.240  17.547  0.00  0.00    +0.000 HD
ENDBRANCH  18  20
BRANCH  19  22
ATOM     22  O2* UNL     1      -4.522  40.447  16.283  0.00  0.00    +0.000 OA
ATOM     23  H2* UNL     1      -4.335  39.773  16.968  0.00  0.00    +0.000 HD
ENDBRANCH  19  22
BRANCH  17  24
ATOM     24  C5* UNL     1       0.207  40.780  15.387  0.00  0.00    +0.000 C 
BRANCH  24  25
ATOM     25  O5* UNL     1       1.468  40.389  15.239  0.00  0.00    +0.000 OA
ATOM     26  H5* UNL     1       2.080  41.068  15.576  0.00  0.00    +0.000 HD
ENDBRANCH  24  25
ENDBRANCH  17  24
ENDBRANCH   2  15
TORSDOF 5
ENDMDL
MODEL 5
REMARK VINA RESULT:      -4.9     20.194     22.360
REMARK  Name = Thioguanosine.pdbqt.pdb
REMARK  5 active torsions:
REMARK  status: ('A' for Active; 'I' for Inactive)
REMARK    1  A    between atoms: N_2  and  C1*_12
REMARK    2  A    between atoms: C4*_14  and  C5*_17
REMARK    3  A    between atoms: C3*_15  and  O3*_20
REMARK    4  A    between atoms: C2*_16  and  O2*_22
REMARK    5  A    between atoms: C5*_17  and  O5*_18
REMARK                            x       y       z     vdW  Elec       q    Type
REMARK                         _______ _______ _______ _____ _____    ______ ____
ROOT
ATOM      1  S   UNL     1      14.142  27.036  19.296  0.00  0.00    +0.000 S 
ATOM      2  N   UNL     1      10.283  28.103  16.474  0.00  0.00    +0.000 N 
ATOM      3  N   UNL     1      10.177  29.005  18.762  0.00  0.00    +0.000 N 
ATOM      4  N   UNL     1      12.311  27.119  16.687  0.00  0.00    +0.000 NA
ATOM      5  N   UNL     1      12.006  28.479  20.188  0.00  0.00    +0.000 NA
ATOM      6  C   UNL     1      10.744  28.329  17.747  0.00  0.00    +0.000 A 
ATOM      7  C   UNL     1      11.301  27.375  15.879  0.00  0.00    +0.000 A 
ATOM      8  C   UNL     1      11.963  27.713  17.875  0.00  0.00    +0.000 A 
ATOM      9  C   UNL     1      12.652  27.783  19.165  0.00  0.00    +0.000 A 
ATOM     10  C   UNL     1      10.854  29.038  19.950  0.00  0.00    +0.000 A 
ATOM     11  H   UNL     1       9.256  29.434  18.694  0.00  0.00    +0.000 HD
ATOM     12  N   UNL     1      10.209  29.724  20.924  0.00  0.00    +0.000 N 
ATOM     13  H   UNL     1       9.854  30.626  20.634  0.00  0.00    +0.000 HD
ATOM     14  H   UNL     1      10.803  29.820  21.744  0.00  0.00    +0.000 HD
ENDROOT
BRANCH   2  15
ATOM     15  C1* UNL     1       9.095  28.460  15.866  0.00  0.00    +0.000 A 
ATOM     16  O4* UNL     1       8.216  29.408  16.442  0.00  0.00    +0.000 OA
ATOM     17  C4* UNL     1       7.091  29.560  15.614  0.00  0.00    +0.000 A 
ATOM     18  C3* UNL     1       7.252  28.698  14.478  0.00  0.00    +0.000 A 
ATOM     19  C2* UNL     1       8.503  28.021  14.627  0.00  0.00    +0.000 A 
BRANCH  18  20
ATOM     20  O3* UNL     1       6.208  28.087  13.838  0.00  0.00    +0.000 OA
ATOM     21  H3* UNL     1       5.407  28.643  13.848  0.00  0.00    +0.000 HD
ENDBRANCH  18  20
BRANCH  19  22
ATOM     22  O2* UNL     1       8.682  26.763  14.120  0.00  0.00    +0.000 OA
ATOM     23  H2* UNL     1       7.925  26.536  13.542  0.00  0.00    +0.000 HD
ENDBRANCH  19  22
BRANCH  17  24
ATOM     24  C5* UNL     1       5.927  30.235  16.025  0.00  0.00    +0.000 C 
BRANCH  24  25
ATOM     25  O5* UNL     1       4.816  30.855  16.409  0.00  0.00    +0.000 OA
ATOM     26  H5* UNL     1       4.032  30.322  16.185  0.00  0.00    +0.000 HD
ENDBRANCH  24  25
ENDBRANCH  17  24
ENDBRANCH   2  15
TORSDOF 5
ENDMDL
MODEL 6
REMARK VINA RESULT:      -4.9     30.136     31.865
REMARK  Name = Thioguanosine.pdbqt.pdb
REMARK  5 active torsions:
REMARK  status: ('A' for Active; 'I' for Inactive)
REMARK    1  A    between atoms: N_2  and  C1*_12
REMARK    2  A    between atoms: C4*_14  and  C5*_17
REMARK    3  A    between atoms: C3*_15  and  O3*_20
REMARK    4  A    between atoms: C2*_16  and  O2*_22
REMARK    5  A    between atoms: C5*_17  and  O5*_18
REMARK                            x       y       z     vdW  Elec       q    Type
REMARK                         _______ _______ _______ _____ _____    ______ ____
ROOT
ATOM      1  S   UNL     1     -13.979  14.716  27.986  0.00  0.00    +0.000 S 
ATOM      2  N   UNL     1     -10.805  17.955  29.838  0.00  0.00    +0.000 N 
ATOM      3  N   UNL     1     -12.212  18.810  28.008  0.00  0.00    +0.000 N 
ATOM      4  N   UNL     1     -11.698  15.875  29.889  0.00  0.00    +0.000 NA
ATOM      5  N   UNL     1     -13.741  17.265  27.044  0.00  0.00    +0.000 NA
ATOM      6  C   UNL     1     -11.780  17.877  28.876  0.00  0.00    +0.000 A 
ATOM      7  C   UNL     1     -10.825  16.701  30.431  0.00  0.00    +0.000 A 
ATOM      8  C   UNL     1     -12.303  16.609  28.899  0.00  0.00    +0.000 A 
ATOM      9  C   UNL     1     -13.348  16.263  27.934  0.00  0.00    +0.000 A 
ATOM     10  C   UNL     1     -13.185  18.439  27.121  0.00  0.00    +0.000 A 
ATOM     11  H   UNL     1     -11.808  19.742  27.954  0.00  0.00    +0.000 HD
ATOM     12  N   UNL     1     -13.552  19.430  26.273  0.00  0.00    +0.000 N 
ATOM     13  H   UNL     1     -13.729  20.319  26.722  0.00  0.00    +0.000 HD
ATOM     14  H   UNL     1     -14.355  19.144  25.718  0.00  0.00    +0.000 HD
ENDROOT
BRANCH   2  15
ATOM     15  C1* UNL     1      -9.953  18.987  30.181  0.00  0.00    +0.000 A 
ATOM     16  O4* UNL     1      -9.790  19.409  31.522  0.00  0.00    +0.000 OA
ATOM     17  C4* UNL     1      -8.879  20.477  31.564  0.00  0.00    +0.000 A 
ATOM     18  C3* UNL     1      -8.440  20.744  30.224  0.00  0.00    +0.000 A 
ATOM     19  C2* UNL     1      -9.098  19.812  29.363  0.00  0.00    +0.000 A 
BRANCH  18  20
ATOM     20  O3* UNL     1      -8.116  21.994  29.770  0.00  0.00    +0.000 OA
ATOM     21  H3* UNL     1      -7.506  21.952  29.010  0.00  0.00    +0.000 HD
ENDBRANCH  18  20
BRANCH  19  22
ATOM     22  O2* UNL     1      -9.398  20.145  28.070  0.00  0.00    +0.000 OA
ATOM     23  H2* UNL     1      -9.363  19.342  27.512  0.00  0.00    +0.000 HD
ENDBRANCH  19  22
BRANCH  17  24
ATOM     24  C5* UNL     1      -8.694  21.276  32.708  0.00  0.00    +0.000 C 
BRANCH  24  25
ATOM     25  O5* UNL     1      -8.531  22.047  33.777  0.00  0.00    +0.000 OA
ATOM     26  H5* UNL     1      -9.320  22.598  33.926  0.00  0.00    +0.000 HD
ENDBRANCH  24  25
ENDBRANCH  17  24
ENDBRANCH   2  15
TORSDOF 5
ENDMDL
MODEL 7
REMARK VINA RESULT:      -4.9      6.082      8.124
REMARK  Name = Thioguanosine.pdbqt.pdb
REMARK  5 active torsions:
REMARK  status: ('A' for Active; 'I' for Inactive)
REMARK    1  A    between atoms: N_2  and  C1*_12
REMARK    2  A    between atoms: C4*_14  and  C5*_17
REMARK    3  A    between atoms: C3*_15  and  O3*_20
REMARK    4  A    between atoms: C2*_16  and  O2*_22
REMARK    5  A    between atoms: C5*_17  and  O5*_18
REMARK                            x       y       z     vdW  Elec       q    Type
REMARK                         _______ _______ _______ _____ _____    ______ ____
ROOT
ATOM      1  S   UNL     1      -5.327  45.703  19.002  0.00  0.00    +0.000 S 
ATOM      2  N   UNL     1      -3.176  41.628  17.342  0.00  0.00    +0.000 N 
ATOM      3  N   UNL     1      -3.095  43.545  15.800  0.00  0.00    +0.000 N 
ATOM      4  N   UNL     1      -4.275  42.693  19.010  0.00  0.00    +0.000 NA
ATOM      5  N   UNL     1      -4.164  45.537  16.540  0.00  0.00    +0.000 NA
ATOM      6  C   UNL     1      -3.416  42.920  16.947  0.00  0.00    +0.000 A 
ATOM      7  C   UNL     1      -3.710  41.567  18.619  0.00  0.00    +0.000 A 
ATOM      8  C   UNL     1      -4.100  43.553  17.954  0.00  0.00    +0.000 A 
ATOM      9  C   UNL     1      -4.505  44.946  17.759  0.00  0.00    +0.000 A 
ATOM     10  C   UNL     1      -3.501  44.845  15.660  0.00  0.00    +0.000 A 
ATOM     11  H   UNL     1      -2.623  43.078  15.030  0.00  0.00    +0.000 HD
ATOM     12  N   UNL     1      -3.152  45.396  14.473  0.00  0.00    +0.000 N 
ATOM     13  H   UNL     1      -2.189  45.240  14.207  0.00  0.00    +0.000 HD
ATOM     14  H   UNL     1      -3.369  46.390  14.465  0.00  0.00    +0.000 HD
ENDROOT
BRANCH   2  15
ATOM     15  C1* UNL     1      -2.574  40.577  16.677  0.00  0.00    +0.000 A 
ATOM     16  O4* UNL     1      -2.918  39.229  16.941  0.00  0.00    +0.000 OA
ATOM     17  C4* UNL     1      -2.140  38.385  16.132  0.00  0.00    +0.000 A 
ATOM     18  C3* UNL     1      -1.282  39.205  15.325  0.00  0.00    +0.000 A 
ATOM     19  C2* UNL     1      -1.558  40.569  15.654  0.00  0.00    +0.000 A 
BRANCH  18  20
ATOM     20  O3* UNL     1      -0.025  38.829  14.935  0.00  0.00    +0.000 OA
ATOM     21  H3* UNL     1       0.078  37.859  14.944  0.00  0.00    +0.000 HD
ENDBRANCH  18  20
BRANCH  19  22
ATOM     22  O2* UNL     1      -0.579  41.521  15.568  0.00  0.00    +0.000 OA
ATOM     23  H2* UNL     1      -0.645  41.976  14.704  0.00  0.00    +0.000 HD
ENDBRANCH  19  22
BRANCH  17  24
ATOM     24  C5* UNL     1      -2.064  36.994  16.333  0.00  0.00    +0.000 C 
BRANCH  24  25
ATOM     25  O5* UNL     1      -2.006  35.683  16.542  0.00  0.00    +0.000 OA
ATOM     26  H5* UNL     1      -1.480  35.249  15.847  0.00  0.00    +0.000 HD
ENDBRANCH  24  25
ENDBRANCH  17  24
ENDBRANCH   2  15
TORSDOF 5
ENDMDL
MODEL 8
REMARK VINA RESULT:      -4.7     21.599     23.741
REMARK  Name = Thioguanosine.pdbqt.pdb
REMARK  5 active torsions:
REMARK  status: ('A' for Active; 'I' for Inactive)
REMARK    1  A    between atoms: N_2  and  C1*_12
REMARK    2  A    between atoms: C4*_14  and  C5*_17
REMARK    3  A    between atoms: C3*_15  and  O3*_20
REMARK    4  A    between atoms: C2*_16  and  O2*_22
REMARK    5  A    between atoms: C5*_17  and  O5*_18
REMARK                            x       y       z     vdW  Elec       q    Type
REMARK                         _______ _______ _______ _____ _____    ______ ____
ROOT
ATOM      1  S   UNL     1      14.039  27.442  22.205  0.00  0.00    +0.000 S 
ATOM      2  N   UNL     1      11.708  27.494  17.897  0.00  0.00    +0.000 N 
ATOM      3  N   UNL     1      10.741  28.966  19.617  0.00  0.00    +0.000 N 
ATOM      4  N   UNL     1      13.420  26.721  19.161  0.00  0.00    +0.000 NA
ATOM      5  N   UNL     1      11.810  28.945  21.742  0.00  0.00    +0.000 NA
ATOM      6  C   UNL     1      11.630  28.078  19.136  0.00  0.00    +0.000 A 
ATOM      7  C   UNL     1      12.837  26.694  17.978  0.00  0.00    +0.000 A 
ATOM      8  C   UNL     1      12.658  27.590  19.903  0.00  0.00    +0.000 A 
ATOM      9  C   UNL     1      12.773  28.040  21.291  0.00  0.00    +0.000 A 
ATOM     10  C   UNL     1      10.885  29.352  20.922  0.00  0.00    +0.000 A 
ATOM     11  H   UNL     1       9.952  29.307  19.073  0.00  0.00    +0.000 HD
ATOM     12  N   UNL     1       9.942  30.234  21.333  0.00  0.00    +0.000 N 
ATOM     13  H   UNL     1       9.785  31.004  20.696  0.00  0.00    +0.000 HD
ATOM     14  H   UNL     1      10.160  30.580  22.264  0.00  0.00    +0.000 HD
ENDROOT
BRANCH   2  15
ATOM     15  C1* UNL     1      10.888  27.608  16.791  0.00  0.00    +0.000 A 
ATOM     16  O4* UNL     1      10.002  28.699  16.626  0.00  0.00    +0.000 OA
ATOM     17  C4* UNL     1       9.290  28.541  15.425  0.00  0.00    +0.000 A 
ATOM     18  C3* UNL     1       9.732  27.328  14.800  0.00  0.00    +0.000 A 
ATOM     19  C2* UNL     1      10.734  26.751  15.642  0.00  0.00    +0.000 A 
BRANCH  18  20
ATOM     20  O3* UNL     1       8.919  26.527  14.045  0.00  0.00    +0.000 OA
ATOM     21  H3* UNL     1       8.340  27.052  13.461  0.00  0.00    +0.000 HD
ENDBRANCH  18  20
BRANCH  19  22
ATOM     22  O2* UNL     1      10.906  25.395  15.694  0.00  0.00    +0.000 OA
ATOM     23  H2* UNL     1      10.042  24.964  15.854  0.00  0.00    +0.000 HD
ENDBRANCH  19  22
BRANCH  17  24
ATOM     24  C5* UNL     1       8.164  29.319  15.098  0.00  0.00    +0.000 C 
BRANCH  24  25
ATOM     25  O5* UNL     1       7.108  30.055  14.767  0.00  0.00    +0.000 OA
ATOM     26  H5* UNL     1       7.186  30.374  13.851  0.00  0.00    +0.000 HD
ENDBRANCH  24  25
ENDBRANCH  17  24
ENDBRANCH   2  15
TORSDOF 5
ENDMDL
MODEL 9
REMARK VINA RESULT:      -4.7     29.934     32.298
REMARK  Name = Thioguanosine.pdbqt.pdb
REMARK  5 active torsions:
REMARK  status: ('A' for Active; 'I' for Inactive)
REMARK    1  A    between atoms: N_2  and  C1*_12
REMARK    2  A    between atoms: C4*_14  and  C5*_17
REMARK    3  A    between atoms: C3*_15  and  O3*_20
REMARK    4  A    between atoms: C2*_16  and  O2*_22
REMARK    5  A    between atoms: C5*_17  and  O5*_18
REMARK                            x       y       z     vdW  Elec       q    Type
REMARK                         _______ _______ _______ _____ _____    ______ ____
ROOT
ATOM      1  S   UNL     1     -14.875  13.830  29.271  0.00  0.00    +0.000 S 
ATOM      2  N   UNL     1     -12.095  17.787  28.490  0.00  0.00    +0.000 N 
ATOM      3  N   UNL     1     -11.380  16.371  30.372  0.00  0.00    +0.000 N 
ATOM      4  N   UNL     1     -13.858  16.508  27.870  0.00  0.00    +0.000 NA
ATOM      5  N   UNL     1     -12.721  14.460  30.822  0.00  0.00    +0.000 NA
ATOM      6  C   UNL     1     -12.167  16.708  29.335  0.00  0.00    +0.000 A 
ATOM      7  C   UNL     1     -13.147  17.588  27.609  0.00  0.00    +0.000 A 
ATOM      8  C   UNL     1     -13.248  15.949  28.966  0.00  0.00    +0.000 A 
ATOM      9  C   UNL     1     -13.560  14.748  29.743  0.00  0.00    +0.000 A 
ATOM     10  C   UNL     1     -11.713  15.245  31.073  0.00  0.00    +0.000 A 
ATOM     11  H   UNL     1     -10.598  16.945  30.681  0.00  0.00    +0.000 HD
ATOM     12  N   UNL     1     -10.882  14.985  32.110  0.00  0.00    +0.000 N 
ATOM     13  H   UNL     1      -9.898  15.045  31.881  0.00  0.00    +0.000 HD
ATOM     14  H   UNL     1     -11.098  14.080  32.522  0.00  0.00    +0.000 HD
ENDROOT
BRANCH   2  15
ATOM     15  C1* UNL     1     -11.229  18.863  28.470  0.00  0.00    +0.000 A 
ATOM     16  O4* UNL     1     -10.268  19.070  29.488  0.00  0.00    +0.000 OA
ATOM     17  C4* UNL     1      -9.545  20.242  29.212  0.00  0.00    +0.000 A 
ATOM     18  C3* UNL     1     -10.045  20.799  27.988  0.00  0.00    +0.000 A 
ATOM     19  C2* UNL     1     -11.086  19.937  27.518  0.00  0.00    +0.000 A 
BRANCH  18  20
ATOM     20  O3* UNL     1     -10.092  22.142  27.732  0.00  0.00    +0.000 OA
ATOM     21  H3* UNL     1      -9.394  22.624  28.214  0.00  0.00    +0.000 HD
ENDBRANCH  18  20
BRANCH  19  22
ATOM     22  O2* UNL     1     -12.133  20.437  26.793  0.00  0.00    +0.000 OA
ATOM     23  H2* UNL     1     -12.294  19.862  26.018  0.00  0.00    +0.000 HD
ENDBRANCH  19  22
BRANCH  17  24
ATOM     24  C5* UNL     1      -8.695  20.852  30.153  0.00  0.00    +0.000 C 
BRANCH  24  25
ATOM     25  O5* UNL     1      -7.911  21.437  31.052  0.00  0.00    +0.000 OA
ATOM     26  H5* UNL     1      -7.272  22.028  30.617  0.00  0.00    +0.000 HD
ENDBRANCH  24  25
ENDBRANCH  17  24
ENDBRANCH   2  15
TORSDOF 5
ENDMDL
