MODEL 1
REMARK VINA RESULT:      -5.8      0.000      0.000
REMARK  Name = Trichostatin_A.pdbqt.pdb
REMARK  6 active torsions:
REMARK  status: ('A' for Active; 'I' for Inactive)
REMARK    1  A    between atoms: C_1  and  C_15
REMARK    2  A    between atoms: C_4  and  C_6
REMARK    3  A    between atoms: C_7  and  C_10
REMARK    4  A    between atoms: N_9  and  O_12
REMARK    5  A    between atoms: C_15  and  C_16
REMARK    6  A    between atoms: C_17  and  N_22
REMARK                            x       y       z     vdW  Elec       q    Type
REMARK                         _______ _______ _______ _____ _____    ______ ____
ROOT
ATOM      1  C   UNL     1      -5.980  41.973  16.846  0.00  0.00    +0.000 C 
ATOM      2  C   UNL     1      -5.653  43.381  17.300  0.00  0.00    +0.000 C 
ATOM      3  C   UNL     1      -5.214  41.480  15.762  0.00  0.00    +0.000 C 
ATOM      4  C   UNL     1      -4.547  40.984  14.773  0.00  0.00    +0.000 C 
ATOM      5  C   UNL     1      -3.370  40.099  15.046  0.00  0.00    +0.000 C 
ENDROOT
BRANCH   4   6
ATOM      6  C   UNL     1      -5.039  41.108  13.453  0.00  0.00    +0.000 C 
ATOM      7  C   UNL     1      -5.454  41.214  12.329  0.00  0.00    +0.000 C 
BRANCH   7  10
ATOM      8  O   UNL     1      -5.860  42.400  10.387  0.00  0.00    +0.000 OA
ATOM      9  N   UNL     1      -6.521  40.211  10.452  0.00  0.00    +0.000 N 
ATOM     10  C   UNL     1      -5.954  41.334  10.985  0.00  0.00    +0.000 C 
ATOM     11  H   UNL     1      -6.613  39.326  10.935  0.00  0.00    +0.000 HD
BRANCH   9  12
ATOM     12  O   UNL     1      -7.030  40.296   9.139  0.00  0.00    +0.000 OA
ATOM     13  H   UNL     1      -7.924  39.900   9.225  0.00  0.00    +0.000 HD
ENDBRANCH   9  12
ENDBRANCH   7  10
ENDBRANCH   4   6
BRANCH   1  15
ATOM     14  O   UNL     1      -7.253  40.705  18.399  0.00  0.00    +0.000 OA
ATOM     15  C   UNL     1      -7.197  41.225  17.284  0.00  0.00    +0.000 C 
BRANCH  15  16
ATOM     16  C   UNL     1      -8.364  41.108  16.387  0.00  0.00    +0.000 A 
ATOM     17  C   UNL     1     -10.707  40.894  14.815  0.00  0.00    +0.000 A 
ATOM     18  C   UNL     1      -8.653  42.074  15.428  0.00  0.00    +0.000 A 
ATOM     19  C   UNL     1      -9.248  40.052  16.588  0.00  0.00    +0.000 A 
ATOM     20  C   UNL     1      -9.804  41.956  14.648  0.00  0.00    +0.000 A 
ATOM     21  C   UNL     1     -10.395  39.944  15.801  0.00  0.00    +0.000 A 
BRANCH  17  22
ATOM     22  N   UNL     1     -11.865  40.771  14.007  0.00  0.00    +0.000 N 
ATOM     23  C   UNL     1     -12.961  39.900  14.398  0.00  0.00    +0.000 C 
ATOM     24  C   UNL     1     -11.838  41.135  12.599  0.00  0.00    +0.000 C 
ENDBRANCH  17  22
ENDBRANCH  15  16
ENDBRANCH   1  15
TORSDOF 6
ENDMDL
MODEL 2
REMARK VINA RESULT:      -5.7     24.259     26.225
REMARK  Name = Trichostatin_A.pdbqt.pdb
REMARK  6 active torsions:
REMARK  status: ('A' for Active; 'I' for Inactive)
REMARK    1  A    between atoms: C_1  and  C_15
REMARK    2  A    between atoms: C_4  and  C_6
REMARK    3  A    between atoms: C_7  and  C_10
REMARK    4  A    between atoms: N_9  and  O_12
REMARK    5  A    between atoms: C_15  and  C_16
REMARK    6  A    between atoms: C_17  and  N_22
REMARK                            x       y       z     vdW  Elec       q    Type
REMARK                         _______ _______ _______ _____ _____    ______ ____
ROOT
ATOM      1  C   UNL     1       0.240  21.959  29.493  0.00  0.00    +0.000 C 
ATOM      2  C   UNL     1       1.707  21.588  29.559  0.00  0.00    +0.000 C 
ATOM      3  C   UNL     1      -0.080  23.075  28.682  0.00  0.00    +0.000 C 
ATOM      4  C   UNL     1      -0.424  24.090  27.960  0.00  0.00    +0.000 C 
ATOM      5  C   UNL     1      -0.920  23.868  26.564  0.00  0.00    +0.000 C 
ENDROOT
BRANCH   4   6
ATOM      6  C   UNL     1      -0.524  25.374  28.544  0.00  0.00    +0.000 C 
ATOM      7  C   UNL     1      -0.611  26.467  29.037  0.00  0.00    +0.000 C 
BRANCH   7  10
ATOM      8  O   UNL     1      -0.234  28.747  29.072  0.00  0.00    +0.000 OA
ATOM      9  N   UNL     1      -1.376  27.834  30.830  0.00  0.00    +0.000 N 
ATOM     10  C   UNL     1      -0.718  27.772  29.634  0.00  0.00    +0.000 C 
ATOM     11  H   UNL     1      -1.776  27.037  31.311  0.00  0.00    +0.000 HD
BRANCH   9  12
ATOM     12  O   UNL     1      -1.491  29.097  31.449  0.00  0.00    +0.000 OA
ATOM     13  H   UNL     1      -1.087  29.701  30.788  0.00  0.00    +0.000 HD
ENDBRANCH   9  12
ENDBRANCH   7  10
ENDBRANCH   4   6
BRANCH   1  15
ATOM     14  O   UNL     1      -1.451  22.140  31.151  0.00  0.00    +0.000 OA
ATOM     15  C   UNL     1      -0.795  21.402  30.415  0.00  0.00    +0.000 C 
BRANCH  15  16
ATOM     16  C   UNL     1      -1.058  19.949  30.450  0.00  0.00    +0.000 A 
ATOM     17  C   UNL     1      -1.409  17.141  30.418  0.00  0.00    +0.000 A 
ATOM     18  C   UNL     1      -1.065  19.232  31.642  0.00  0.00    +0.000 A 
ATOM     19  C   UNL     1      -1.196  19.274  29.240  0.00  0.00    +0.000 A 
ATOM     20  C   UNL     1      -1.251  17.850  31.620  0.00  0.00    +0.000 A 
ATOM     21  C   UNL     1      -1.381  17.892  29.231  0.00  0.00    +0.000 A 
BRANCH  17  22
ATOM     22  N   UNL     1      -1.615  15.739  30.404  0.00  0.00    +0.000 N 
ATOM     23  C   UNL     1      -2.941  15.176  30.601  0.00  0.00    +0.000 C 
ATOM     24  C   UNL     1      -0.513  14.818  30.632  0.00  0.00    +0.000 C 
ENDBRANCH  17  22
ENDBRANCH  15  16
ENDBRANCH   1  15
TORSDOF 6
ENDMDL
MODEL 3
REMARK VINA RESULT:      -5.7     23.387     25.477
REMARK  Name = Trichostatin_A.pdbqt.pdb
REMARK  6 active torsions:
REMARK  status: ('A' for Active; 'I' for Inactive)
REMARK    1  A    between atoms: C_1  and  C_15
REMARK    2  A    between atoms: C_4  and  C_6
REMARK    3  A    between atoms: C_7  and  C_10
REMARK    4  A    between atoms: N_9  and  O_12
REMARK    5  A    between atoms: C_15  and  C_16
REMARK    6  A    between atoms: C_17  and  N_22
REMARK                            x       y       z     vdW  Elec       q    Type
REMARK                         _______ _______ _______ _____ _____    ______ ____
ROOT
ATOM      1  C   UNL     1      -2.176  62.901   6.739  0.00  0.00    +0.000 C 
ATOM      2  C   UNL     1      -2.714  61.521   7.059  0.00  0.00    +0.000 C 
ATOM      3  C   UNL     1      -2.952  63.675   5.844  0.00  0.00    +0.000 C 
ATOM      4  C   UNL     1      -3.620  64.420   5.026  0.00  0.00    +0.000 C 
ATOM      5  C   UNL     1      -4.564  65.449   5.570  0.00  0.00    +0.000 C 
ENDROOT
BRANCH   4   6
ATOM      6  C   UNL     1      -3.318  64.407   3.645  0.00  0.00    +0.000 C 
ATOM      7  C   UNL     1      -3.062  64.391   2.471  0.00  0.00    +0.000 C 
BRANCH   7  10
ATOM      8  O   UNL     1      -2.096  65.280   0.567  0.00  0.00    +0.000 OA
ATOM      9  N   UNL     1      -3.258  63.322   0.352  0.00  0.00    +0.000 N 
ATOM     10  C   UNL     1      -2.761  64.378   1.064  0.00  0.00    +0.000 C 
ATOM     11  H   UNL     1      -3.816  62.572   0.744  0.00  0.00    +0.000 HD
BRANCH   9  12
ATOM     12  O   UNL     1      -2.991  63.282  -1.033  0.00  0.00    +0.000 OA
ATOM     13  H   UNL     1      -3.021  62.321  -1.233  0.00  0.00    +0.000 HD
ENDBRANCH   9  12
ENDBRANCH   7  10
ENDBRANCH   4   6
BRANCH   1  15
ATOM     14  O   UNL     1       0.027  63.618   6.212  0.00  0.00    +0.000 OA
ATOM     15  C   UNL     1      -0.795  63.350   7.090  0.00  0.00    +0.000 C 
BRANCH  15  16
ATOM     16  C   UNL     1      -0.394  63.493   8.504  0.00  0.00    +0.000 A 
ATOM     17  C   UNL     1       0.392  63.946  11.185  0.00  0.00    +0.000 A 
ATOM     18  C   UNL     1      -1.263  63.191   9.548  0.00  0.00    +0.000 A 
ATOM     19  C   UNL     1       0.853  64.045   8.785  0.00  0.00    +0.000 A 
ATOM     20  C   UNL     1      -0.865  63.406  10.868  0.00  0.00    +0.000 A 
ATOM     21  C   UNL     1       1.240  64.254  10.109  0.00  0.00    +0.000 A 
BRANCH  17  22
ATOM     22  N   UNL     1       0.797  64.144  12.529  0.00  0.00    +0.000 N 
ATOM     23  C   UNL     1       1.290  65.436  12.978  0.00  0.00    +0.000 C 
ATOM     24  C   UNL     1       1.150  63.019  13.378  0.00  0.00    +0.000 C 
ENDBRANCH  17  22
ENDBRANCH  15  16
ENDBRANCH   1  15
TORSDOF 6
ENDMDL
MODEL 4
REMARK VINA RESULT:      -5.6      6.292      9.191
REMARK  Name = Trichostatin_A.pdbqt.pdb
REMARK  6 active torsions:
REMARK  status: ('A' for Active; 'I' for Inactive)
REMARK    1  A    between atoms: C_1  and  C_15
REMARK    2  A    between atoms: C_4  and  C_6
REMARK    3  A    between atoms: C_7  and  C_10
REMARK    4  A    between atoms: N_9  and  O_12
REMARK    5  A    between atoms: C_15  and  C_16
REMARK    6  A    between atoms: C_17  and  N_22
REMARK                            x       y       z     vdW  Elec       q    Type
REMARK                         _______ _______ _______ _____ _____    ______ ____
ROOT
ATOM      1  C   UNL     1      -3.988  44.689  14.029  0.00  0.00    +0.000 C 
ATOM      2  C   UNL     1      -3.860  43.199  14.269  0.00  0.00    +0.000 C 
ATOM      3  C   UNL     1      -4.478  45.071  12.757  0.00  0.00    +0.000 C 
ATOM      4  C   UNL     1      -4.914  45.473  11.609  0.00  0.00    +0.000 C 
ATOM      5  C   UNL     1      -6.364  45.817  11.450  0.00  0.00    +0.000 C 
ENDROOT
BRANCH   4   6
ATOM      6  C   UNL     1      -4.004  45.776  10.570  0.00  0.00    +0.000 C 
ATOM      7  C   UNL     1      -3.228  46.031   9.689  0.00  0.00    +0.000 C 
BRANCH   7  10
ATOM      8  O   UNL     1      -1.456  47.207   8.781  0.00  0.00    +0.000 OA
ATOM      9  N   UNL     1      -2.440  45.601   7.483  0.00  0.00    +0.000 N 
ATOM     10  C   UNL     1      -2.303  46.334   8.629  0.00  0.00    +0.000 C 
ATOM     11  H   UNL     1      -3.138  44.881   7.338  0.00  0.00    +0.000 HD
BRANCH   9  12
ATOM     12  O   UNL     1      -1.555  45.878   6.420  0.00  0.00    +0.000 OA
ATOM     13  H   UNL     1      -0.774  45.325   6.636  0.00  0.00    +0.000 HD
ENDBRANCH   9  12
ENDBRANCH   7  10
ENDBRANCH   4   6
BRANCH   1  15
ATOM     14  O   UNL     1      -4.041  46.708  15.280  0.00  0.00    +0.000 OA
ATOM     15  C   UNL     1      -3.390  45.725  14.926  0.00  0.00    +0.000 C 
BRANCH  15  16
ATOM     16  C   UNL     1      -2.004  45.577  15.414  0.00  0.00    +0.000 A 
ATOM     17  C   UNL     1       0.612  45.120  16.391  0.00  0.00    +0.000 A 
ATOM     18  C   UNL     1      -0.908  45.716  14.569  0.00  0.00    +0.000 A 
ATOM     19  C   UNL     1      -1.809  45.184  16.736  0.00  0.00    +0.000 A 
ATOM     20  C   UNL     1       0.380  45.501  15.060  0.00  0.00    +0.000 A 
ATOM     21  C   UNL     1      -0.515  44.973  17.215  0.00  0.00    +0.000 A 
BRANCH  17  22
ATOM     22  N   UNL     1       1.925  44.920  16.887  0.00  0.00    +0.000 N 
ATOM     23  C   UNL     1       2.266  45.264  18.258  0.00  0.00    +0.000 C 
ATOM     24  C   UNL     1       3.056  44.792  15.983  0.00  0.00    +0.000 C 
ENDBRANCH  17  22
ENDBRANCH  15  16
ENDBRANCH   1  15
TORSDOF 6
ENDMDL
MODEL 5
REMARK VINA RESULT:      -5.5     31.795     33.773
REMARK  Name = Trichostatin_A.pdbqt.pdb
REMARK  6 active torsions:
REMARK  status: ('A' for Active; 'I' for Inactive)
REMARK    1  A    between atoms: C_1  and  C_15
REMARK    2  A    between atoms: C_4  and  C_6
REMARK    3  A    between atoms: C_7  and  C_10
REMARK    4  A    between atoms: N_9  and  O_12
REMARK    5  A    between atoms: C_15  and  C_16
REMARK    6  A    between atoms: C_17  and  N_22
REMARK                            x       y       z     vdW  Elec       q    Type
REMARK                         _______ _______ _______ _____ _____    ______ ____
ROOT
ATOM      1  C   UNL     1      17.091  42.793  -6.349  0.00  0.00    +0.000 C 
ATOM      2  C   UNL     1      15.893  43.403  -7.049  0.00  0.00    +0.000 C 
ATOM      3  C   UNL     1      17.938  41.994  -7.154  0.00  0.00    +0.000 C 
ATOM      4  C   UNL     1      18.738  41.250  -7.843  0.00  0.00    +0.000 C 
ATOM      5  C   UNL     1      19.990  41.844  -8.414  0.00  0.00    +0.000 C 
ENDROOT
BRANCH   4   6
ATOM      6  C   UNL     1      18.542  39.850  -7.891  0.00  0.00    +0.000 C 
ATOM      7  C   UNL     1      18.373  38.661  -7.928  0.00  0.00    +0.000 C 
BRANCH   7  10
ATOM      8  O   UNL     1      19.094  36.473  -7.734  0.00  0.00    +0.000 OA
ATOM      9  N   UNL     1      16.910  36.822  -8.317  0.00  0.00    +0.000 N 
ATOM     10  C   UNL     1      18.168  37.238  -7.981  0.00  0.00    +0.000 C 
ATOM     11  H   UNL     1      16.137  37.440  -8.531  0.00  0.00    +0.000 HD
BRANCH   9  12
ATOM     12  O   UNL     1      16.677  35.433  -8.387  0.00  0.00    +0.000 OA
ATOM     13  H   UNL     1      15.704  35.381  -8.512  0.00  0.00    +0.000 HD
ENDBRANCH   9  12
ENDBRANCH   7  10
ENDBRANCH   4   6
BRANCH   1  15
ATOM     14  O   UNL     1      16.337  43.108  -4.119  0.00  0.00    +0.000 OA
ATOM     15  C   UNL     1      17.257  42.772  -4.864  0.00  0.00    +0.000 C 
BRANCH  15  16
ATOM     16  C   UNL     1      18.533  42.333  -4.263  0.00  0.00    +0.000 A 
ATOM     17  C   UNL     1      20.975  41.347  -3.226  0.00  0.00    +0.000 A 
ATOM     18  C   UNL     1      19.693  43.096  -4.361  0.00  0.00    +0.000 A 
ATOM     19  C   UNL     1      18.587  41.070  -3.678  0.00  0.00    +0.000 A 
ATOM     20  C   UNL     1      20.890  42.609  -3.836  0.00  0.00    +0.000 A 
ATOM     21  C   UNL     1      19.791  40.596  -3.157  0.00  0.00    +0.000 A 
BRANCH  17  22
ATOM     22  N   UNL     1      22.191  40.868  -2.680  0.00  0.00    +0.000 N 
ATOM     23  C   UNL     1      22.268  40.431  -1.295  0.00  0.00    +0.000 C 
ATOM     24  C   UNL     1      23.468  41.187  -3.298  0.00  0.00    +0.000 C 
ENDBRANCH  17  22
ENDBRANCH  15  16
ENDBRANCH   1  15
TORSDOF 6
ENDMDL
MODEL 6
REMARK VINA RESULT:      -5.5     29.095     32.124
REMARK  Name = Trichostatin_A.pdbqt.pdb
REMARK  6 active torsions:
REMARK  status: ('A' for Active; 'I' for Inactive)
REMARK    1  A    between atoms: C_1  and  C_15
REMARK    2  A    between atoms: C_4  and  C_6
REMARK    3  A    between atoms: C_7  and  C_10
REMARK    4  A    between atoms: N_9  and  O_12
REMARK    5  A    between atoms: C_15  and  C_16
REMARK    6  A    between atoms: C_17  and  N_22
REMARK                            x       y       z     vdW  Elec       q    Type
REMARK                         _______ _______ _______ _____ _____    ______ ____
ROOT
ATOM      1  C   UNL     1      20.387  53.342  -0.890  0.00  0.00    +0.000 C 
ATOM      2  C   UNL     1      21.315  54.110   0.029  0.00  0.00    +0.000 C 
ATOM      3  C   UNL     1      19.207  54.018  -1.284  0.00  0.00    +0.000 C 
ATOM      4  C   UNL     1      18.113  54.587  -1.668  0.00  0.00    +0.000 C 
ATOM      5  C   UNL     1      18.067  55.275  -2.998  0.00  0.00    +0.000 C 
ENDROOT
BRANCH   4   6
ATOM      6  C   UNL     1      16.918  54.394  -0.937  0.00  0.00    +0.000 C 
ATOM      7  C   UNL     1      15.904  54.227  -0.313  0.00  0.00    +0.000 C 
BRANCH   7  10
ATOM      8  O   UNL     1      14.669  53.256   1.383  0.00  0.00    +0.000 OA
ATOM      9  N   UNL     1      13.607  54.757   0.023  0.00  0.00    +0.000 N 
ATOM     10  C   UNL     1      14.691  54.034   0.436  0.00  0.00    +0.000 C 
ATOM     11  H   UNL     1      13.605  55.398  -0.761  0.00  0.00    +0.000 HD
BRANCH   9  12
ATOM     12  O   UNL     1      12.398  54.585   0.730  0.00  0.00    +0.000 OA
ATOM     13  H   UNL     1      12.377  55.368   1.321  0.00  0.00    +0.000 HD
ENDBRANCH   9  12
ENDBRANCH   7  10
ENDBRANCH   4   6
BRANCH   1  15
ATOM     14  O   UNL     1      20.921  51.470  -2.251  0.00  0.00    +0.000 OA
ATOM     15  C   UNL     1      20.519  51.878  -1.161  0.00  0.00    +0.000 C 
BRANCH  15  16
ATOM     16  C   UNL     1      20.180  50.892  -0.115  0.00  0.00    +0.000 A 
ATOM     17  C   UNL     1      19.675  49.064   1.985  0.00  0.00    +0.000 A 
ATOM     18  C   UNL     1      18.984  50.955   0.593  0.00  0.00    +0.000 A 
ATOM     19  C   UNL     1      21.138  49.944   0.234  0.00  0.00    +0.000 A 
ATOM     20  C   UNL     1      18.736  50.043   1.619  0.00  0.00    +0.000 A 
ATOM     21  C   UNL     1      20.878  49.037   1.262  0.00  0.00    +0.000 A 
BRANCH  17  22
ATOM     22  N   UNL     1      19.408  48.130   3.017  0.00  0.00    +0.000 N 
ATOM     23  C   UNL     1      18.579  48.489   4.155  0.00  0.00    +0.000 C 
ATOM     24  C   UNL     1      20.264  46.971   3.218  0.00  0.00    +0.000 C 
ENDBRANCH  17  22
ENDBRANCH  15  16
ENDBRANCH   1  15
TORSDOF 6
ENDMDL
MODEL 7
REMARK VINA RESULT:      -5.4     25.919     27.457
REMARK  Name = Trichostatin_A.pdbqt.pdb
REMARK  6 active torsions:
REMARK  status: ('A' for Active; 'I' for Inactive)
REMARK    1  A    between atoms: C_1  and  C_15
REMARK    2  A    between atoms: C_4  and  C_6
REMARK    3  A    between atoms: C_7  and  C_10
REMARK    4  A    between atoms: N_9  and  O_12
REMARK    5  A    between atoms: C_15  and  C_16
REMARK    6  A    between atoms: C_17  and  N_22
REMARK                            x       y       z     vdW  Elec       q    Type
REMARK                         _______ _______ _______ _____ _____    ______ ____
ROOT
ATOM      1  C   UNL     1      -7.752  16.719  13.355  0.00  0.00    +0.000 C 
ATOM      2  C   UNL     1      -8.780  17.829  13.441  0.00  0.00    +0.000 C 
ATOM      3  C   UNL     1      -8.260  15.399  13.425  0.00  0.00    +0.000 C 
ATOM      4  C   UNL     1      -8.671  14.176  13.490  0.00  0.00    +0.000 C 
ATOM      5  C   UNL     1      -8.894  13.404  12.226  0.00  0.00    +0.000 C 
ENDROOT
BRANCH   4   6
ATOM      6  C   UNL     1      -8.718  13.509  14.736  0.00  0.00    +0.000 C 
ATOM      7  C   UNL     1      -8.759  12.939  15.793  0.00  0.00    +0.000 C 
BRANCH   7  10
ATOM      8  O   UNL     1      -9.529  12.666  17.956  0.00  0.00    +0.000 OA
ATOM      9  N   UNL     1      -7.993  11.160  17.180  0.00  0.00    +0.000 N 
ATOM     10  C   UNL     1      -8.800  12.256  17.060  0.00  0.00    +0.000 C 
ATOM     11  H   UNL     1      -7.379  10.813  16.452  0.00  0.00    +0.000 HD
BRANCH   9  12
ATOM     12  O   UNL     1      -8.002  10.473  18.412  0.00  0.00    +0.000 OA
ATOM     13  H   UNL     1      -7.132  10.017  18.413  0.00  0.00    +0.000 HD
ENDBRANCH   9  12
ENDBRANCH   7  10
ENDBRANCH   4   6
BRANCH   1  15
ATOM     14  O   UNL     1      -5.818  17.661  14.362  0.00  0.00    +0.000 OA
ATOM     15  C   UNL     1      -6.280  16.946  13.473  0.00  0.00    +0.000 C 
BRANCH  15  16
ATOM     16  C   UNL     1      -5.349  16.301  12.525  0.00  0.00    +0.000 A 
ATOM     17  C   UNL     1      -3.676  14.918  10.708  0.00  0.00    +0.000 A 
ATOM     18  C   UNL     1      -5.109  16.824  11.258  0.00  0.00    +0.000 A 
ATOM     19  C   UNL     1      -4.784  15.079  12.882  0.00  0.00    +0.000 A 
ATOM     20  C   UNL     1      -4.274  16.144  10.372  0.00  0.00    +0.000 A 
ATOM     21  C   UNL     1      -3.950  14.409  11.987  0.00  0.00    +0.000 A 
BRANCH  17  22
ATOM     22  N   UNL     1      -2.815  14.242   9.808  0.00  0.00    +0.000 N 
ATOM     23  C   UNL     1      -2.731  14.639   8.412  0.00  0.00    +0.000 C 
ATOM     24  C   UNL     1      -2.329  12.903  10.100  0.00  0.00    +0.000 C 
ENDBRANCH  17  22
ENDBRANCH  15  16
ENDBRANCH   1  15
TORSDOF 6
ENDMDL
MODEL 8
REMARK VINA RESULT:      -5.2     20.175     23.163
REMARK  Name = Trichostatin_A.pdbqt.pdb
REMARK  6 active torsions:
REMARK  status: ('A' for Active; 'I' for Inactive)
REMARK    1  A    between atoms: C_1  and  C_15
REMARK    2  A    between atoms: C_4  and  C_6
REMARK    3  A    between atoms: C_7  and  C_10
REMARK    4  A    between atoms: N_9  and  O_12
REMARK    5  A    between atoms: C_15  and  C_16
REMARK    6  A    between atoms: C_17  and  N_22
REMARK                            x       y       z     vdW  Elec       q    Type
REMARK                         _______ _______ _______ _____ _____    ______ ____
ROOT
ATOM      1  C   UNL     1       4.214  62.689  16.284  0.00  0.00    +0.000 C 
ATOM      2  C   UNL     1       4.098  63.679  17.425  0.00  0.00    +0.000 C 
ATOM      3  C   UNL     1       2.995  62.289  15.686  0.00  0.00    +0.000 C 
ATOM      4  C   UNL     1       1.911  61.886  15.111  0.00  0.00    +0.000 C 
ATOM      5  C   UNL     1       1.458  62.547  13.845  0.00  0.00    +0.000 C 
ENDROOT
BRANCH   4   6
ATOM      6  C   UNL     1       1.267  60.708  15.555  0.00  0.00    +0.000 C 
ATOM      7  C   UNL     1       0.724  59.704  15.933  0.00  0.00    +0.000 C 
BRANCH   7  10
ATOM      8  O   UNL     1       0.516  57.891  17.352  0.00  0.00    +0.000 OA
ATOM      9  N   UNL     1      -1.045  58.127  15.698  0.00  0.00    +0.000 N 
ATOM     10  C   UNL     1       0.069  58.508  16.392  0.00  0.00    +0.000 C 
ATOM     11  H   UNL     1      -1.424  58.621  14.898  0.00  0.00    +0.000 HD
BRANCH   9  12
ATOM     12  O   UNL     1      -1.707  56.953  16.114  0.00  0.00    +0.000 OA
ATOM     13  H   UNL     1      -2.581  57.027  15.674  0.00  0.00    +0.000 HD
ENDBRANCH   9  12
ENDBRANCH   7  10
ENDBRANCH   4   6
BRANCH   1  15
ATOM     14  O   UNL     1       6.121  62.210  14.950  0.00  0.00    +0.000 OA
ATOM     15  C   UNL     1       5.469  61.945  15.960  0.00  0.00    +0.000 C 
BRANCH  15  16
ATOM     16  C   UNL     1       5.957  60.880  16.860  0.00  0.00    +0.000 A 
ATOM     17  C   UNL     1       6.776  58.724  18.500  0.00  0.00    +0.000 A 
ATOM     18  C   UNL     1       7.282  60.457  16.848  0.00  0.00    +0.000 A 
ATOM     19  C   UNL     1       5.030  60.218  17.662  0.00  0.00    +0.000 A 
ATOM     20  C   UNL     1       7.682  59.401  17.668  0.00  0.00    +0.000 A 
ATOM     21  C   UNL     1       5.443  59.164  18.478  0.00  0.00    +0.000 A 
BRANCH  17  22
ATOM     22  N   UNL     1       7.194  57.664  19.343  0.00  0.00    +0.000 N 
ATOM     23  C   UNL     1       8.333  56.832  18.991  0.00  0.00    +0.000 C 
ATOM     24  C   UNL     1       6.290  57.089  20.327  0.00  0.00    +0.000 C 
ENDBRANCH  17  22
ENDBRANCH  15  16
ENDBRANCH   1  15
TORSDOF 6
ENDMDL
MODEL 9
REMARK VINA RESULT:      -5.0     31.630     33.846
REMARK  Name = Trichostatin_A.pdbqt.pdb
REMARK  6 active torsions:
REMARK  status: ('A' for Active; 'I' for Inactive)
REMARK    1  A    between atoms: C_1  and  C_15
REMARK    2  A    between atoms: C_4  and  C_6
REMARK    3  A    between atoms: C_7  and  C_10
REMARK    4  A    between atoms: N_9  and  O_12
REMARK    5  A    between atoms: C_15  and  C_16
REMARK    6  A    between atoms: C_17  and  N_22
REMARK                            x       y       z     vdW  Elec       q    Type
REMARK                         _______ _______ _______ _____ _____    ______ ____
ROOT
ATOM      1  C   UNL     1      23.558  43.202  -3.001  0.00  0.00    +0.000 C 
ATOM      2  C   UNL     1      24.897  42.686  -3.489  0.00  0.00    +0.000 C 
ATOM      3  C   UNL     1      23.039  42.576  -1.842  0.00  0.00    +0.000 C 
ATOM      4  C   UNL     1      22.518  42.034  -0.792  0.00  0.00    +0.000 C 
ATOM      5  C   UNL     1      22.705  42.686   0.544  0.00  0.00    +0.000 C 
ENDROOT
BRANCH   4   6
ATOM      6  C   UNL     1      21.617  40.953  -0.924  0.00  0.00    +0.000 C 
ATOM      7  C   UNL     1      20.850  40.034  -1.032  0.00  0.00    +0.000 C 
BRANCH   7  10
ATOM      8  O   UNL     1      19.296  38.788  -2.206  0.00  0.00    +0.000 OA
ATOM      9  N   UNL     1      19.814  38.110  -0.084  0.00  0.00    +0.000 N 
ATOM     10  C   UNL     1      19.927  38.938  -1.166  0.00  0.00    +0.000 C 
ATOM     11  H   UNL     1      20.322  38.224   0.785  0.00  0.00    +0.000 HD
BRANCH   9  12
ATOM     12  O   UNL     1      18.911  37.031  -0.177  0.00  0.00    +0.000 OA
ATOM     13  H   UNL     1      19.498  36.248  -0.097  0.00  0.00    +0.000 HD
ENDBRANCH   9  12
ENDBRANCH   7  10
ENDBRANCH   4   6
BRANCH   1  15
ATOM     14  O   UNL     1      22.938  45.300  -3.927  0.00  0.00    +0.000 OA
ATOM     15  C   UNL     1      22.678  44.102  -3.806  0.00  0.00    +0.000 C 
BRANCH  15  16
ATOM     16  C   UNL     1      21.481  43.564  -4.483  0.00  0.00    +0.000 A 
ATOM     17  C   UNL     1      19.090  42.670  -5.706  0.00  0.00    +0.000 A 
ATOM     18  C   UNL     1      21.384  43.505  -5.869  0.00  0.00    +0.000 A 
ATOM     19  C   UNL     1      20.384  43.208  -3.701  0.00  0.00    +0.000 A 
ATOM     20  C   UNL     1      20.208  43.051  -6.466  0.00  0.00    +0.000 A 
ATOM     21  C   UNL     1      19.213  42.756  -4.310  0.00  0.00    +0.000 A 
BRANCH  17  22
ATOM     22  N   UNL     1      17.904  42.194  -6.318  0.00  0.00    +0.000 N 
ATOM     23  C   UNL     1      17.538  42.609  -7.662  0.00  0.00    +0.000 C 
ATOM     24  C   UNL     1      16.815  41.651  -5.522  0.00  0.00    +0.000 C 
ENDBRANCH  17  22
ENDBRANCH  15  16
ENDBRANCH   1  15
TORSDOF 6
ENDMDL
