MODEL 1
REMARK VINA RESULT:      -7.4      0.000      0.000
REMARK  Name = Trifluridine.pdbqt.pdb
REMARK  5 active torsions:
REMARK  status: ('A' for Active; 'I' for Inactive)
REMARK    1  A    between atoms: N_3  and  C1*_10
REMARK    2  A    between atoms: C_7  and  C_20
REMARK    3  A    between atoms: C4*_12  and  C5*_15
REMARK    4  A    between atoms: C3*_13  and  O3*_18
REMARK    5  A    between atoms: C5*_15  and  O5*_16
REMARK                            x       y       z     vdW  Elec       q    Type
REMARK                         _______ _______ _______ _____ _____    ______ ____
ROOT
ATOM      1  O   UNL     1       3.158  32.729  17.263  0.00  0.00    +0.000 OA
ATOM      2  O   UNL     1       5.571  29.096  15.833  0.00  0.00    +0.000 OA
ATOM      3  N   UNL     1       2.101  31.196  15.798  0.00  0.00    +0.000 N 
ATOM      4  N   UNL     1       4.311  30.887  16.520  0.00  0.00    +0.000 N 
ATOM      5  C   UNL     1       2.339  30.050  15.131  0.00  0.00    +0.000 A 
ATOM      6  C   UNL     1       3.159  31.708  16.585  0.00  0.00    +0.000 A 
ATOM      7  C   UNL     1       3.341  29.244  15.007  0.00  0.00    +0.000 A 
ATOM      8  C   UNL     1       4.509  29.701  15.801  0.00  0.00    +0.000 A 
ATOM      9  H   UNL     1       5.098  31.211  17.064  0.00  0.00    +0.000 HD
ENDROOT
BRANCH   3  10
ATOM     10  C1* UNL     1       0.881  31.795  15.678  0.00  0.00    +0.000 A 
ATOM     11  O4* UNL     1       0.659  33.118  16.078  0.00  0.00    +0.000 OA
ATOM     12  C4* UNL     1      -0.693  33.395  15.840  0.00  0.00    +0.000 A 
ATOM     13  C3* UNL     1      -1.322  32.225  15.279  0.00  0.00    +0.000 A 
ATOM     14  C2* UNL     1      -0.321  31.240  15.197  0.00  0.00    +0.000 A 
BRANCH  13  15
ATOM     15  O3* UNL     1      -2.642  31.960  15.506  0.00  0.00    +0.000 OA
ATOM     16  H3* UNL     1      -2.926  31.163  15.025  0.00  0.00    +0.000 HD
ENDBRANCH  13  15
BRANCH  12  17
ATOM     17  C5* UNL     1      -1.320  34.564  16.314  0.00  0.00    +0.000 C 
BRANCH  17  18
ATOM     18  O5* UNL     1      -1.916  35.664  16.764  0.00  0.00    +0.000 OA
ATOM     19  H5* UNL     1      -1.251  36.316  17.040  0.00  0.00    +0.000 HD
ENDBRANCH  17  18
ENDBRANCH  12  17
ENDBRANCH   3  10
BRANCH   7  20
ATOM     20  C   UNL     1       3.476  28.018  14.208  0.00  0.00    +0.000 C 
ATOM     21  F   UNL     1       3.683  26.918  14.974  0.00  0.00    +0.000 F 
ATOM     22  F   UNL     1       2.353  27.766  13.481  0.00  0.00    +0.000 F 
ATOM     23  F   UNL     1       4.494  28.090  13.315  0.00  0.00    +0.000 F 
ENDBRANCH   7  20
TORSDOF 5
ENDMDL
MODEL 2
REMARK VINA RESULT:      -6.8      1.611      2.279
REMARK  Name = Trifluridine.pdbqt.pdb
REMARK  5 active torsions:
REMARK  status: ('A' for Active; 'I' for Inactive)
REMARK    1  A    between atoms: N_3  and  C1*_10
REMARK    2  A    between atoms: C_7  and  C_20
REMARK    3  A    between atoms: C4*_12  and  C5*_15
REMARK    4  A    between atoms: C3*_13  and  O3*_18
REMARK    5  A    between atoms: C5*_15  and  O5*_16
REMARK                            x       y       z     vdW  Elec       q    Type
REMARK                         _______ _______ _______ _____ _____    ______ ____
ROOT
ATOM      1  O   UNL     1       5.081  33.525  16.037  0.00  0.00    +0.000 OA
ATOM      2  O   UNL     1       7.156  29.580  14.946  0.00  0.00    +0.000 OA
ATOM      3  N   UNL     1       3.721  31.635  15.606  0.00  0.00    +0.000 N 
ATOM      4  N   UNL     1       6.061  31.521  15.495  0.00  0.00    +0.000 N 
ATOM      5  C   UNL     1       3.813  30.333  15.270  0.00  0.00    +0.000 A 
ATOM      6  C   UNL     1       4.936  32.344  15.744  0.00  0.00    +0.000 A 
ATOM      7  C   UNL     1       4.775  29.508  15.022  0.00  0.00    +0.000 A 
ATOM      8  C   UNL     1       6.100  30.167  15.141  0.00  0.00    +0.000 A 
ATOM      9  H   UNL     1       6.955  31.983  15.579  0.00  0.00    +0.000 HD
ENDROOT
BRANCH   3  10
ATOM     10  C1* UNL     1       2.487  32.191  15.784  0.00  0.00    +0.000 A 
ATOM     11  O4* UNL     1       1.436  31.970  14.888  0.00  0.00    +0.000 OA
ATOM     12  C4* UNL     1       0.339  32.705  15.357  0.00  0.00    +0.000 A 
ATOM     13  C3* UNL     1       0.715  33.391  16.567  0.00  0.00    +0.000 A 
ATOM     14  C2* UNL     1       2.062  33.062  16.807  0.00  0.00    +0.000 A 
BRANCH  13  15
ATOM     15  O3* UNL     1       0.148  34.588  16.903  0.00  0.00    +0.000 OA
ATOM     16  H3* UNL     1       0.480  34.904  17.761  0.00  0.00    +0.000 HD
ENDBRANCH  13  15
BRANCH  12  17
ATOM     17  C5* UNL     1      -0.831  32.886  14.594  0.00  0.00    +0.000 C 
BRANCH  17  18
ATOM     18  O5* UNL     1      -1.932  33.059  13.870  0.00  0.00    +0.000 OA
ATOM     19  H5* UNL     1      -2.681  32.596  14.282  0.00  0.00    +0.000 HD
ENDBRANCH  17  18
ENDBRANCH  12  17
ENDBRANCH   3  10
BRANCH   7  20
ATOM     20  C   UNL     1       4.731  28.092  14.633  0.00  0.00    +0.000 C 
ATOM     21  F   UNL     1       5.788  27.388  15.110  0.00  0.00    +0.000 F 
ATOM     22  F   UNL     1       3.618  27.473  15.114  0.00  0.00    +0.000 F 
ATOM     23  F   UNL     1       4.703  27.923  13.287  0.00  0.00    +0.000 F 
ENDBRANCH   7  20
TORSDOF 5
ENDMDL
MODEL 3
REMARK VINA RESULT:      -6.6     19.622     20.748
REMARK  Name = Trifluridine.pdbqt.pdb
REMARK  5 active torsions:
REMARK  status: ('A' for Active; 'I' for Inactive)
REMARK    1  A    between atoms: N_3  and  C1*_10
REMARK    2  A    between atoms: C_7  and  C_20
REMARK    3  A    between atoms: C4*_12  and  C5*_15
REMARK    4  A    between atoms: C3*_13  and  O3*_18
REMARK    5  A    between atoms: C5*_15  and  O5*_16
REMARK                            x       y       z     vdW  Elec       q    Type
REMARK                         _______ _______ _______ _____ _____    ______ ____
ROOT
ATOM      1  O   UNL     1      13.103  46.743  13.742  0.00  0.00    +0.000 OA
ATOM      2  O   UNL     1      10.474  50.478  14.179  0.00  0.00    +0.000 OA
ATOM      3  N   UNL     1      11.836  47.437  11.866  0.00  0.00    +0.000 N 
ATOM      4  N   UNL     1      11.775  48.609  13.896  0.00  0.00    +0.000 N 
ATOM      5  C   UNL     1      10.967  48.395  11.484  0.00  0.00    +0.000 A 
ATOM      6  C   UNL     1      12.317  47.506  13.193  0.00  0.00    +0.000 A 
ATOM      7  C   UNL     1      10.419  49.421  12.044  0.00  0.00    +0.000 A 
ATOM      8  C   UNL     1      10.865  49.576  13.451  0.00  0.00    +0.000 A 
ATOM      9  H   UNL     1      12.087  48.702  14.852  0.00  0.00    +0.000 HD
ENDROOT
BRANCH   3  10
ATOM     10  C1* UNL     1      12.193  46.468  10.973  0.00  0.00    +0.000 A 
ATOM     11  O4* UNL     1      13.444  45.843  11.016  0.00  0.00    +0.000 OA
ATOM     12  C4* UNL     1      13.482  44.933   9.952  0.00  0.00    +0.000 A 
ATOM     13  C3* UNL     1      12.231  44.992   9.238  0.00  0.00    +0.000 A 
ATOM     14  C2* UNL     1      11.449  45.963   9.889  0.00  0.00    +0.000 A 
BRANCH  13  15
ATOM     15  O3* UNL     1      12.174  44.734   7.897  0.00  0.00    +0.000 OA
ATOM     16  H3* UNL     1      11.460  44.105   7.693  0.00  0.00    +0.000 HD
ENDBRANCH  13  15
BRANCH  12  17
ATOM     17  C5* UNL     1      14.664  44.276   9.561  0.00  0.00    +0.000 C 
BRANCH  17  18
ATOM     18  O5* UNL     1      15.778  43.651   9.191  0.00  0.00    +0.000 OA
ATOM     19  H5* UNL     1      15.821  43.587   8.223  0.00  0.00    +0.000 HD
ENDBRANCH  17  18
ENDBRANCH  12  17
ENDBRANCH   3  10
BRANCH   7  20
ATOM     20  C   UNL     1       9.447  50.385  11.509  0.00  0.00    +0.000 C 
ATOM     21  F   UNL     1       8.999  50.042  10.276  0.00  0.00    +0.000 F 
ATOM     22  F   UNL     1       8.343  50.476  12.300  0.00  0.00    +0.000 F 
ATOM     23  F   UNL     1       9.954  51.640  11.425  0.00  0.00    +0.000 F 
ENDBRANCH   7  20
TORSDOF 5
ENDMDL
MODEL 4
REMARK VINA RESULT:      -6.6      2.583      3.329
REMARK  Name = Trifluridine.pdbqt.pdb
REMARK  5 active torsions:
REMARK  status: ('A' for Active; 'I' for Inactive)
REMARK    1  A    between atoms: N_3  and  C1*_10
REMARK    2  A    between atoms: C_7  and  C_20
REMARK    3  A    between atoms: C4*_12  and  C5*_15
REMARK    4  A    between atoms: C3*_13  and  O3*_18
REMARK    5  A    between atoms: C5*_15  and  O5*_16
REMARK                            x       y       z     vdW  Elec       q    Type
REMARK                         _______ _______ _______ _____ _____    ______ ____
ROOT
ATOM      1  O   UNL     1       5.291  33.738  15.900  0.00  0.00    +0.000 OA
ATOM      2  O   UNL     1       8.881  30.917  15.433  0.00  0.00    +0.000 OA
ATOM      3  N   UNL     1       4.860  31.430  15.592  0.00  0.00    +0.000 N 
ATOM      4  N   UNL     1       7.046  32.276  15.669  0.00  0.00    +0.000 N 
ATOM      5  C   UNL     1       5.502  30.258  15.418  0.00  0.00    +0.000 A 
ATOM      6  C   UNL     1       5.665  32.583  15.737  0.00  0.00    +0.000 A 
ATOM      7  C   UNL     1       6.736  29.883  15.339  0.00  0.00    +0.000 A 
ATOM      8  C   UNL     1       7.664  31.034  15.479  0.00  0.00    +0.000 A 
ATOM      9  H   UNL     1       7.665  33.068  15.765  0.00  0.00    +0.000 HD
ENDROOT
BRANCH   3  10
ATOM     10  C1* UNL     1       3.495  31.444  15.612  0.00  0.00    +0.000 A 
ATOM     11  O4* UNL     1       2.751  32.370  14.873  0.00  0.00    +0.000 OA
ATOM     12  C4* UNL     1       1.400  32.118  15.147  0.00  0.00    +0.000 A 
ATOM     13  C3* UNL     1       1.304  31.015  16.069  0.00  0.00    +0.000 A 
ATOM     14  C2* UNL     1       2.624  30.619  16.351  0.00  0.00    +0.000 A 
BRANCH  13  15
ATOM     15  O3* UNL     1       0.272  30.931  16.960  0.00  0.00    +0.000 OA
ATOM     16  H3* UNL     1      -0.344  30.219  16.714  0.00  0.00    +0.000 HD
ENDBRANCH  13  15
BRANCH  12  17
ATOM     17  C5* UNL     1       0.371  32.990  14.739  0.00  0.00    +0.000 C 
BRANCH  17  18
ATOM     18  O5* UNL     1      -0.603  33.810  14.357  0.00  0.00    +0.000 OA
ATOM     19  H5* UNL     1      -0.232  34.577  13.889  0.00  0.00    +0.000 HD
ENDBRANCH  17  18
ENDBRANCH  12  17
ENDBRANCH   3  10
BRANCH   7  20
ATOM     20  C   UNL     1       7.307  28.548  15.116  0.00  0.00    +0.000 C 
ATOM     21  F   UNL     1       8.284  28.244  16.006  0.00  0.00    +0.000 F 
ATOM     22  F   UNL     1       6.366  27.572  15.240  0.00  0.00    +0.000 F 
ATOM     23  F   UNL     1       7.831  28.409  13.872  0.00  0.00    +0.000 F 
ENDBRANCH   7  20
TORSDOF 5
ENDMDL
MODEL 5
REMARK VINA RESULT:      -6.1      4.652      8.890
REMARK  Name = Trifluridine.pdbqt.pdb
REMARK  5 active torsions:
REMARK  status: ('A' for Active; 'I' for Inactive)
REMARK    1  A    between atoms: N_3  and  C1*_10
REMARK    2  A    between atoms: C_7  and  C_20
REMARK    3  A    between atoms: C4*_12  and  C5*_15
REMARK    4  A    between atoms: C3*_13  and  O3*_18
REMARK    5  A    between atoms: C5*_15  and  O5*_16
REMARK                            x       y       z     vdW  Elec       q    Type
REMARK                         _______ _______ _______ _____ _____    ______ ____
ROOT
ATOM      1  O   UNL     1       8.842  30.751  16.589  0.00  0.00    +0.000 OA
ATOM      2  O   UNL     1       4.300  30.612  15.946  0.00  0.00    +0.000 OA
ATOM      3  N   UNL     1       7.948  28.943  15.347  0.00  0.00    +0.000 N 
ATOM      4  N   UNL     1       6.578  30.631  16.226  0.00  0.00    +0.000 N 
ATOM      5  C   UNL     1       6.773  28.460  14.898  0.00  0.00    +0.000 A 
ATOM      6  C   UNL     1       7.901  30.146  16.090  0.00  0.00    +0.000 A 
ATOM      7  C   UNL     1       5.536  28.822  14.974  0.00  0.00    +0.000 A 
ATOM      8  C   UNL     1       5.384  30.083  15.742  0.00  0.00    +0.000 A 
ATOM      9  H   UNL     1       6.490  31.489  16.752  0.00  0.00    +0.000 HD
ENDROOT
BRANCH   3  10
ATOM     10  C1* UNL     1       9.098  28.260  15.074  0.00  0.00    +0.000 A 
ATOM     11  O4* UNL     1      10.171  28.851  14.397  0.00  0.00    +0.000 OA
ATOM     12  C4* UNL     1      11.160  27.868  14.265  0.00  0.00    +0.000 A 
ATOM     13  C3* UNL     1      10.695  26.647  14.873  0.00  0.00    +0.000 A 
ATOM     14  C2* UNL     1       9.403  26.915  15.361  0.00  0.00    +0.000 A 
BRANCH  13  15
ATOM     15  O3* UNL     1      11.100  25.429  14.403  0.00  0.00    +0.000 OA
ATOM     16  H3* UNL     1      10.968  24.736  15.073  0.00  0.00    +0.000 HD
ENDBRANCH  13  15
BRANCH  12  17
ATOM     17  C5* UNL     1      12.297  28.046  13.453  0.00  0.00    +0.000 C 
BRANCH  17  18
ATOM     18  O5* UNL     1      13.373  28.215  12.691  0.00  0.00    +0.000 OA
ATOM     19  H5* UNL     1      14.145  27.789  13.101  0.00  0.00    +0.000 HD
ENDBRANCH  17  18
ENDBRANCH  12  17
ENDBRANCH   3  10
BRANCH   7  20
ATOM     20  C   UNL     1       4.326  28.172  14.451  0.00  0.00    +0.000 C 
ATOM     21  F   UNL     1       3.191  28.826  14.801  0.00  0.00    +0.000 F 
ATOM     22  F   UNL     1       4.329  28.126  13.090  0.00  0.00    +0.000 F 
ATOM     23  F   UNL     1       4.203  26.888  14.870  0.00  0.00    +0.000 F 
ENDBRANCH   7  20
TORSDOF 5
ENDMDL
MODEL 6
REMARK VINA RESULT:      -5.9     11.486     13.112
REMARK  Name = Trifluridine.pdbqt.pdb
REMARK  5 active torsions:
REMARK  status: ('A' for Active; 'I' for Inactive)
REMARK    1  A    between atoms: N_3  and  C1*_10
REMARK    2  A    between atoms: C_7  and  C_20
REMARK    3  A    between atoms: C4*_12  and  C5*_15
REMARK    4  A    between atoms: C3*_13  and  O3*_18
REMARK    5  A    between atoms: C5*_15  and  O5*_16
REMARK                            x       y       z     vdW  Elec       q    Type
REMARK                         _______ _______ _______ _____ _____    ______ ____
ROOT
ATOM      1  O   UNL     1      13.418  38.123  16.696  0.00  0.00    +0.000 OA
ATOM      2  O   UNL     1       9.967  35.795  14.764  0.00  0.00    +0.000 OA
ATOM      3  N   UNL     1      11.331  39.218  16.458  0.00  0.00    +0.000 N 
ATOM      4  N   UNL     1      11.651  37.007  15.745  0.00  0.00    +0.000 N 
ATOM      5  C   UNL     1      10.084  39.007  15.995  0.00  0.00    +0.000 A 
ATOM      6  C   UNL     1      12.244  38.144  16.345  0.00  0.00    +0.000 A 
ATOM      7  C   UNL     1       9.460  38.023  15.437  0.00  0.00    +0.000 A 
ATOM      8  C   UNL     1      10.343  36.841  15.273  0.00  0.00    +0.000 A 
ATOM      9  H   UNL     1      12.264  36.211  15.639  0.00  0.00    +0.000 HD
ENDROOT
BRANCH   3  10
ATOM     10  C1* UNL     1      11.646  40.433  16.994  0.00  0.00    +0.000 A 
ATOM     11  O4* UNL     1      11.299  40.779  18.305  0.00  0.00    +0.000 OA
ATOM     12  C4* UNL     1      11.746  42.090  18.513  0.00  0.00    +0.000 A 
ATOM     13  C3* UNL     1      12.384  42.566  17.311  0.00  0.00    +0.000 A 
ATOM     14  C2* UNL     1      12.299  41.518  16.377  0.00  0.00    +0.000 A 
BRANCH  13  15
ATOM     15  O3* UNL     1      12.361  43.891  16.980  0.00  0.00    +0.000 OA
ATOM     16  H3* UNL     1      11.645  44.355  17.448  0.00  0.00    +0.000 HD
ENDBRANCH  13  15
BRANCH  12  17
ATOM     17  C5* UNL     1      11.387  42.840  19.650  0.00  0.00    +0.000 C 
BRANCH  17  18
ATOM     18  O5* UNL     1      11.044  43.546  20.723  0.00  0.00    +0.000 OA
ATOM     19  H5* UNL     1      11.819  44.006  21.084  0.00  0.00    +0.000 HD
ENDBRANCH  17  18
ENDBRANCH  12  17
ENDBRANCH   3  10
BRANCH   7  20
ATOM     20  C   UNL     1       8.077  37.936  14.947  0.00  0.00    +0.000 C 
ATOM     21  F   UNL     1       7.336  39.021  15.282  0.00  0.00    +0.000 F 
ATOM     22  F   UNL     1       8.030  37.851  13.589  0.00  0.00    +0.000 F 
ATOM     23  F   UNL     1       7.429  36.840  15.414  0.00  0.00    +0.000 F 
ENDBRANCH   7  20
TORSDOF 5
ENDMDL
MODEL 7
REMARK VINA RESULT:      -5.9     21.475     22.549
REMARK  Name = Trifluridine.pdbqt.pdb
REMARK  5 active torsions:
REMARK  status: ('A' for Active; 'I' for Inactive)
REMARK    1  A    between atoms: N_3  and  C1*_10
REMARK    2  A    between atoms: C_7  and  C_20
REMARK    3  A    between atoms: C4*_12  and  C5*_15
REMARK    4  A    between atoms: C3*_13  and  O3*_18
REMARK    5  A    between atoms: C5*_15  and  O5*_16
REMARK                            x       y       z     vdW  Elec       q    Type
REMARK                         _______ _______ _______ _____ _____    ______ ____
ROOT
ATOM      1  O   UNL     1      14.065  50.484  14.675  0.00  0.00    +0.000 OA
ATOM      2  O   UNL     1      12.551  46.343  13.403  0.00  0.00    +0.000 OA
ATOM      3  N   UNL     1      12.439  50.373  12.957  0.00  0.00    +0.000 N 
ATOM      4  N   UNL     1      13.262  48.442  14.001  0.00  0.00    +0.000 N 
ATOM      5  C   UNL     1      11.711  49.479  12.259  0.00  0.00    +0.000 A 
ATOM      6  C   UNL     1      13.317  49.855  13.937  0.00  0.00    +0.000 A 
ATOM      7  C   UNL     1      11.597  48.193  12.242  0.00  0.00    +0.000 A 
ATOM      8  C   UNL     1      12.488  47.554  13.243  0.00  0.00    +0.000 A 
ATOM      9  H   UNL     1      13.874  48.021  14.686  0.00  0.00    +0.000 HD
ENDROOT
BRANCH   3  10
ATOM     10  C1* UNL     1      12.299  51.704  12.684  0.00  0.00    +0.000 A 
ATOM     11  O4* UNL     1      13.340  52.463  12.139  0.00  0.00    +0.000 OA
ATOM     12  C4* UNL     1      12.865  53.776  12.016  0.00  0.00    +0.000 A 
ATOM     13  C3* UNL     1      11.505  53.831  12.491  0.00  0.00    +0.000 A 
ATOM     14  C2* UNL     1      11.180  52.529  12.910  0.00  0.00    +0.000 A 
BRANCH  13  15
ATOM     15  O3* UNL     1      11.005  54.967  13.060  0.00  0.00    +0.000 OA
ATOM     16  H3* UNL     1      11.297  55.052  13.985  0.00  0.00    +0.000 HD
ENDBRANCH  13  15
BRANCH  12  17
ATOM     17  C5* UNL     1      13.709  54.857  11.697  0.00  0.00    +0.000 C 
BRANCH  17  18
ATOM     18  O5* UNL     1      14.506  55.876  11.391  0.00  0.00    +0.000 OA
ATOM     19  H5* UNL     1      15.279  55.887  11.980  0.00  0.00    +0.000 HD
ENDBRANCH  17  18
ENDBRANCH  12  17
ENDBRANCH   3  10
BRANCH   7  20
ATOM     20  C   UNL     1      10.768  47.327  11.392  0.00  0.00    +0.000 C 
ATOM     21  F   UNL     1      11.508  46.521  10.591  0.00  0.00    +0.000 F 
ATOM     22  F   UNL     1       9.980  46.501  12.134  0.00  0.00    +0.000 F 
ATOM     23  F   UNL     1       9.927  48.033  10.596  0.00  0.00    +0.000 F 
ENDBRANCH   7  20
TORSDOF 5
ENDMDL
MODEL 8
REMARK VINA RESULT:      -5.6      4.717      9.068
REMARK  Name = Trifluridine.pdbqt.pdb
REMARK  5 active torsions:
REMARK  status: ('A' for Active; 'I' for Inactive)
REMARK    1  A    between atoms: N_3  and  C1*_10
REMARK    2  A    between atoms: C_7  and  C_20
REMARK    3  A    between atoms: C4*_12  and  C5*_15
REMARK    4  A    between atoms: C3*_13  and  O3*_18
REMARK    5  A    between atoms: C5*_15  and  O5*_16
REMARK                            x       y       z     vdW  Elec       q    Type
REMARK                         _______ _______ _______ _____ _____    ______ ____
ROOT
ATOM      1  O   UNL     1       9.170  31.500  16.490  0.00  0.00    +0.000 OA
ATOM      2  O   UNL     1       4.605  31.137  16.180  0.00  0.00    +0.000 OA
ATOM      3  N   UNL     1       8.271  29.515  15.563  0.00  0.00    +0.000 N 
ATOM      4  N   UNL     1       6.894  31.264  16.301  0.00  0.00    +0.000 N 
ATOM      5  C   UNL     1       7.090  28.939  15.263  0.00  0.00    +0.000 A 
ATOM      6  C   UNL     1       8.223  30.804  16.141  0.00  0.00    +0.000 A 
ATOM      7  C   UNL     1       5.847  29.271  15.373  0.00  0.00    +0.000 A 
ATOM      8  C   UNL     1       5.694  30.618  15.976  0.00  0.00    +0.000 A 
ATOM      9  H   UNL     1       6.805  32.182  16.712  0.00  0.00    +0.000 HD
ENDROOT
BRANCH   3  10
ATOM     10  C1* UNL     1       9.427  28.836  15.305  0.00  0.00    +0.000 A 
ATOM     11  O4* UNL     1       9.496  27.439  15.357  0.00  0.00    +0.000 OA
ATOM     12  C4* UNL     1      10.820  27.085  15.070  0.00  0.00    +0.000 A 
ATOM     13  C3* UNL     1      11.587  28.282  14.832  0.00  0.00    +0.000 A 
ATOM     14  C2* UNL     1      10.697  29.360  14.994  0.00  0.00    +0.000 A 
BRANCH  13  15
ATOM     15  O3* UNL     1      12.918  28.336  15.132  0.00  0.00    +0.000 OA
ATOM     16  H3* UNL     1      13.440  28.605  14.356  0.00  0.00    +0.000 HD
ENDBRANCH  13  15
BRANCH  12  17
ATOM     17  C5* UNL     1      11.305  25.773  15.236  0.00  0.00    +0.000 C 
BRANCH  17  18
ATOM     18  O5* UNL     1      11.760  24.535  15.398  0.00  0.00    +0.000 OA
ATOM     19  H5* UNL     1      11.036  23.943  15.664  0.00  0.00    +0.000 HD
ENDBRANCH  17  18
ENDBRANCH  12  17
ENDBRANCH   3  10
BRANCH   7  20
ATOM     20  C   UNL     1       4.633  28.520  15.024  0.00  0.00    +0.000 C 
ATOM     21  F   UNL     1       4.900  27.244  14.647  0.00  0.00    +0.000 F 
ATOM     22  F   UNL     1       3.777  28.429  16.079  0.00  0.00    +0.000 F 
ATOM     23  F   UNL     1       3.931  29.103  14.021  0.00  0.00    +0.000 F 
ENDBRANCH   7  20
TORSDOF 5
ENDMDL
MODEL 9
REMARK VINA RESULT:      -5.6     26.336     27.899
REMARK  Name = Trifluridine.pdbqt.pdb
REMARK  5 active torsions:
REMARK  status: ('A' for Active; 'I' for Inactive)
REMARK    1  A    between atoms: N_3  and  C1*_10
REMARK    2  A    between atoms: C_7  and  C_20
REMARK    3  A    between atoms: C4*_12  and  C5*_15
REMARK    4  A    between atoms: C3*_13  and  O3*_18
REMARK    5  A    between atoms: C5*_15  and  O5*_16
REMARK                            x       y       z     vdW  Elec       q    Type
REMARK                         _______ _______ _______ _____ _____    ______ ____
ROOT
ATOM      1  O   UNL     1      22.354  40.770  -3.768  0.00  0.00    +0.000 OA
ATOM      2  O   UNL     1      19.489  43.357  -6.249  0.00  0.00    +0.000 OA
ATOM      3  N   UNL     1      20.034  40.602  -3.321  0.00  0.00    +0.000 N 
ATOM      4  N   UNL     1      20.870  42.032  -4.981  0.00  0.00    +0.000 N 
ATOM      5  C   UNL     1      18.850  41.100  -3.729  0.00  0.00    +0.000 A 
ATOM      6  C   UNL     1      21.189  41.083  -3.981  0.00  0.00    +0.000 A 
ATOM      7  C   UNL     1      18.464  41.957  -4.615  0.00  0.00    +0.000 A 
ATOM      8  C   UNL     1      19.615  42.523  -5.363  0.00  0.00    +0.000 A 
ATOM      9  H   UNL     1      21.663  42.409  -5.482  0.00  0.00    +0.000 HD
ENDROOT
BRANCH   3  10
ATOM     10  C1* UNL     1      20.058  39.685  -2.311  0.00  0.00    +0.000 A 
ATOM     11  O4* UNL     1      19.374  38.467  -2.397  0.00  0.00    +0.000 OA
ATOM     12  C4* UNL     1      19.591  37.792  -1.189  0.00  0.00    +0.000 A 
ATOM     13  C3* UNL     1      20.427  38.603  -0.339  0.00  0.00    +0.000 A 
ATOM     14  C2* UNL     1      20.696  39.781  -1.059  0.00  0.00    +0.000 A 
BRANCH  13  15
ATOM     15  O3* UNL     1      20.315  38.544   1.021  0.00  0.00    +0.000 OA
ATOM     16  H3* UNL     1      20.491  37.644   1.347  0.00  0.00    +0.000 HD
ENDBRANCH  13  15
BRANCH  12  17
ATOM     17  C5* UNL     1      18.885  36.625  -0.838  0.00  0.00    +0.000 C 
BRANCH  17  18
ATOM     18  O5* UNL     1      18.219  35.524  -0.502  0.00  0.00    +0.000 OA
ATOM     19  H5* UNL     1      18.740  34.735  -0.726  0.00  0.00    +0.000 HD
ENDBRANCH  17  18
ENDBRANCH  12  17
ENDBRANCH   3  10
BRANCH   7  20
ATOM     20  C   UNL     1      17.115  42.437  -4.942  0.00  0.00    +0.000 C 
ATOM     21  F   UNL     1      17.130  43.513  -5.768  0.00  0.00    +0.000 F 
ATOM     22  F   UNL     1      16.383  41.483  -5.580  0.00  0.00    +0.000 F 
ATOM     23  F   UNL     1      16.404  42.780  -3.839  0.00  0.00    +0.000 F 
ENDBRANCH   7  20
TORSDOF 5
ENDMDL
