MODEL 1
REMARK VINA RESULT:      -9.4      0.000      0.000
REMARK  Name = Troglitazone.pdbqt.pdb
REMARK  4 active torsions:
REMARK  status: ('A' for Active; 'I' for Inactive)
REMARK    1  A    between atoms: C_1  and  O_2
REMARK    2  A    between atoms: C_1  and  C_18
REMARK    3  A    between atoms: O_2  and  C_3
REMARK    4  A    between atoms: C_26  and  O_32
REMARK                            x       y       z     vdW  Elec       q    Type
REMARK                         _______ _______ _______ _____ _____    ______ ____
ROOT
ATOM      1  C   UNL     1       9.338  34.675  15.648  0.00  0.00    +0.000 C 
ENDROOT
BRANCH   1   2
ATOM      2  C   UNL     1       8.395  33.836  16.408  0.00  0.00    +0.000 C 
ATOM      3  O   UNL     1       8.405  32.501  15.785  0.00  0.00    +0.000 OA
ATOM      4  C   UNL     1       7.280  31.669  15.721  0.00  0.00    +0.000 A 
ATOM      5  C   UNL     1       5.937  32.135  15.835  0.00  0.00    +0.000 A 
ATOM      6  C   UNL     1       7.514  30.302  15.467  0.00  0.00    +0.000 A 
ATOM      7  C   UNL     1       5.820  33.530  16.072  0.00  0.00    +0.000 C 
ATOM      8  C   UNL     1       4.848  31.261  15.730  0.00  0.00    +0.000 A 
ATOM      9  C   UNL     1       7.034  34.353  16.344  0.00  0.00    +0.000 C 
ATOM     10  C   UNL     1       5.094  29.899  15.497  0.00  0.00    +0.000 A 
ATOM     11  C   UNL     1       3.433  31.783  15.856  0.00  0.00    +0.000 C 
ATOM     12  C   UNL     1       6.414  29.421  15.364  0.00  0.00    +0.000 A 
ATOM     13  C   UNL     1       6.559  27.923  15.095  0.00  0.00    +0.000 C 
ATOM     14  C   UNL     1       8.950  29.821  15.296  0.00  0.00    +0.000 C 
ATOM     15  C   UNL     1       8.852  33.649  17.875  0.00  0.00    +0.000 C 
BRANCH  10  16
ATOM     16  O   UNL     1       4.034  29.014  15.387  0.00  0.00    +0.000 OA
ATOM     17  H   UNL     1       4.395  28.101  15.399  0.00  0.00    +0.000 HD
ENDBRANCH  10  16
ENDBRANCH   1   2
BRANCH   1  18
ATOM     18  O   UNL     1      10.183  35.441  14.958  0.00  0.00    +0.000 OA
BRANCH  18  19
ATOM     19  C   UNL     1      10.443  36.664  15.525  0.00  0.00    +0.000 C 
ATOM     20  C   UNL     1       9.598  37.311  16.429  0.00  0.00    +0.000 C 
ATOM     21  C   UNL     1       9.952  38.550  16.957  0.00  0.00    +0.000 C 
ATOM     22  C   UNL     1      11.153  39.145  16.581  0.00  0.00    +0.000 C 
ATOM     23  C   UNL     1      12.001  38.505  15.679  0.00  0.00    +0.000 C 
ATOM     24  C   UNL     1      11.645  37.265  15.153  0.00  0.00    +0.000 C 
ATOM     25  C   UNL     1      11.518  40.411  17.121  0.00  0.00    +0.000 C 
ATOM     26  C   UNL     1      11.882  41.672  17.647  0.00  0.00    +0.000 C 
ATOM     27  S   UNL     1      11.631  42.170  19.276  0.00  0.00    +0.000 S 
ATOM     28  C   UNL     1      12.360  43.735  18.982  0.00  0.00    +0.000 C 
ATOM     29  O   UNL     1      12.491  44.603  19.829  0.00  0.00    +0.000 OA
ATOM     30  N   UNL     1      12.754  43.824  17.686  0.00  0.00    +0.000 N 
ATOM     31  C   UNL     1      12.544  42.746  16.878  0.00  0.00    +0.000 C 
ATOM     32  H   UNL     1      13.200  44.657  17.338  0.00  0.00    +0.000 HD
ATOM     33  O   UNL     1      12.861  42.683  15.702  0.00  0.00    +0.000 OA
ENDBRANCH  18  19
ENDBRANCH   1  18
TORSDOF 4
ENDMDL
MODEL 2
REMARK VINA RESULT:      -9.2      4.798     10.329
REMARK  Name = Troglitazone.pdbqt.pdb
REMARK  4 active torsions:
REMARK  status: ('A' for Active; 'I' for Inactive)
REMARK    1  A    between atoms: C_1  and  O_2
REMARK    2  A    between atoms: C_1  and  C_18
REMARK    3  A    between atoms: O_2  and  C_3
REMARK    4  A    between atoms: C_26  and  O_32
REMARK                            x       y       z     vdW  Elec       q    Type
REMARK                         _______ _______ _______ _____ _____    ______ ____
ROOT
ATOM      1  C   UNL     1       9.006  32.205  16.449  0.00  0.00    +0.000 C 
ENDROOT
BRANCH   1   2
ATOM      2  C   UNL     1       9.791  33.262  17.107  0.00  0.00    +0.000 C 
ATOM      3  O   UNL     1       9.304  34.551  16.586  0.00  0.00    +0.000 OA
ATOM      4  C   UNL     1      10.125  35.671  16.404  0.00  0.00    +0.000 A 
ATOM      5  C   UNL     1      11.544  35.607  16.277  0.00  0.00    +0.000 A 
ATOM      6  C   UNL     1       9.479  36.920  16.283  0.00  0.00    +0.000 A 
ATOM      7  C   UNL     1      12.084  34.300  16.398  0.00  0.00    +0.000 C 
ATOM      8  C   UNL     1      12.312  36.758  16.064  0.00  0.00    +0.000 A 
ATOM      9  C   UNL     1      11.211  33.158  16.798  0.00  0.00    +0.000 C 
ATOM     10  C   UNL     1      11.660  37.997  15.964  0.00  0.00    +0.000 A 
ATOM     11  C   UNL     1      13.817  36.662  15.933  0.00  0.00    +0.000 C 
ATOM     12  C   UNL     1      10.256  38.080  16.070  0.00  0.00    +0.000 A 
ATOM     13  C   UNL     1       9.656  39.480  15.929  0.00  0.00    +0.000 C 
ATOM     14  C   UNL     1       7.959  36.972  16.369  0.00  0.00    +0.000 C 
ATOM     15  C   UNL     1       9.553  33.280  18.637  0.00  0.00    +0.000 C 
BRANCH  10  16
ATOM     16  O   UNL     1      12.397  39.151  15.751  0.00  0.00    +0.000 OA
ATOM     17  H   UNL     1      11.776  39.912  15.734  0.00  0.00    +0.000 HD
ENDBRANCH  10  16
ENDBRANCH   1   2
BRANCH   1  18
ATOM     18  O   UNL     1       8.301  31.239  15.857  0.00  0.00    +0.000 OA
BRANCH  18  19
ATOM     19  C   UNL     1       6.956  31.492  15.753  0.00  0.00    +0.000 C 
ATOM     20  C   UNL     1       5.972  30.508  15.643  0.00  0.00    +0.000 C 
ATOM     21  C   UNL     1       4.629  30.864  15.549  0.00  0.00    +0.000 C 
ATOM     22  C   UNL     1       4.267  32.209  15.564  0.00  0.00    +0.000 C 
ATOM     23  C   UNL     1       5.244  33.196  15.673  0.00  0.00    +0.000 C 
ATOM     24  C   UNL     1       6.587  32.837  15.768  0.00  0.00    +0.000 C 
ATOM     25  C   UNL     1       2.895  32.576  15.470  0.00  0.00    +0.000 C 
ATOM     26  C   UNL     1       1.535  32.947  15.369  0.00  0.00    +0.000 C 
ATOM     27  S   UNL     1       0.230  32.127  16.136  0.00  0.00    +0.000 S 
ATOM     28  C   UNL     1      -0.949  33.245  15.478  0.00  0.00    +0.000 C 
ATOM     29  O   UNL     1      -2.148  33.183  15.691  0.00  0.00    +0.000 OA
ATOM     30  N   UNL     1      -0.324  34.175  14.713  0.00  0.00    +0.000 N 
ATOM     31  C   UNL     1       1.033  34.103  14.597  0.00  0.00    +0.000 C 
ATOM     32  H   UNL     1      -0.848  34.904  14.257  0.00  0.00    +0.000 HD
ATOM     33  O   UNL     1       1.720  34.879  13.956  0.00  0.00    +0.000 OA
ENDBRANCH  18  19
ENDBRANCH   1  18
TORSDOF 4
ENDMDL
MODEL 3
REMARK VINA RESULT:      -9.0      3.603      5.820
REMARK  Name = Troglitazone.pdbqt.pdb
REMARK  4 active torsions:
REMARK  status: ('A' for Active; 'I' for Inactive)
REMARK    1  A    between atoms: C_1  and  O_2
REMARK    2  A    between atoms: C_1  and  C_18
REMARK    3  A    between atoms: O_2  and  C_3
REMARK    4  A    between atoms: C_26  and  O_32
REMARK                            x       y       z     vdW  Elec       q    Type
REMARK                         _______ _______ _______ _____ _____    ______ ____
ROOT
ATOM      1  C   UNL     1       7.336  29.648  15.924  0.00  0.00    +0.000 C 
ENDROOT
BRANCH   1   2
ATOM      2  C   UNL     1       6.124  29.648  15.086  0.00  0.00    +0.000 C 
ATOM      3  O   UNL     1       5.424  30.919  15.337  0.00  0.00    +0.000 OA
ATOM      4  C   UNL     1       4.031  31.053  15.313  0.00  0.00    +0.000 A 
ATOM      5  C   UNL     1       3.123  29.965  15.477  0.00  0.00    +0.000 A 
ATOM      6  C   UNL     1       3.519  32.360  15.176  0.00  0.00    +0.000 A 
ATOM      7  C   UNL     1       3.747  28.699  15.623  0.00  0.00    +0.000 C 
ATOM      8  C   UNL     1       1.737  30.163  15.476  0.00  0.00    +0.000 A 
ATOM      9  C   UNL     1       5.221  28.559  15.437  0.00  0.00    +0.000 C 
ATOM     10  C   UNL     1       1.239  31.465  15.320  0.00  0.00    +0.000 A 
ATOM     11  C   UNL     1       0.796  28.989  15.652  0.00  0.00    +0.000 C 
ATOM     12  C   UNL     1       2.121  32.557  15.173  0.00  0.00    +0.000 A 
ATOM     13  C   UNL     1       1.465  33.931  15.028  0.00  0.00    +0.000 C 
ATOM     14  C   UNL     1       4.497  33.522  15.053  0.00  0.00    +0.000 C 
ATOM     15  C   UNL     1       6.473  29.619  13.578  0.00  0.00    +0.000 C 
BRANCH  10  16
ATOM     16  O   UNL     1      -0.128  31.688  15.318  0.00  0.00    +0.000 OA
ATOM     17  H   UNL     1      -0.378  32.051  14.441  0.00  0.00    +0.000 HD
ENDBRANCH  10  16
ENDBRANCH   1   2
BRANCH   1  18
ATOM     18  O   UNL     1       8.437  29.638  16.677  0.00  0.00    +0.000 OA
BRANCH  18  19
ATOM     19  C   UNL     1       9.191  30.783  16.604  0.00  0.00    +0.000 C 
ATOM     20  C   UNL     1       9.909  31.327  17.672  0.00  0.00    +0.000 C 
ATOM     21  C   UNL     1      10.652  32.491  17.498  0.00  0.00    +0.000 C 
ATOM     22  C   UNL     1      10.678  33.116  16.254  0.00  0.00    +0.000 C 
ATOM     23  C   UNL     1       9.964  32.580  15.185  0.00  0.00    +0.000 C 
ATOM     24  C   UNL     1       9.222  31.414  15.360  0.00  0.00    +0.000 C 
ATOM     25  C   UNL     1      11.438  34.307  16.073  0.00  0.00    +0.000 C 
ATOM     26  C   UNL     1      12.184  35.493  15.890  0.00  0.00    +0.000 C 
ATOM     27  S   UNL     1      13.736  35.797  16.573  0.00  0.00    +0.000 S 
ATOM     28  C   UNL     1      13.828  37.380  15.827  0.00  0.00    +0.000 C 
ATOM     29  O   UNL     1      14.774  38.141  15.945  0.00  0.00    +0.000 OA
ATOM     30  N   UNL     1      12.702  37.618  15.109  0.00  0.00    +0.000 N 
ATOM     31  C   UNL     1      11.747  36.645  15.073  0.00  0.00    +0.000 C 
ATOM     32  H   UNL     1      12.583  38.483  14.606  0.00  0.00    +0.000 HD
ATOM     33  O   UNL     1      10.698  36.719  14.457  0.00  0.00    +0.000 OA
ENDBRANCH  18  19
ENDBRANCH   1  18
TORSDOF 4
ENDMDL
MODEL 4
REMARK VINA RESULT:      -8.7      6.075     10.261
REMARK  Name = Troglitazone.pdbqt.pdb
REMARK  4 active torsions:
REMARK  status: ('A' for Active; 'I' for Inactive)
REMARK    1  A    between atoms: C_1  and  O_2
REMARK    2  A    between atoms: C_1  and  C_18
REMARK    3  A    between atoms: O_2  and  C_3
REMARK    4  A    between atoms: C_26  and  O_32
REMARK                            x       y       z     vdW  Elec       q    Type
REMARK                         _______ _______ _______ _____ _____    ______ ____
ROOT
ATOM      1  C   UNL     1       8.689  28.715  15.387  0.00  0.00    +0.000 C 
ENDROOT
BRANCH   1   2
ATOM      2  C   UNL     1       9.885  29.504  15.726  0.00  0.00    +0.000 C 
ATOM      3  O   UNL     1       9.837  29.763  17.175  0.00  0.00    +0.000 OA
ATOM      4  C   UNL     1      10.325  30.934  17.768  0.00  0.00    +0.000 A 
ATOM      5  C   UNL     1      10.519  32.161  17.067  0.00  0.00    +0.000 A 
ATOM      6  C   UNL     1      10.577  30.888  19.156  0.00  0.00    +0.000 A 
ATOM      7  C   UNL     1      10.219  32.097  15.682  0.00  0.00    +0.000 C 
ATOM      8  C   UNL     1      10.980  33.311  17.719  0.00  0.00    +0.000 A 
ATOM      9  C   UNL     1       9.902  30.789  15.039  0.00  0.00    +0.000 C 
ATOM     10  C   UNL     1      11.245  33.248  19.096  0.00  0.00    +0.000 A 
ATOM     11  C   UNL     1      11.177  34.601  16.951  0.00  0.00    +0.000 C 
ATOM     12  C   UNL     1      11.045  32.048  19.811  0.00  0.00    +0.000 A 
ATOM     13  C   UNL     1      11.350  32.103  21.308  0.00  0.00    +0.000 C 
ATOM     14  C   UNL     1      10.319  29.587  19.906  0.00  0.00    +0.000 C 
ATOM     15  C   UNL     1      11.187  28.710  15.456  0.00  0.00    +0.000 C 
BRANCH  10  16
ATOM     16  O   UNL     1      11.700  34.372  19.766  0.00  0.00    +0.000 OA
ATOM     17  H   UNL     1      11.760  34.156  20.722  0.00  0.00    +0.000 HD
ENDBRANCH  10  16
ENDBRANCH   1   2
BRANCH   1  18
ATOM     18  O   UNL     1       7.608  27.992  15.088  0.00  0.00    +0.000 OA
BRANCH  18  19
ATOM     19  C   UNL     1       6.421  28.676  15.170  0.00  0.00    +0.000 C 
ATOM     20  C   UNL     1       5.217  28.239  14.613  0.00  0.00    +0.000 C 
ATOM     21  C   UNL     1       4.060  29.001  14.755  0.00  0.00    +0.000 C 
ATOM     22  C   UNL     1       4.105  30.203  15.456  0.00  0.00    +0.000 C 
ATOM     23  C   UNL     1       5.303  30.645  16.014  0.00  0.00    +0.000 C 
ATOM     24  C   UNL     1       6.459  29.880  15.871  0.00  0.00    +0.000 C 
ATOM     25  C   UNL     1       2.923  30.983  15.604  0.00  0.00    +0.000 C 
ATOM     26  C   UNL     1       1.756  31.767  15.748  0.00  0.00    +0.000 C 
ATOM     27  S   UNL     1       0.179  31.140  16.042  0.00  0.00    +0.000 S 
ATOM     28  C   UNL     1      -0.526  32.744  16.074  0.00  0.00    +0.000 C 
ATOM     29  O   UNL     1      -1.709  32.970  16.266  0.00  0.00    +0.000 OA
ATOM     30  N   UNL     1       0.437  33.675  15.859  0.00  0.00    +0.000 N 
ATOM     31  C   UNL     1       1.717  33.242  15.678  0.00  0.00    +0.000 C 
ATOM     32  H   UNL     1       0.212  34.657  15.849  0.00  0.00    +0.000 HD
ATOM     33  O   UNL     1       2.679  33.968  15.491  0.00  0.00    +0.000 OA
ENDBRANCH  18  19
ENDBRANCH   1  18
TORSDOF 4
ENDMDL
MODEL 5
REMARK VINA RESULT:      -8.6      2.240      3.886
REMARK  Name = Troglitazone.pdbqt.pdb
REMARK  4 active torsions:
REMARK  status: ('A' for Active; 'I' for Inactive)
REMARK    1  A    between atoms: C_1  and  O_2
REMARK    2  A    between atoms: C_1  and  C_18
REMARK    3  A    between atoms: O_2  and  C_3
REMARK    4  A    between atoms: C_26  and  O_32
REMARK                            x       y       z     vdW  Elec       q    Type
REMARK                         _______ _______ _______ _____ _____    ______ ____
ROOT
ATOM      1  C   UNL     1       6.812  33.612  17.338  0.00  0.00    +0.000 C 
ENDROOT
BRANCH   1   2
ATOM      2  C   UNL     1       6.051  33.046  16.211  0.00  0.00    +0.000 C 
ATOM      3  O   UNL     1       4.706  32.721  16.716  0.00  0.00    +0.000 OA
ATOM      4  C   UNL     1       3.947  31.638  16.255  0.00  0.00    +0.000 A 
ATOM      5  C   UNL     1       4.501  30.500  15.598  0.00  0.00    +0.000 A 
ATOM      6  C   UNL     1       2.562  31.672  16.521  0.00  0.00    +0.000 A 
ATOM      7  C   UNL     1       5.905  30.565  15.398  0.00  0.00    +0.000 C 
ATOM      8  C   UNL     1       3.698  29.430  15.187  0.00  0.00    +0.000 A 
ATOM      9  C   UNL     1       6.653  31.817  15.710  0.00  0.00    +0.000 C 
ATOM     10  C   UNL     1       2.318  29.483  15.440  0.00  0.00    +0.000 A 
ATOM     11  C   UNL     1       4.312  28.234  14.491  0.00  0.00    +0.000 C 
ATOM     12  C   UNL     1       1.753  30.593  16.103  0.00  0.00    +0.000 A 
ATOM     13  C   UNL     1       0.244  30.532  16.340  0.00  0.00    +0.000 C 
ATOM     14  C   UNL     1       1.987  32.869  17.269  0.00  0.00    +0.000 C 
ATOM     15  C   UNL     1       5.864  34.080  15.073  0.00  0.00    +0.000 C 
BRANCH  10  16
ATOM     16  O   UNL     1       1.501  28.436  15.046  0.00  0.00    +0.000 OA
ATOM     17  H   UNL     1       1.059  28.692  14.207  0.00  0.00    +0.000 HD
ENDBRANCH  10  16
ENDBRANCH   1   2
BRANCH   1  18
ATOM     18  O   UNL     1       7.499  34.115  18.365  0.00  0.00    +0.000 OA
BRANCH  18  19
ATOM     19  C   UNL     1       8.345  35.145  18.038  0.00  0.00    +0.000 C 
ATOM     20  C   UNL     1       8.010  36.206  17.195  0.00  0.00    +0.000 C 
ATOM     21  C   UNL     1       8.937  37.211  16.928  0.00  0.00    +0.000 C 
ATOM     22  C   UNL     1      10.202  37.156  17.505  0.00  0.00    +0.000 C 
ATOM     23  C   UNL     1      10.543  36.100  18.348  0.00  0.00    +0.000 C 
ATOM     24  C   UNL     1       9.614  35.097  18.614  0.00  0.00    +0.000 C 
ATOM     25  C   UNL     1      11.151  38.183  17.235  0.00  0.00    +0.000 C 
ATOM     26  C   UNL     1      12.100  39.194  16.965  0.00  0.00    +0.000 C 
ATOM     27  S   UNL     1      11.742  40.874  16.840  0.00  0.00    +0.000 S 
ATOM     28  C   UNL     1      13.418  41.278  16.527  0.00  0.00    +0.000 C 
ATOM     29  O   UNL     1      13.829  42.411  16.346  0.00  0.00    +0.000 OA
ATOM     30  N   UNL     1      14.171  40.149  16.523  0.00  0.00    +0.000 N 
ATOM     31  C   UNL     1      13.545  38.961  16.760  0.00  0.00    +0.000 C 
ATOM     32  H   UNL     1      15.165  40.192  16.363  0.00  0.00    +0.000 HD
ATOM     33  O   UNL     1      14.100  37.876  16.800  0.00  0.00    +0.000 OA
ENDBRANCH  18  19
ENDBRANCH   1  18
TORSDOF 4
ENDMDL
MODEL 6
REMARK VINA RESULT:      -8.3      8.049     10.893
REMARK  Name = Troglitazone.pdbqt.pdb
REMARK  4 active torsions:
REMARK  status: ('A' for Active; 'I' for Inactive)
REMARK    1  A    between atoms: C_1  and  O_2
REMARK    2  A    between atoms: C_1  and  C_18
REMARK    3  A    between atoms: O_2  and  C_3
REMARK    4  A    between atoms: C_26  and  O_32
REMARK                            x       y       z     vdW  Elec       q    Type
REMARK                         _______ _______ _______ _____ _____    ______ ____
ROOT
ATOM      1  C   UNL     1       8.835  28.382  15.410  0.00  0.00    +0.000 C 
ENDROOT
BRANCH   1   2
ATOM      2  C   UNL     1      10.013  29.058  15.979  0.00  0.00    +0.000 C 
ATOM      3  O   UNL     1      11.105  28.924  15.000  0.00  0.00    +0.000 OA
ATOM      4  C   UNL     1      12.453  28.801  15.358  0.00  0.00    +0.000 A 
ATOM      5  C   UNL     1      12.901  28.365  16.640  0.00  0.00    +0.000 A 
ATOM      6  C   UNL     1      13.406  29.075  14.354  0.00  0.00    +0.000 A 
ATOM      7  C   UNL     1      11.858  28.102  17.566  0.00  0.00    +0.000 C 
ATOM      8  C   UNL     1      14.264  28.231  16.932  0.00  0.00    +0.000 A 
ATOM      9  C   UNL     1      10.446  28.439  17.226  0.00  0.00    +0.000 C 
ATOM     10  C   UNL     1      15.203  28.524  15.931  0.00  0.00    +0.000 A 
ATOM     11  C   UNL     1      14.712  27.766  18.301  0.00  0.00    +0.000 C 
ATOM     12  C   UNL     1      14.780  28.942  14.651  0.00  0.00    +0.000 A 
ATOM     13  C   UNL     1      15.890  29.217  13.637  0.00  0.00    +0.000 C 
ATOM     14  C   UNL     1      12.916  29.492  12.972  0.00  0.00    +0.000 C 
ATOM     15  C   UNL     1       9.764  30.575  16.167  0.00  0.00    +0.000 C 
BRANCH  10  16
ATOM     16  O   UNL     1      16.557  28.397  16.193  0.00  0.00    +0.000 OA
ATOM     17  H   UNL     1      16.741  28.814  17.063  0.00  0.00    +0.000 HD
ENDBRANCH  10  16
ENDBRANCH   1   2
BRANCH   1  18
ATOM     18  O   UNL     1       7.771  27.760  14.899  0.00  0.00    +0.000 OA
BRANCH  18  19
ATOM     19  C   UNL     1       6.590  28.450  15.023  0.00  0.00    +0.000 C 
ATOM     20  C   UNL     1       5.386  28.070  14.426  0.00  0.00    +0.000 C 
ATOM     21  C   UNL     1       4.237  28.833  14.616  0.00  0.00    +0.000 C 
ATOM     22  C   UNL     1       4.290  29.979  15.404  0.00  0.00    +0.000 C 
ATOM     23  C   UNL     1       5.488  30.364  16.002  0.00  0.00    +0.000 C 
ATOM     24  C   UNL     1       6.636  29.599  15.812  0.00  0.00    +0.000 C 
ATOM     25  C   UNL     1       3.115  30.760  15.602  0.00  0.00    +0.000 C 
ATOM     26  C   UNL     1       1.956  31.544  15.794  0.00  0.00    +0.000 C 
ATOM     27  S   UNL     1       0.369  30.916  16.030  0.00  0.00    +0.000 S 
ATOM     28  C   UNL     1      -0.318  32.521  16.176  0.00  0.00    +0.000 C 
ATOM     29  O   UNL     1      -1.499  32.747  16.376  0.00  0.00    +0.000 OA
ATOM     30  N   UNL     1       0.658  33.454  16.038  0.00  0.00    +0.000 N 
ATOM     31  C   UNL     1       1.934  33.021  15.834  0.00  0.00    +0.000 C 
ATOM     32  H   UNL     1       0.444  34.437  16.098  0.00  0.00    +0.000 HD
ATOM     33  O   UNL     1       2.906  33.747  15.709  0.00  0.00    +0.000 OA
ENDBRANCH  18  19
ENDBRANCH   1  18
TORSDOF 4
ENDMDL
MODEL 7
REMARK VINA RESULT:      -8.1     14.733     16.540
REMARK  Name = Troglitazone.pdbqt.pdb
REMARK  4 active torsions:
REMARK  status: ('A' for Active; 'I' for Inactive)
REMARK    1  A    between atoms: C_1  and  O_2
REMARK    2  A    between atoms: C_1  and  C_18
REMARK    3  A    between atoms: O_2  and  C_3
REMARK    4  A    between atoms: C_26  and  O_32
REMARK                            x       y       z     vdW  Elec       q    Type
REMARK                         _______ _______ _______ _____ _____    ______ ____
ROOT
ATOM      1  C   UNL     1      -5.642  42.762  14.925  0.00  0.00    +0.000 C 
ENDROOT
BRANCH   1   2
ATOM      2  C   UNL     1      -4.638  42.309  15.902  0.00  0.00    +0.000 C 
ATOM      3  O   UNL     1      -3.393  43.042  15.616  0.00  0.00    +0.000 OA
ATOM      4  C   UNL     1      -2.115  42.499  15.799  0.00  0.00    +0.000 A 
ATOM      5  C   UNL     1      -1.846  41.099  15.857  0.00  0.00    +0.000 A 
ATOM      6  C   UNL     1      -1.040  43.410  15.869  0.00  0.00    +0.000 A 
ATOM      7  C   UNL     1      -2.998  40.277  15.760  0.00  0.00    +0.000 C 
ATOM      8  C   UNL     1      -0.542  40.612  16.010  0.00  0.00    +0.000 A 
ATOM      9  C   UNL     1      -4.361  40.883  15.775  0.00  0.00    +0.000 C 
ATOM     10  C   UNL     1       0.517  41.528  16.097  0.00  0.00    +0.000 A 
ATOM     11  C   UNL     1      -0.284  39.121  16.070  0.00  0.00    +0.000 C 
ATOM     12  C   UNL     1       0.274  42.916  16.026  0.00  0.00    +0.000 A 
ATOM     13  C   UNL     1       1.506  43.816  16.115  0.00  0.00    +0.000 C 
ATOM     14  C   UNL     1      -1.333  44.901  15.754  0.00  0.00    +0.000 C 
ATOM     15  C   UNL     1      -5.047  42.671  17.351  0.00  0.00    +0.000 C 
BRANCH  10  16
ATOM     16  O   UNL     1       1.817  41.071  16.247  0.00  0.00    +0.000 OA
ATOM     17  H   UNL     1       2.166  41.415  17.098  0.00  0.00    +0.000 HD
ENDBRANCH  10  16
ENDBRANCH   1   2
BRANCH   1  18
ATOM     18  O   UNL     1      -6.558  43.164  14.041  0.00  0.00    +0.000 OA
BRANCH  18  19
ATOM     19  C   UNL     1      -6.043  43.701  12.887  0.00  0.00    +0.000 C 
ATOM     20  C   UNL     1      -6.421  43.316  11.599  0.00  0.00    +0.000 C 
ATOM     21  C   UNL     1      -5.846  43.925  10.487  0.00  0.00    +0.000 C 
ATOM     22  C   UNL     1      -4.890  44.922  10.661  0.00  0.00    +0.000 C 
ATOM     23  C   UNL     1      -4.508  45.311  11.944  0.00  0.00    +0.000 C 
ATOM     24  C   UNL     1      -5.086  44.701  13.055  0.00  0.00    +0.000 C 
ATOM     25  C   UNL     1      -4.302  45.548   9.526  0.00  0.00    +0.000 C 
ATOM     26  C   UNL     1      -3.708  46.167   8.403  0.00  0.00    +0.000 C 
ATOM     27  S   UNL     1      -4.543  46.600   6.960  0.00  0.00    +0.000 S 
ATOM     28  C   UNL     1      -3.089  47.257   6.235  0.00  0.00    +0.000 C 
ATOM     29  O   UNL     1      -3.041  47.760   5.126  0.00  0.00    +0.000 OA
ATOM     30  N   UNL     1      -2.045  47.122   7.092  0.00  0.00    +0.000 N 
ATOM     31  C   UNL     1      -2.283  46.547   8.305  0.00  0.00    +0.000 C 
ATOM     32  H   UNL     1      -1.126  47.451   6.842  0.00  0.00    +0.000 HD
ATOM     33  O   UNL     1      -1.444  46.378   9.174  0.00  0.00    +0.000 OA
ENDBRANCH  18  19
ENDBRANCH   1  18
TORSDOF 4
ENDMDL
MODEL 8
REMARK VINA RESULT:      -7.9     10.845     14.806
REMARK  Name = Troglitazone.pdbqt.pdb
REMARK  4 active torsions:
REMARK  status: ('A' for Active; 'I' for Inactive)
REMARK    1  A    between atoms: C_1  and  O_2
REMARK    2  A    between atoms: C_1  and  C_18
REMARK    3  A    between atoms: O_2  and  C_3
REMARK    4  A    between atoms: C_26  and  O_32
REMARK                            x       y       z     vdW  Elec       q    Type
REMARK                         _______ _______ _______ _____ _____    ______ ____
ROOT
ATOM      1  C   UNL     1      -3.078  41.776  15.850  0.00  0.00    +0.000 C 
ENDROOT
BRANCH   1   2
ATOM      2  C   UNL     1      -2.964  42.678  17.009  0.00  0.00    +0.000 C 
ATOM      3  O   UNL     1      -1.576  43.168  17.042  0.00  0.00    +0.000 OA
ATOM      4  C   UNL     1      -0.885  43.455  18.226  0.00  0.00    +0.000 A 
ATOM      5  C   UNL     1      -1.238  42.926  19.502  0.00  0.00    +0.000 A 
ATOM      6  C   UNL     1       0.260  44.272  18.112  0.00  0.00    +0.000 A 
ATOM      7  C   UNL     1      -2.395  42.105  19.496  0.00  0.00    +0.000 C 
ATOM      8  C   UNL     1      -0.490  43.222  20.648  0.00  0.00    +0.000 A 
ATOM      9  C   UNL     1      -3.228  41.986  18.264  0.00  0.00    +0.000 C 
ATOM     10  C   UNL     1       0.636  44.051  20.526  0.00  0.00    +0.000 A 
ATOM     11  C   UNL     1      -0.887  42.647  21.991  0.00  0.00    +0.000 C 
ATOM     12  C   UNL     1       1.011  44.571  19.270  0.00  0.00    +0.000 A 
ATOM     13  C   UNL     1       2.264  45.447  19.256  0.00  0.00    +0.000 C 
ATOM     14  C   UNL     1       0.658  44.791  16.736  0.00  0.00    +0.000 C 
ATOM     15  C   UNL     1      -3.875  43.921  16.856  0.00  0.00    +0.000 C 
BRANCH  10  16
ATOM     16  O   UNL     1       1.394  44.357  21.645  0.00  0.00    +0.000 OA
ATOM     17  H   UNL     1       2.262  44.704  21.341  0.00  0.00    +0.000 HD
ENDBRANCH  10  16
ENDBRANCH   1   2
BRANCH   1  18
ATOM     18  O   UNL     1      -3.192  40.960  14.801  0.00  0.00    +0.000 OA
BRANCH  18  19
ATOM     19  C   UNL     1      -2.633  39.719  14.977  0.00  0.00    +0.000 C 
ATOM     20  C   UNL     1      -2.689  38.988  16.166  0.00  0.00    +0.000 C 
ATOM     21  C   UNL     1      -2.097  37.731  16.246  0.00  0.00    +0.000 C 
ATOM     22  C   UNL     1      -1.445  37.201  15.135  0.00  0.00    +0.000 C 
ATOM     23  C   UNL     1      -1.384  37.925  13.946  0.00  0.00    +0.000 C 
ATOM     24  C   UNL     1      -1.979  39.182  13.868  0.00  0.00    +0.000 C 
ATOM     25  C   UNL     1      -0.839  35.914  15.214  0.00  0.00    +0.000 C 
ATOM     26  C   UNL     1      -0.229  34.642  15.288  0.00  0.00    +0.000 C 
ATOM     27  S   UNL     1      -0.889  33.279  16.109  0.00  0.00    +0.000 S 
ATOM     28  C   UNL     1       0.470  32.267  15.661  0.00  0.00    +0.000 C 
ATOM     29  O   UNL     1       0.582  31.092  15.968  0.00  0.00    +0.000 OA
ATOM     30  N   UNL     1       1.357  32.985  14.927  0.00  0.00    +0.000 N 
ATOM     31  C   UNL     1       1.062  34.289  14.662  0.00  0.00    +0.000 C 
ATOM     32  H   UNL     1       2.201  32.560  14.578  0.00  0.00    +0.000 HD
ATOM     33  O   UNL     1       1.760  35.043  14.005  0.00  0.00    +0.000 OA
ENDBRANCH  18  19
ENDBRANCH   1  18
TORSDOF 4
ENDMDL
MODEL 9
REMARK VINA RESULT:      -7.7     24.981     28.804
REMARK  Name = Troglitazone.pdbqt.pdb
REMARK  4 active torsions:
REMARK  status: ('A' for Active; 'I' for Inactive)
REMARK    1  A    between atoms: C_1  and  O_2
REMARK    2  A    between atoms: C_1  and  C_18
REMARK    3  A    between atoms: O_2  and  C_3
REMARK    4  A    between atoms: C_26  and  O_32
REMARK                            x       y       z     vdW  Elec       q    Type
REMARK                         _______ _______ _______ _____ _____    ______ ____
ROOT
ATOM      1  C   UNL     1      -2.235  60.330  14.632  0.00  0.00    +0.000 C 
ENDROOT
BRANCH   1   2
ATOM      2  C   UNL     1      -1.428  60.560  15.842  0.00  0.00    +0.000 C 
ATOM      3  O   UNL     1      -0.148  61.145  15.405  0.00  0.00    +0.000 OA
ATOM      4  C   UNL     1       1.072  60.905  16.049  0.00  0.00    +0.000 A 
ATOM      5  C   UNL     1       1.321  59.782  16.892  0.00  0.00    +0.000 A 
ATOM      6  C   UNL     1       2.119  61.812  15.785  0.00  0.00    +0.000 A 
ATOM      7  C   UNL     1       0.203  58.927  17.073  0.00  0.00    +0.000 C 
ATOM      8  C   UNL     1       2.572  59.575  17.484  0.00  0.00    +0.000 A 
ATOM      9  C   UNL     1      -1.138  59.317  16.547  0.00  0.00    +0.000 C 
ATOM     10  C   UNL     1       3.602  60.495  17.229  0.00  0.00    +0.000 A 
ATOM     11  C   UNL     1       2.809  58.374  18.375  0.00  0.00    +0.000 C 
ATOM     12  C   UNL     1       3.381  61.604  16.386  0.00  0.00    +0.000 A 
ATOM     13  C   UNL     1       4.579  62.528  16.168  0.00  0.00    +0.000 C 
ATOM     14  C   UNL     1       1.859  62.982  14.844  0.00  0.00    +0.000 C 
ATOM     15  C   UNL     1      -2.093  61.593  16.785  0.00  0.00    +0.000 C 
BRANCH  10  16
ATOM     16  O   UNL     1       4.850  60.312  17.802  0.00  0.00    +0.000 OA
ATOM     17  H   UNL     1       4.725  59.908  18.688  0.00  0.00    +0.000 HD
ENDBRANCH  10  16
ENDBRANCH   1   2
BRANCH   1  18
ATOM     18  O   UNL     1      -2.959  60.129  13.530  0.00  0.00    +0.000 OA
BRANCH  18  19
ATOM     19  C   UNL     1      -2.563  60.865  12.441  0.00  0.00    +0.000 C 
ATOM     20  C   UNL     1      -1.864  62.072  12.515  0.00  0.00    +0.000 C 
ATOM     21  C   UNL     1      -1.498  62.744  11.351  0.00  0.00    +0.000 C 
ATOM     22  C   UNL     1      -1.831  62.209  10.110  0.00  0.00    +0.000 C 
ATOM     23  C   UNL     1      -2.528  61.005  10.029  0.00  0.00    +0.000 C 
ATOM     24  C   UNL     1      -2.892  60.334  11.195  0.00  0.00    +0.000 C 
ATOM     25  C   UNL     1      -1.456  62.893   8.918  0.00  0.00    +0.000 C 
ATOM     26  C   UNL     1      -1.095  63.570   7.732  0.00  0.00    +0.000 C 
ATOM     27  S   UNL     1       0.402  64.384   7.479  0.00  0.00    +0.000 S 
ATOM     28  C   UNL     1      -0.050  64.852   5.852  0.00  0.00    +0.000 C 
ATOM     29  O   UNL     1       0.662  65.495   5.099  0.00  0.00    +0.000 OA
ATOM     30  N   UNL     1      -1.294  64.391   5.569  0.00  0.00    +0.000 N 
ATOM     31  C   UNL     1      -1.945  63.672   6.527  0.00  0.00    +0.000 C 
ATOM     32  H   UNL     1      -1.716  64.564   4.670  0.00  0.00    +0.000 HD
ATOM     33  O   UNL     1      -3.056  63.187   6.402  0.00  0.00    +0.000 OA
ENDBRANCH  18  19
ENDBRANCH   1  18
TORSDOF 4
ENDMDL
