MODEL 1
REMARK VINA RESULT:      -7.7      0.000      0.000
REMARK  Name = 
REMARK  19 active torsions:
REMARK  status: ('A' for Active; 'I' for Inactive)
REMARK    1  A    between atoms: O_1  and  C_20
REMARK    2  A    between atoms: O_1  and  C_36
REMARK    3  A    between atoms: O_2  and  C_18
REMARK    4  A    between atoms: O_3  and  C_28
REMARK    5  A    between atoms: O_3  and  C_42
REMARK    6  A    between atoms: O_5  and  C_34
REMARK    7  A    between atoms: O_5  and  C_50
REMARK    8  A    between atoms: O_7  and  C_40
REMARK    9  A    between atoms: O_7  and  C_56
REMARK   10  A    between atoms: O_9  and  C_46
REMARK   11  A    between atoms: N_11  and  C_30
REMARK   12  A    between atoms: C_17  and  C_23
REMARK   13  A    between atoms: C_18  and  C_28
REMARK   14  A    between atoms: C_23  and  C_32
REMARK   15  A    between atoms: C_33  and  C_35
REMARK   16  A    between atoms: C_35  and  C_40
REMARK   17  A    between atoms: C_36  and  C_41
REMARK   18  A    between atoms: C_46  and  C_53
REMARK   19  A    between atoms: C_53  and  C_57
REMARK                            x       y       z     vdW  Elec       q    Type
REMARK                         _______ _______ _______ _____ _____    ______ ____
ROOT
ATOM      1  N   UNL     1      -5.373  44.488  17.166  0.00  0.00    +0.000 NA
ATOM      2  N   UNL     1      -3.799  40.700  14.726  0.00  0.00    +0.000 N 
ATOM      3  C   UNL     1      -4.587  42.625  16.006  0.00  0.00    +0.000 C 
ATOM      4  C   UNL     1      -4.900  43.116  17.431  0.00  0.00    +0.000 C 
ATOM      5  C   UNL     1      -3.685  41.375  16.053  0.00  0.00    +0.000 C 
ATOM      6  C   UNL     1      -3.682  42.947  18.452  0.00  0.00    +0.000 C 
ATOM      7  C   UNL     1      -2.286  41.579  16.657  0.00  0.00    +0.000 C 
ATOM      8  C   UNL     1      -4.129  43.881  15.241  0.00  0.00    +0.000 C 
ATOM      9  C   UNL     1      -2.282  42.721  17.726  0.00  0.00    +0.000 C 
ATOM     10  C   UNL     1      -5.703  42.003  15.190  0.00  0.00    +0.000 A 
ATOM     11  C   UNL     1      -4.541  45.063  16.116  0.00  0.00    +0.000 C 
ATOM     12  C   UNL     1      -5.176  40.946  14.436  0.00  0.00    +0.000 A 
ATOM     13  C   UNL     1      -3.540  44.167  19.364  0.00  0.00    +0.000 C 
ATOM     14  C   UNL     1      -5.504  45.328  18.348  0.00  0.00    +0.000 C 
ATOM     15  C   UNL     1      -4.370  45.218  19.315  0.00  0.00    +0.000 C 
ATOM     16  C   UNL     1      -7.037  42.386  15.092  0.00  0.00    +0.000 A 
ATOM     17  C   UNL     1      -3.403  39.295  14.647  0.00  0.00    +0.000 C 
ATOM     18  C   UNL     1      -5.986  40.282  13.534  0.00  0.00    +0.000 A 
ATOM     19  C   UNL     1      -7.890  41.724  14.186  0.00  0.00    +0.000 A 
ATOM     20  C   UNL     1      -7.329  40.672  13.404  0.00  0.00    +0.000 A 
ENDROOT
BRANCH  19  23
ATOM     21  N   UNL     1     -13.643  42.609  13.350  0.00  0.00    +0.000 NA
ATOM     22  N   UNL     1      -9.498  41.961  16.543  0.00  0.00    +0.000 N 
ATOM     23  C   UNL     1      -9.407  42.134  14.014  0.00  0.00    +0.000 C 
ATOM     24  C   UNL     1     -10.271  40.929  13.420  0.00  0.00    +0.000 C 
ATOM     25  C   UNL     1     -10.041  42.514  15.396  0.00  0.00    +0.000 A 
ATOM     26  C   UNL     1     -11.800  41.053  13.523  0.00  0.00    +0.000 C 
ATOM     27  C   UNL     1     -12.576  39.812  13.085  0.00  0.00    +0.000 C 
ATOM     28  C   UNL     1     -12.385  42.219  12.739  0.00  0.00    +0.000 C 
ATOM     29  C   UNL     1     -11.161  43.256  15.814  0.00  0.00    +0.000 A 
ATOM     30  C   UNL     1     -14.113  40.006  13.255  0.00  0.00    +0.000 C 
ATOM     31  C   UNL     1     -14.624  41.504  13.305  0.00  0.00    +0.000 C 
ATOM     32  C   UNL     1     -12.211  44.021  15.023  0.00  0.00    +0.000 C 
ATOM     33  C   UNL     1     -13.495  43.196  14.708  0.00  0.00    +0.000 C 
ATOM     34  C   UNL     1     -11.218  43.156  17.254  0.00  0.00    +0.000 A 
ATOM     35  C   UNL     1     -10.171  42.347  17.669  0.00  0.00    +0.000 A 
ATOM     36  C   UNL     1     -12.088  43.674  18.240  0.00  0.00    +0.000 A 
ATOM     37  C   UNL     1      -9.932  42.030  19.012  0.00  0.00    +0.000 A 
ATOM     38  C   UNL     1     -11.867  43.371  19.589  0.00  0.00    +0.000 A 
ATOM     39  C   UNL     1     -10.802  42.560  19.967  0.00  0.00    +0.000 A 
ATOM     40  H   UNL     1      -8.686  41.358  16.560  0.00  0.00    +0.000 HD
BRANCH  23  42
ATOM     41  O   UNL     1      -9.352  44.532  13.292  0.00  0.00    +0.000 OA
ATOM     42  C   UNL     1      -9.393  43.340  13.017  0.00  0.00    +0.000 C 
BRANCH  42  43
ATOM     43  O   UNL     1      -9.403  42.876  11.722  0.00  0.00    +0.000 OA
ATOM     44  C   UNL     1      -8.330  43.372  10.922  0.00  0.00    +0.000 C 
ENDBRANCH  42  43
ENDBRANCH  23  42
BRANCH  30  45
ATOM     45  O   UNL     1     -14.707  39.390  12.084  0.00  0.00    +0.000 OA
ATOM     46  H   UNL     1     -14.138  38.641  11.830  0.00  0.00    +0.000 HD
ENDBRANCH  30  45
BRANCH  30  47
ATOM     47  C   UNL     1     -14.664  39.169  14.433  0.00  0.00    +0.000 C 
ATOM     48  C   UNL     1     -15.990  39.619  15.023  0.00  0.00    +0.000 C 
ENDBRANCH  30  47
ENDBRANCH  19  23
BRANCH   7  49
ATOM     49  O   UNL     1      -1.991  40.343  17.386  0.00  0.00    +0.000 OA
ATOM     50  H   UNL     1      -1.035  40.176  17.257  0.00  0.00    +0.000 HD
ENDBRANCH   7  49
BRANCH   7  52
ATOM     51  O   UNL     1      -1.202  42.607  14.673  0.00  0.00    +0.000 OA
ATOM     52  C   UNL     1      -1.197  41.779  15.573  0.00  0.00    +0.000 C 
BRANCH  52  53
ATOM     53  O   UNL     1      -0.147  40.924  15.812  0.00  0.00    +0.000 OA
ATOM     54  C   UNL     1       1.069  41.585  16.166  0.00  0.00    +0.000 C 
ENDBRANCH  52  53
ENDBRANCH   7  52
BRANCH  20  55
ATOM     55  O   UNL     1      -8.173  40.004  12.553  0.00  0.00    +0.000 OA
ATOM     56  C   UNL     1      -7.642  39.738  11.258  0.00  0.00    +0.000 C 
ENDBRANCH  20  55
BRANCH   6  57
ATOM     57  C   UNL     1      -3.955  41.722  19.401  0.00  0.00    +0.000 C 
ATOM     58  C   UNL     1      -5.393  41.546  19.892  0.00  0.00    +0.000 C 
ENDBRANCH   6  57
BRANCH   9  59
ATOM     59  O   UNL     1      -1.852  43.986  17.170  0.00  0.00    +0.000 OA
BRANCH  59  61
ATOM     60  O   UNL     1      -0.037  44.059  18.566  0.00  0.00    +0.000 OA
ATOM     61  C   UNL     1      -0.667  44.488  17.609  0.00  0.00    +0.000 C 
ATOM     62  C   UNL     1      -0.227  45.617  16.730  0.00  0.00    +0.000 C 
ENDBRANCH  59  61
ENDBRANCH   9  59
TORSDOF 12
ENDMDL
MODEL 2
REMARK VINA RESULT:      -7.5      2.028      9.734
REMARK  Name = 
REMARK  19 active torsions:
REMARK  status: ('A' for Active; 'I' for Inactive)
REMARK    1  A    between atoms: O_1  and  C_20
REMARK    2  A    between atoms: O_1  and  C_36
REMARK    3  A    between atoms: O_2  and  C_18
REMARK    4  A    between atoms: O_3  and  C_28
REMARK    5  A    between atoms: O_3  and  C_42
REMARK    6  A    between atoms: O_5  and  C_34
REMARK    7  A    between atoms: O_5  and  C_50
REMARK    8  A    between atoms: O_7  and  C_40
REMARK    9  A    between atoms: O_7  and  C_56
REMARK   10  A    between atoms: O_9  and  C_46
REMARK   11  A    between atoms: N_11  and  C_30
REMARK   12  A    between atoms: C_17  and  C_23
REMARK   13  A    between atoms: C_18  and  C_28
REMARK   14  A    between atoms: C_23  and  C_32
REMARK   15  A    between atoms: C_33  and  C_35
REMARK   16  A    between atoms: C_35  and  C_40
REMARK   17  A    between atoms: C_36  and  C_41
REMARK   18  A    between atoms: C_46  and  C_53
REMARK   19  A    between atoms: C_53  and  C_57
REMARK                            x       y       z     vdW  Elec       q    Type
REMARK                         _______ _______ _______ _____ _____    ______ ____
ROOT
ATOM      1  N   UNL     1      -9.192  41.805  16.995  0.00  0.00    +0.000 NA
ATOM      2  N   UNL     1      -8.061  41.546  12.365  0.00  0.00    +0.000 N 
ATOM      3  C   UNL     1      -8.667  41.705  14.725  0.00  0.00    +0.000 C 
ATOM      4  C   UNL     1      -9.325  42.620  15.773  0.00  0.00    +0.000 C 
ATOM      5  C   UNL     1      -9.057  42.147  13.301  0.00  0.00    +0.000 C 
ATOM      6  C   UNL     1     -10.795  43.103  15.372  0.00  0.00    +0.000 C 
ATOM      7  C   UNL     1     -10.551  42.044  12.951  0.00  0.00    +0.000 C 
ATOM      8  C   UNL     1      -8.970  40.271  15.200  0.00  0.00    +0.000 C 
ATOM      9  C   UNL     1     -11.451  42.223  14.218  0.00  0.00    +0.000 C 
ATOM     10  C   UNL     1      -7.166  41.787  14.528  0.00  0.00    +0.000 A 
ATOM     11  C   UNL     1      -9.448  40.413  16.644  0.00  0.00    +0.000 C 
ATOM     12  C   UNL     1      -6.880  41.631  13.165  0.00  0.00    +0.000 A 
ATOM     13  C   UNL     1     -11.743  43.073  16.573  0.00  0.00    +0.000 C 
ATOM     14  C   UNL     1      -9.962  42.281  18.134  0.00  0.00    +0.000 C 
ATOM     15  C   UNL     1     -11.353  42.716  17.804  0.00  0.00    +0.000 C 
ATOM     16  C   UNL     1      -6.161  41.929  15.480  0.00  0.00    +0.000 A 
ATOM     17  C   UNL     1      -7.938  42.142  11.036  0.00  0.00    +0.000 C 
ATOM     18  C   UNL     1      -5.565  41.574  12.746  0.00  0.00    +0.000 A 
ATOM     19  C   UNL     1      -4.810  41.881  15.085  0.00  0.00    +0.000 A 
ATOM     20  C   UNL     1      -4.538  41.689  13.698  0.00  0.00    +0.000 A 
ENDROOT
BRANCH  19  23
ATOM     21  N   UNL     1      -0.009  42.468  18.428  0.00  0.00    +0.000 NA
ATOM     22  N   UNL     1      -4.584  44.316  16.573  0.00  0.00    +0.000 N 
ATOM     23  C   UNL     1      -3.628  42.010  16.127  0.00  0.00    +0.000 C 
ATOM     24  C   UNL     1      -2.224  42.207  15.392  0.00  0.00    +0.000 C 
ATOM     25  C   UNL     1      -3.838  43.254  17.055  0.00  0.00    +0.000 A 
ATOM     26  C   UNL     1      -1.048  42.690  16.256  0.00  0.00    +0.000 C 
ATOM     27  C   UNL     1       0.229  43.013  15.482  0.00  0.00    +0.000 C 
ATOM     28  C   UNL     1      -0.645  41.720  17.358  0.00  0.00    +0.000 C 
ATOM     29  C   UNL     1      -3.359  43.656  18.315  0.00  0.00    +0.000 A 
ATOM     30  C   UNL     1       1.357  43.530  16.425  0.00  0.00    +0.000 C 
ATOM     31  C   UNL     1       1.219  43.141  17.953  0.00  0.00    +0.000 C 
ATOM     32  C   UNL     1      -2.424  42.970  19.299  0.00  0.00    +0.000 C 
ATOM     33  C   UNL     1      -0.929  43.386  19.150  0.00  0.00    +0.000 C 
ATOM     34  C   UNL     1      -3.898  44.971  18.570  0.00  0.00    +0.000 A 
ATOM     35  C   UNL     1      -4.653  45.346  17.469  0.00  0.00    +0.000 A 
ATOM     36  C   UNL     1      -3.792  45.885  19.644  0.00  0.00    +0.000 A 
ATOM     37  C   UNL     1      -5.318  46.575  17.377  0.00  0.00    +0.000 A 
ATOM     38  C   UNL     1      -4.449  47.119  19.573  0.00  0.00    +0.000 A 
ATOM     39  C   UNL     1      -5.202  47.457  18.454  0.00  0.00    +0.000 A 
ATOM     40  H   UNL     1      -5.047  44.330  15.673  0.00  0.00    +0.000 HD
BRANCH  23  42
ATOM     41  O   UNL     1      -3.748  40.521  18.138  0.00  0.00    +0.000 OA
ATOM     42  C   UNL     1      -3.642  40.665  16.927  0.00  0.00    +0.000 C 
BRANCH  42  43
ATOM     43  O   UNL     1      -3.546  39.603  16.058  0.00  0.00    +0.000 OA
ATOM     44  C   UNL     1      -2.483  38.700  16.362  0.00  0.00    +0.000 C 
ENDBRANCH  42  43
ENDBRANCH  23  42
BRANCH  30  45
ATOM     45  O   UNL     1       2.575  42.917  15.934  0.00  0.00    +0.000 OA
ATOM     46  H   UNL     1       2.913  43.479  15.214  0.00  0.00    +0.000 HD
ENDBRANCH  30  45
BRANCH  30  47
ATOM     47  C   UNL     1       1.603  45.045  16.236  0.00  0.00    +0.000 C 
ATOM     48  C   UNL     1       0.798  45.734  15.149  0.00  0.00    +0.000 C 
ENDBRANCH  30  47
ENDBRANCH  19  23
BRANCH   7  49
ATOM     49  O   UNL     1     -10.831  43.196  12.091  0.00  0.00    +0.000 OA
ATOM     50  H   UNL     1     -10.588  43.988  12.614  0.00  0.00    +0.000 HD
ENDBRANCH   7  49
BRANCH   7  52
ATOM     51  O   UNL     1     -10.539  39.614  12.442  0.00  0.00    +0.000 OA
ATOM     52  C   UNL     1     -10.886  40.753  12.163  0.00  0.00    +0.000 C 
BRANCH  52  53
ATOM     53  O   UNL     1     -11.722  41.056  11.116  0.00  0.00    +0.000 OA
ATOM     54  C   UNL     1     -11.321  40.485   9.869  0.00  0.00    +0.000 C 
ENDBRANCH  52  53
ENDBRANCH   7  52
BRANCH  20  55
ATOM     55  O   UNL     1      -3.222  41.683  13.312  0.00  0.00    +0.000 OA
ATOM     56  C   UNL     1      -2.743  40.440  12.806  0.00  0.00    +0.000 C 
ENDBRANCH  20  55
BRANCH   6  57
ATOM     57  C   UNL     1     -10.747  44.600  14.891  0.00  0.00    +0.000 C 
ATOM     58  C   UNL     1      -9.450  45.364  15.164  0.00  0.00    +0.000 C 
ENDBRANCH   6  57
BRANCH   9  59
ATOM     59  O   UNL     1     -11.848  40.953  14.788  0.00  0.00    +0.000 OA
BRANCH  59  61
ATOM     60  O   UNL     1     -14.084  41.431  14.655  0.00  0.00    +0.000 OA
ATOM     61  C   UNL     1     -13.166  40.626  14.721  0.00  0.00    +0.000 C 
ATOM     62  C   UNL     1     -13.329  39.138  14.705  0.00  0.00    +0.000 C 
ENDBRANCH  59  61
ENDBRANCH   9  59
TORSDOF 12
ENDMDL
MODEL 3
REMARK VINA RESULT:      -7.4      3.713     11.061
REMARK  Name = 
REMARK  19 active torsions:
REMARK  status: ('A' for Active; 'I' for Inactive)
REMARK    1  A    between atoms: O_1  and  C_20
REMARK    2  A    between atoms: O_1  and  C_36
REMARK    3  A    between atoms: O_2  and  C_18
REMARK    4  A    between atoms: O_3  and  C_28
REMARK    5  A    between atoms: O_3  and  C_42
REMARK    6  A    between atoms: O_5  and  C_34
REMARK    7  A    between atoms: O_5  and  C_50
REMARK    8  A    between atoms: O_7  and  C_40
REMARK    9  A    between atoms: O_7  and  C_56
REMARK   10  A    between atoms: O_9  and  C_46
REMARK   11  A    between atoms: N_11  and  C_30
REMARK   12  A    between atoms: C_17  and  C_23
REMARK   13  A    between atoms: C_18  and  C_28
REMARK   14  A    between atoms: C_23  and  C_32
REMARK   15  A    between atoms: C_33  and  C_35
REMARK   16  A    between atoms: C_35  and  C_40
REMARK   17  A    between atoms: C_36  and  C_41
REMARK   18  A    between atoms: C_46  and  C_53
REMARK   19  A    between atoms: C_53  and  C_57
REMARK                            x       y       z     vdW  Elec       q    Type
REMARK                         _______ _______ _______ _____ _____    ______ ____
ROOT
ATOM      1  N   UNL     1     -10.346  40.688  10.641  0.00  0.00    +0.000 NA
ATOM      2  N   UNL     1     -12.373  44.991  10.245  0.00  0.00    +0.000 N 
ATOM      3  C   UNL     1     -11.370  42.774  10.459  0.00  0.00    +0.000 C 
ATOM      4  C   UNL     1     -11.532  41.406  11.144  0.00  0.00    +0.000 C 
ATOM      5  C   UNL     1     -12.699  43.554  10.490  0.00  0.00    +0.000 C 
ATOM      6  C   UNL     1     -12.958  40.728  10.895  0.00  0.00    +0.000 C 
ATOM      7  C   UNL     1     -13.867  42.923   9.713  0.00  0.00    +0.000 C 
ATOM      8  C   UNL     1     -10.683  42.469   9.113  0.00  0.00    +0.000 C 
ATOM      9  C   UNL     1     -13.750  41.364   9.668  0.00  0.00    +0.000 C 
ATOM     10  C   UNL     1     -10.530  43.835  11.143  0.00  0.00    +0.000 A 
ATOM     11  C   UNL     1     -10.160  41.040   9.239  0.00  0.00    +0.000 C 
ATOM     12  C   UNL     1     -11.124  45.087  10.934  0.00  0.00    +0.000 A 
ATOM     13  C   UNL     1     -12.828  39.225  10.633  0.00  0.00    +0.000 C 
ATOM     14  C   UNL     1     -10.345  39.256  10.900  0.00  0.00    +0.000 C 
ATOM     15  C   UNL     1     -11.654  38.579  10.651  0.00  0.00    +0.000 C 
ATOM     16  C   UNL     1      -9.328  43.695  11.829  0.00  0.00    +0.000 A 
ATOM     17  C   UNL     1     -13.365  45.987  10.644  0.00  0.00    +0.000 C 
ATOM     18  C   UNL     1     -10.488  46.228  11.384  0.00  0.00    +0.000 A 
ATOM     19  C   UNL     1      -8.656  44.839  12.305  0.00  0.00    +0.000 A 
ATOM     20  C   UNL     1      -9.261  46.106  12.055  0.00  0.00    +0.000 A 
ENDROOT
BRANCH  19  23
ATOM     21  N   UNL     1      -3.614  43.804  15.147  0.00  0.00    +0.000 NA
ATOM     22  N   UNL     1      -6.251  45.145  10.783  0.00  0.00    +0.000 N 
ATOM     23  C   UNL     1      -7.275  44.741  13.068  0.00  0.00    +0.000 C 
ATOM     24  C   UNL     1      -6.945  43.234  13.482  0.00  0.00    +0.000 C 
ATOM     25  C   UNL     1      -6.100  45.234  12.157  0.00  0.00    +0.000 A 
ATOM     26  C   UNL     1      -5.500  42.931  13.911  0.00  0.00    +0.000 C 
ATOM     27  C   UNL     1      -5.196  41.453  14.146  0.00  0.00    +0.000 C 
ATOM     28  C   UNL     1      -5.059  43.662  15.171  0.00  0.00    +0.000 C 
ATOM     29  C   UNL     1      -4.790  45.696  12.375  0.00  0.00    +0.000 A 
ATOM     30  C   UNL     1      -3.705  41.229  14.541  0.00  0.00    +0.000 C 
ATOM     31  C   UNL     1      -2.948  42.483  15.140  0.00  0.00    +0.000 C 
ATOM     32  C   UNL     1      -4.004  45.918  13.658  0.00  0.00    +0.000 C 
ATOM     33  C   UNL     1      -3.116  44.708  14.077  0.00  0.00    +0.000 C 
ATOM     34  C   UNL     1      -4.202  45.923  11.075  0.00  0.00    +0.000 A 
ATOM     35  C   UNL     1      -5.138  45.572  10.114  0.00  0.00    +0.000 A 
ATOM     36  C   UNL     1      -2.940  46.383  10.635  0.00  0.00    +0.000 A 
ATOM     37  C   UNL     1      -4.895  45.660   8.738  0.00  0.00    +0.000 A 
ATOM     38  C   UNL     1      -2.676  46.481   9.264  0.00  0.00    +0.000 A 
ATOM     39  C   UNL     1      -3.642  46.124   8.330  0.00  0.00    +0.000 A 
ATOM     40  H   UNL     1      -7.090  44.823  10.318  0.00  0.00    +0.000 HD
BRANCH  23  42
ATOM     41  O   UNL     1      -6.903  46.700  14.584  0.00  0.00    +0.000 OA
ATOM     42  C   UNL     1      -7.450  45.631  14.343  0.00  0.00    +0.000 C 
BRANCH  42  43
ATOM     43  O   UNL     1      -8.365  45.056  15.194  0.00  0.00    +0.000 OA
ATOM     44  C   UNL     1      -9.200  45.996  15.868  0.00  0.00    +0.000 C 
ENDBRANCH  42  43
ENDBRANCH  23  42
BRANCH  30  45
ATOM     45  O   UNL     1      -3.733  40.212  15.574  0.00  0.00    +0.000 OA
ATOM     46  H   UNL     1      -4.396  39.549  15.311  0.00  0.00    +0.000 HD
ENDBRANCH  30  45
BRANCH  30  47
ATOM     47  C   UNL     1      -2.907  40.568  13.393  0.00  0.00    +0.000 C 
ATOM     48  C   UNL     1      -2.095  39.336  13.752  0.00  0.00    +0.000 C 
ENDBRANCH  30  47
ENDBRANCH  19  23
BRANCH   7  49
ATOM     49  O   UNL     1     -15.064  43.214  10.505  0.00  0.00    +0.000 OA
ATOM     50  H   UNL     1     -15.758  43.465   9.861  0.00  0.00    +0.000 HD
ENDBRANCH   7  49
BRANCH   7  52
ATOM     51  O   UNL     1     -13.168  43.771   7.487  0.00  0.00    +0.000 OA
ATOM     52  C   UNL     1     -14.048  43.545   8.306  0.00  0.00    +0.000 C 
BRANCH  52  53
ATOM     53  O   UNL     1     -15.384  43.745   8.059  0.00  0.00    +0.000 OA
ATOM     54  C   UNL     1     -15.666  44.934   7.319  0.00  0.00    +0.000 C 
ENDBRANCH  52  53
ENDBRANCH   7  52
BRANCH  20  55
ATOM     55  O   UNL     1      -8.624  47.214  12.556  0.00  0.00    +0.000 OA
ATOM     56  C   UNL     1      -8.440  48.279  11.628  0.00  0.00    +0.000 C 
ENDBRANCH  20  55
BRANCH   6  57
ATOM     57  C   UNL     1     -13.844  40.869  12.187  0.00  0.00    +0.000 C 
ATOM     58  C   UNL     1     -13.098  41.058  13.509  0.00  0.00    +0.000 C 
ENDBRANCH   6  57
BRANCH   9  59
ATOM     59  O   UNL     1     -13.133  40.900   8.443  0.00  0.00    +0.000 OA
BRANCH  59  61
ATOM     60  O   UNL     1     -15.052  40.357   7.315  0.00  0.00    +0.000 OA
ATOM     61  C   UNL     1     -13.891  40.125   7.620  0.00  0.00    +0.000 C 
ATOM     62  C   UNL     1     -13.086  38.968   7.115  0.00  0.00    +0.000 C 
ENDBRANCH  59  61
ENDBRANCH   9  59
TORSDOF 12
ENDMDL
MODEL 4
REMARK VINA RESULT:      -7.3      3.289      6.413
REMARK  Name = 
REMARK  19 active torsions:
REMARK  status: ('A' for Active; 'I' for Inactive)
REMARK    1  A    between atoms: O_1  and  C_20
REMARK    2  A    between atoms: O_1  and  C_36
REMARK    3  A    between atoms: O_2  and  C_18
REMARK    4  A    between atoms: O_3  and  C_28
REMARK    5  A    between atoms: O_3  and  C_42
REMARK    6  A    between atoms: O_5  and  C_34
REMARK    7  A    between atoms: O_5  and  C_50
REMARK    8  A    between atoms: O_7  and  C_40
REMARK    9  A    between atoms: O_7  and  C_56
REMARK   10  A    between atoms: O_9  and  C_46
REMARK   11  A    between atoms: N_11  and  C_30
REMARK   12  A    between atoms: C_17  and  C_23
REMARK   13  A    between atoms: C_18  and  C_28
REMARK   14  A    between atoms: C_23  and  C_32
REMARK   15  A    between atoms: C_33  and  C_35
REMARK   16  A    between atoms: C_35  and  C_40
REMARK   17  A    between atoms: C_36  and  C_41
REMARK   18  A    between atoms: C_46  and  C_53
REMARK   19  A    between atoms: C_53  and  C_57
REMARK                            x       y       z     vdW  Elec       q    Type
REMARK                         _______ _______ _______ _____ _____    ______ ____
ROOT
ATOM      1  N   UNL     1      -1.207  41.931  17.077  0.00  0.00    +0.000 NA
ATOM      2  N   UNL     1      -3.966  45.521  18.587  0.00  0.00    +0.000 N 
ATOM      3  C   UNL     1      -2.523  43.708  17.816  0.00  0.00    +0.000 C 
ATOM      4  C   UNL     1      -1.182  43.405  17.125  0.00  0.00    +0.000 C 
ATOM      5  C   UNL     1      -2.537  45.151  18.357  0.00  0.00    +0.000 C 
ATOM      6  C   UNL     1       0.075  44.094  17.831  0.00  0.00    +0.000 C 
ATOM      7  C   UNL     1      -1.510  45.467  19.457  0.00  0.00    +0.000 C 
ATOM      8  C   UNL     1      -2.758  42.521  18.771  0.00  0.00    +0.000 C 
ATOM      9  C   UNL     1      -0.228  44.581  19.316  0.00  0.00    +0.000 C 
ATOM     10  C   UNL     1      -3.771  43.829  16.963  0.00  0.00    +0.000 A 
ATOM     11  C   UNL     1      -1.768  41.445  18.332  0.00  0.00    +0.000 C 
ATOM     12  C   UNL     1      -4.582  44.843  17.490  0.00  0.00    +0.000 A 
ATOM     13  C   UNL     1       1.275  43.146  17.890  0.00  0.00    +0.000 C 
ATOM     14  C   UNL     1       0.058  41.311  16.712  0.00  0.00    +0.000 C 
ATOM     15  C   UNL     1       1.257  41.909  17.374  0.00  0.00    +0.000 C 
ATOM     16  C   UNL     1      -4.161  43.069  15.865  0.00  0.00    +0.000 A 
ATOM     17  C   UNL     1      -4.289  46.944  18.680  0.00  0.00    +0.000 C 
ATOM     18  C   UNL     1      -5.826  45.078  16.937  0.00  0.00    +0.000 A 
ATOM     19  C   UNL     1      -5.421  43.288  15.275  0.00  0.00    +0.000 A 
ATOM     20  C   UNL     1      -6.246  44.302  15.844  0.00  0.00    +0.000 A 
ENDROOT
BRANCH  19  23
ATOM     21  N   UNL     1      -7.925  40.187  10.952  0.00  0.00    +0.000 NA
ATOM     22  N   UNL     1      -5.635  44.589  12.733  0.00  0.00    +0.000 N 
ATOM     23  C   UNL     1      -5.927  42.436  14.043  0.00  0.00    +0.000 C 
ATOM     24  C   UNL     1      -7.494  42.144  14.142  0.00  0.00    +0.000 C 
ATOM     25  C   UNL     1      -5.689  43.205  12.699  0.00  0.00    +0.000 A 
ATOM     26  C   UNL     1      -8.190  41.638  12.868  0.00  0.00    +0.000 C 
ATOM     27  C   UNL     1      -9.710  41.523  12.967  0.00  0.00    +0.000 C 
ATOM     28  C   UNL     1      -7.692  40.285  12.382  0.00  0.00    +0.000 C 
ATOM     29  C   UNL     1      -5.597  42.846  11.342  0.00  0.00    +0.000 A 
ATOM     30  C   UNL     1     -10.339  41.041  11.626  0.00  0.00    +0.000 C 
ATOM     31  C   UNL     1      -9.369  40.270  10.640  0.00  0.00    +0.000 C 
ATOM     32  C   UNL     1      -5.679  41.493  10.654  0.00  0.00    +0.000 C 
ATOM     33  C   UNL     1      -7.105  41.125  10.142  0.00  0.00    +0.000 C 
ATOM     34  C   UNL     1      -5.435  44.071  10.593  0.00  0.00    +0.000 A 
ATOM     35  C   UNL     1      -5.462  45.128  11.489  0.00  0.00    +0.000 A 
ATOM     36  C   UNL     1      -5.284  44.369   9.220  0.00  0.00    +0.000 A 
ATOM     37  C   UNL     1      -5.339  46.468  11.100  0.00  0.00    +0.000 A 
ATOM     38  C   UNL     1      -5.158  45.701   8.808  0.00  0.00    +0.000 A 
ATOM     39  C   UNL     1      -5.185  46.735   9.738  0.00  0.00    +0.000 A 
ATOM     40  H   UNL     1      -5.695  45.144  13.577  0.00  0.00    +0.000 HD
BRANCH  23  42
ATOM     41  O   UNL     1      -5.418  40.078  14.718  0.00  0.00    +0.000 OA
ATOM     42  C   UNL     1      -5.117  41.099  14.112  0.00  0.00    +0.000 C 
BRANCH  42  43
ATOM     43  O   UNL     1      -3.980  41.201  13.345  0.00  0.00    +0.000 OA
ATOM     44  C   UNL     1      -2.912  40.359  13.779  0.00  0.00    +0.000 C 
ENDBRANCH  42  43
ENDBRANCH  23  42
BRANCH  30  45
ATOM     45  O   UNL     1     -11.387  40.115  12.007  0.00  0.00    +0.000 OA
ATOM     46  H   UNL     1     -11.149  39.749  12.877  0.00  0.00    +0.000 HD
ENDBRANCH  30  45
BRANCH  30  47
ATOM     47  C   UNL     1     -11.097  42.184  10.911  0.00  0.00    +0.000 C 
ATOM     48  C   UNL     1     -10.641  42.525   9.503  0.00  0.00    +0.000 C 
ENDBRANCH  30  47
ENDBRANCH  19  23
BRANCH   7  49
ATOM     49  O   UNL     1      -1.078  46.843  19.203  0.00  0.00    +0.000 OA
ATOM     50  H   UNL     1      -0.239  46.774  18.702  0.00  0.00    +0.000 HD
ENDBRANCH   7  49
BRANCH   7  52
ATOM     51  O   UNL     1      -2.930  44.579  21.289  0.00  0.00    +0.000 OA
ATOM     52  C   UNL     1      -2.124  45.401  20.877  0.00  0.00    +0.000 C 
BRANCH  52  53
ATOM     53  O   UNL     1      -1.563  46.376  21.667  0.00  0.00    +0.000 OA
ATOM     54  C   UNL     1      -1.514  46.040  23.055  0.00  0.00    +0.000 C 
ENDBRANCH  52  53
ENDBRANCH   7  52
BRANCH  20  55
ATOM     55  O   UNL     1      -7.456  44.539  15.241  0.00  0.00    +0.000 OA
ATOM     56  C   UNL     1      -7.922  45.883  15.325  0.00  0.00    +0.000 C 
ENDBRANCH  20  55
BRANCH   6  57
ATOM     57  C   UNL     1       0.542  45.336  16.985  0.00  0.00    +0.000 C 
ATOM     58  C   UNL     1       0.493  45.183  15.463  0.00  0.00    +0.000 C 
ENDBRANCH   6  57
BRANCH   9  59
ATOM     59  O   UNL     1      -0.277  43.415  20.173  0.00  0.00    +0.000 OA
BRANCH  59  61
ATOM     60  O   UNL     1       1.257  44.332  21.606  0.00  0.00    +0.000 OA
ATOM     61  C   UNL     1       0.568  43.391  21.239  0.00  0.00    +0.000 C 
ATOM     62  C   UNL     1       0.504  42.058  21.918  0.00  0.00    +0.000 C 
ENDBRANCH  59  61
ENDBRANCH   9  59
TORSDOF 12
ENDMDL
MODEL 5
REMARK VINA RESULT:      -7.3      2.073      2.656
REMARK  Name = 
REMARK  19 active torsions:
REMARK  status: ('A' for Active; 'I' for Inactive)
REMARK    1  A    between atoms: O_1  and  C_20
REMARK    2  A    between atoms: O_1  and  C_36
REMARK    3  A    between atoms: O_2  and  C_18
REMARK    4  A    between atoms: O_3  and  C_28
REMARK    5  A    between atoms: O_3  and  C_42
REMARK    6  A    between atoms: O_5  and  C_34
REMARK    7  A    between atoms: O_5  and  C_50
REMARK    8  A    between atoms: O_7  and  C_40
REMARK    9  A    between atoms: O_7  and  C_56
REMARK   10  A    between atoms: O_9  and  C_46
REMARK   11  A    between atoms: N_11  and  C_30
REMARK   12  A    between atoms: C_17  and  C_23
REMARK   13  A    between atoms: C_18  and  C_28
REMARK   14  A    between atoms: C_23  and  C_32
REMARK   15  A    between atoms: C_33  and  C_35
REMARK   16  A    between atoms: C_35  and  C_40
REMARK   17  A    between atoms: C_36  and  C_41
REMARK   18  A    between atoms: C_46  and  C_53
REMARK   19  A    between atoms: C_53  and  C_57
REMARK                            x       y       z     vdW  Elec       q    Type
REMARK                         _______ _______ _______ _____ _____    ______ ____
ROOT
ATOM      1  N   UNL     1      -3.812  44.823  16.962  0.00  0.00    +0.000 NA
ATOM      2  N   UNL     1      -2.751  41.052  14.235  0.00  0.00    +0.000 N 
ATOM      3  C   UNL     1      -3.285  42.961  15.662  0.00  0.00    +0.000 C 
ATOM      4  C   UNL     1      -3.697  43.358  17.090  0.00  0.00    +0.000 C 
ATOM      5  C   UNL     1      -2.697  41.536  15.647  0.00  0.00    +0.000 C 
ATOM      6  C   UNL     1      -2.717  42.797  18.222  0.00  0.00    +0.000 C 
ATOM      7  C   UNL     1      -1.396  41.338  16.443  0.00  0.00    +0.000 C 
ATOM      8  C   UNL     1      -2.452  44.148  15.141  0.00  0.00    +0.000 C 
ATOM      9  C   UNL     1      -1.307  42.326  17.652  0.00  0.00    +0.000 C 
ATOM     10  C   UNL     1      -4.372  42.712  14.634  0.00  0.00    +0.000 A 
ATOM     11  C   UNL     1      -2.723  45.293  16.114  0.00  0.00    +0.000 C 
ATOM     12  C   UNL     1      -3.980  41.646  13.812  0.00  0.00    +0.000 A 
ATOM     13  C   UNL     1      -2.452  43.845  19.305  0.00  0.00    +0.000 C 
ATOM     14  C   UNL     1      -3.935  45.538  18.223  0.00  0.00    +0.000 C 
ATOM     15  C   UNL     1      -3.015  45.062  19.299  0.00  0.00    +0.000 C 
ATOM     16  C   UNL     1      -5.558  43.407  14.425  0.00  0.00    +0.000 A 
ATOM     17  C   UNL     1      -2.665  39.610  14.011  0.00  0.00    +0.000 C 
ATOM     18  C   UNL     1      -4.767  41.292  12.733  0.00  0.00    +0.000 A 
ATOM     19  C   UNL     1      -6.386  43.066  13.337  0.00  0.00    +0.000 A 
ATOM     20  C   UNL     1      -5.956  42.001  12.492  0.00  0.00    +0.000 A 
ENDROOT
BRANCH  19  23
ATOM     21  N   UNL     1     -11.461  45.531  11.681  0.00  0.00    +0.000 NA
ATOM     22  N   UNL     1      -8.684  42.443  14.928  0.00  0.00    +0.000 N 
ATOM     23  C   UNL     1      -7.732  43.839  13.036  0.00  0.00    +0.000 C 
ATOM     24  C   UNL     1      -8.404  43.330  11.679  0.00  0.00    +0.000 C 
ATOM     25  C   UNL     1      -8.776  43.605  14.180  0.00  0.00    +0.000 A 
ATOM     26  C   UNL     1      -9.869  43.729  11.436  0.00  0.00    +0.000 C 
ATOM     27  C   UNL     1     -10.513  43.090  10.207  0.00  0.00    +0.000 C 
ATOM     28  C   UNL     1     -10.092  45.228  11.303  0.00  0.00    +0.000 C 
ATOM     29  C   UNL     1      -9.932  44.267  14.632  0.00  0.00    +0.000 A 
ATOM     30  C   UNL     1     -12.004  43.515  10.053  0.00  0.00    +0.000 C 
ATOM     31  C   UNL     1     -12.424  44.855  10.785  0.00  0.00    +0.000 C 
ATOM     32  C   UNL     1     -10.611  45.541  14.154  0.00  0.00    +0.000 C 
ATOM     33  C   UNL     1     -11.753  45.304  13.121  0.00  0.00    +0.000 C 
ATOM     34  C   UNL     1     -10.479  43.472  15.707  0.00  0.00    +0.000 A 
ATOM     35  C   UNL     1      -9.678  42.351  15.862  0.00  0.00    +0.000 A 
ATOM     36  C   UNL     1     -11.603  43.606  16.553  0.00  0.00    +0.000 A 
ATOM     37  C   UNL     1      -9.924  41.357  16.817  0.00  0.00    +0.000 A 
ATOM     38  C   UNL     1     -11.869  42.625  17.515  0.00  0.00    +0.000 A 
ATOM     39  C   UNL     1     -11.039  41.516  17.644  0.00  0.00    +0.000 A 
ATOM     40  H   UNL     1      -7.957  41.747  14.818  0.00  0.00    +0.000 HD
BRANCH  23  42
ATOM     41  O   UNL     1      -7.406  46.213  13.766  0.00  0.00    +0.000 OA
ATOM     42  C   UNL     1      -7.319  45.343  12.909  0.00  0.00    +0.000 C 
BRANCH  42  43
ATOM     43  O   UNL     1      -6.788  45.579  11.662  0.00  0.00    +0.000 OA
ATOM     44  C   UNL     1      -5.592  46.357  11.680  0.00  0.00    +0.000 C 
ENDBRANCH  42  43
ENDBRANCH  23  42
BRANCH  30  45
ATOM     45  O   UNL     1     -12.197  43.725   8.632  0.00  0.00    +0.000 OA
ATOM     46  H   UNL     1     -12.903  43.120   8.342  0.00  0.00    +0.000 HD
ENDBRANCH  30  45
BRANCH  30  47
ATOM     47  C   UNL     1     -12.964  42.350  10.389  0.00  0.00    +0.000 C 
ATOM     48  C   UNL     1     -13.134  42.013  11.860  0.00  0.00    +0.000 C 
ENDBRANCH  30  47
ENDBRANCH  19  23
BRANCH   7  49
ATOM     49  O   UNL     1      -1.495  39.997  17.024  0.00  0.00    +0.000 OA
ATOM     50  H   UNL     1      -1.843  39.420  16.312  0.00  0.00    +0.000 HD
ENDBRANCH   7  49
BRANCH   7  52
ATOM     51  O   UNL     1       0.138  42.248  14.716  0.00  0.00    +0.000 OA
ATOM     52  C   UNL     1      -0.137  41.388  15.542  0.00  0.00    +0.000 C 
BRANCH  52  53
ATOM     53  O   UNL     1       0.699  40.345  15.859  0.00  0.00    +0.000 OA
ATOM     54  C   UNL     1       2.041  40.744  16.145  0.00  0.00    +0.000 C 
ENDBRANCH  52  53
ENDBRANCH   7  52
BRANCH  20  55
ATOM     55  O   UNL     1      -6.785  41.646  11.458  0.00  0.00    +0.000 OA
ATOM     56  C   UNL     1      -6.202  40.791  10.479  0.00  0.00    +0.000 C 
ENDBRANCH  20  55
BRANCH   6  57
ATOM     57  C   UNL     1      -3.394  41.578  18.950  0.00  0.00    +0.000 C 
ATOM     58  C   UNL     1      -4.884  41.715  19.270  0.00  0.00    +0.000 C 
ENDBRANCH   6  57
BRANCH   9  59
ATOM     59  O   UNL     1      -0.530  43.505  17.335  0.00  0.00    +0.000 OA
BRANCH  59  61
ATOM     60  O   UNL     1       1.549  44.432  17.597  0.00  0.00    +0.000 OA
ATOM     61  C   UNL     1       0.693  43.621  17.920  0.00  0.00    +0.000 C 
ATOM     62  C   UNL     1       0.825  42.634  19.038  0.00  0.00    +0.000 C 
ENDBRANCH  59  61
ENDBRANCH   9  59
TORSDOF 12
ENDMDL
MODEL 6
REMARK VINA RESULT:      -7.1      2.461      4.061
REMARK  Name = 
REMARK  19 active torsions:
REMARK  status: ('A' for Active; 'I' for Inactive)
REMARK    1  A    between atoms: O_1  and  C_20
REMARK    2  A    between atoms: O_1  and  C_36
REMARK    3  A    between atoms: O_2  and  C_18
REMARK    4  A    between atoms: O_3  and  C_28
REMARK    5  A    between atoms: O_3  and  C_42
REMARK    6  A    between atoms: O_5  and  C_34
REMARK    7  A    between atoms: O_5  and  C_50
REMARK    8  A    between atoms: O_7  and  C_40
REMARK    9  A    between atoms: O_7  and  C_56
REMARK   10  A    between atoms: O_9  and  C_46
REMARK   11  A    between atoms: N_11  and  C_30
REMARK   12  A    between atoms: C_17  and  C_23
REMARK   13  A    between atoms: C_18  and  C_28
REMARK   14  A    between atoms: C_23  and  C_32
REMARK   15  A    between atoms: C_33  and  C_35
REMARK   16  A    between atoms: C_35  and  C_40
REMARK   17  A    between atoms: C_36  and  C_41
REMARK   18  A    between atoms: C_46  and  C_53
REMARK   19  A    between atoms: C_53  and  C_57
REMARK                            x       y       z     vdW  Elec       q    Type
REMARK                         _______ _______ _______ _____ _____    ______ ____
ROOT
ATOM      1  N   UNL     1      -3.540  44.147  14.762  0.00  0.00    +0.000 NA
ATOM      2  N   UNL     1      -5.853  41.882  18.269  0.00  0.00    +0.000 N 
ATOM      3  C   UNL     1      -4.663  43.071  16.499  0.00  0.00    +0.000 C 
ATOM      4  C   UNL     1      -4.233  44.470  16.023  0.00  0.00    +0.000 C 
ATOM      5  C   UNL     1      -5.033  43.100  17.995  0.00  0.00    +0.000 C 
ATOM      6  C   UNL     1      -3.414  45.297  17.118  0.00  0.00    +0.000 C 
ATOM      7  C   UNL     1      -3.891  43.451  18.963  0.00  0.00    +0.000 C 
ATOM      8  C   UNL     1      -3.561  42.120  15.992  0.00  0.00    +0.000 C 
ATOM      9  C   UNL     1      -2.834  44.386  18.288  0.00  0.00    +0.000 C 
ATOM     10  C   UNL     1      -5.981  42.508  16.004  0.00  0.00    +0.000 A 
ATOM     11  C   UNL     1      -2.769  42.927  14.966  0.00  0.00    +0.000 C 
ATOM     12  C   UNL     1      -6.585  41.789  17.045  0.00  0.00    +0.000 A 
ATOM     13  C   UNL     1      -2.238  46.048  16.490  0.00  0.00    +0.000 C 
ATOM     14  C   UNL     1      -2.776  45.244  14.188  0.00  0.00    +0.000 C 
ATOM     15  C   UNL     1      -1.973  46.026  15.176  0.00  0.00    +0.000 C 
ATOM     16  C   UNL     1      -6.548  42.584  14.736  0.00  0.00    +0.000 A 
ATOM     17  C   UNL     1      -6.681  41.882  19.474  0.00  0.00    +0.000 C 
ATOM     18  C   UNL     1      -7.758  41.099  16.807  0.00  0.00    +0.000 A 
ATOM     19  C   UNL     1      -7.747  41.896  14.463  0.00  0.00    +0.000 A 
ATOM     20  C   UNL     1      -8.330  41.144  15.525  0.00  0.00    +0.000 A 
ENDROOT
BRANCH  19  23
ATOM     21  N   UNL     1     -10.464  41.375   9.275  0.00  0.00    +0.000 NA
ATOM     22  N   UNL     1     -10.200  43.340  14.159  0.00  0.00    +0.000 N 
ATOM     23  C   UNL     1      -8.421  41.926  13.033  0.00  0.00    +0.000 C 
ATOM     24  C   UNL     1      -9.084  40.518  12.674  0.00  0.00    +0.000 C 
ATOM     25  C   UNL     1      -9.563  42.997  12.979  0.00  0.00    +0.000 A 
ATOM     26  C   UNL     1     -10.065  40.493  11.490  0.00  0.00    +0.000 C 
ATOM     27  C   UNL     1     -10.790  39.164  11.284  0.00  0.00    +0.000 C 
ATOM     28  C   UNL     1      -9.434  40.846  10.151  0.00  0.00    +0.000 C 
ATOM     29  C   UNL     1     -10.232  43.696  11.958  0.00  0.00    +0.000 A 
ATOM     30  C   UNL     1     -11.790  39.234  10.091  0.00  0.00    +0.000 C 
ATOM     31  C   UNL     1     -11.518  40.369   9.020  0.00  0.00    +0.000 C 
ATOM     32  C   UNL     1     -10.059  43.677  10.448  0.00  0.00    +0.000 C 
ATOM     33  C   UNL     1     -11.011  42.686   9.711  0.00  0.00    +0.000 C 
ATOM     34  C   UNL     1     -11.249  44.500  12.596  0.00  0.00    +0.000 A 
ATOM     35  C   UNL     1     -11.198  44.253  13.960  0.00  0.00    +0.000 A 
ATOM     36  C   UNL     1     -12.224  45.406  12.123  0.00  0.00    +0.000 A 
ATOM     37  C   UNL     1     -12.055  44.864  14.884  0.00  0.00    +0.000 A 
ATOM     38  C   UNL     1     -13.091  46.029  13.028  0.00  0.00    +0.000 A 
ATOM     39  C   UNL     1     -13.006  45.760  14.390  0.00  0.00    +0.000 A 
ATOM     40  H   UNL     1      -9.951  42.979  15.071  0.00  0.00    +0.000 HD
BRANCH  23  42
ATOM     41  O   UNL     1      -6.975  43.338  11.553  0.00  0.00    +0.000 OA
ATOM     42  C   UNL     1      -7.256  42.250  12.040  0.00  0.00    +0.000 C 
BRANCH  42  43
ATOM     43  O   UNL     1      -6.526  41.112  11.788  0.00  0.00    +0.000 OA
ATOM     44  C   UNL     1      -5.862  41.118  10.525  0.00  0.00    +0.000 C 
ENDBRANCH  42  43
ENDBRANCH  23  42
BRANCH  30  45
ATOM     45  O   UNL     1     -11.660  37.961   9.409  0.00  0.00    +0.000 OA
ATOM     46  H   UNL     1     -10.766  37.927   9.027  0.00  0.00    +0.000 HD
ENDBRANCH  30  45
BRANCH  30  47
ATOM     47  C   UNL     1     -13.257  39.244  10.580  0.00  0.00    +0.000 C 
ATOM     48  C   UNL     1     -14.161  40.316   9.996  0.00  0.00    +0.000 C 
ENDBRANCH  30  47
ENDBRANCH  19  23
BRANCH   7  49
ATOM     49  O   UNL     1      -4.511  44.244  20.026  0.00  0.00    +0.000 OA
ATOM     50  H   UNL     1      -4.551  43.658  20.810  0.00  0.00    +0.000 HD
ENDBRANCH   7  49
BRANCH   7  52
ATOM     51  O   UNL     1      -3.037  41.121  19.054  0.00  0.00    +0.000 OA
ATOM     52  C   UNL     1      -3.249  42.194  19.602  0.00  0.00    +0.000 C 
BRANCH  52  53
ATOM     53  O   UNL     1      -2.861  42.478  20.889  0.00  0.00    +0.000 OA
ATOM     54  C   UNL     1      -1.577  41.958  21.236  0.00  0.00    +0.000 C 
ENDBRANCH  52  53
ENDBRANCH   7  52
BRANCH  20  55
ATOM     55  O   UNL     1      -9.518  40.509  15.266  0.00  0.00    +0.000 OA
ATOM     56  C   UNL     1     -10.435  40.470  16.356  0.00  0.00    +0.000 C 
ENDBRANCH  20  55
BRANCH   6  57
ATOM     57  C   UNL     1      -4.342  46.396  17.755  0.00  0.00    +0.000 C 
ATOM     58  C   UNL     1      -5.653  46.690  17.023  0.00  0.00    +0.000 C 
ENDBRANCH   6  57
BRANCH   9  59
ATOM     59  O   UNL     1      -1.705  43.645  17.767  0.00  0.00    +0.000 OA
BRANCH  59  61
ATOM     60  O   UNL     1      -0.266  44.538  19.310  0.00  0.00    +0.000 OA
ATOM     61  C   UNL     1      -0.475  43.964  18.250  0.00  0.00    +0.000 C 
ATOM     62  C   UNL     1       0.589  43.480  17.314  0.00  0.00    +0.000 C 
ENDBRANCH  59  61
ENDBRANCH   9  59
TORSDOF 12
ENDMDL
MODEL 7
REMARK VINA RESULT:      -7.1      2.035      9.338
REMARK  Name = 
REMARK  19 active torsions:
REMARK  status: ('A' for Active; 'I' for Inactive)
REMARK    1  A    between atoms: O_1  and  C_20
REMARK    2  A    between atoms: O_1  and  C_36
REMARK    3  A    between atoms: O_2  and  C_18
REMARK    4  A    between atoms: O_3  and  C_28
REMARK    5  A    between atoms: O_3  and  C_42
REMARK    6  A    between atoms: O_5  and  C_34
REMARK    7  A    between atoms: O_5  and  C_50
REMARK    8  A    between atoms: O_7  and  C_40
REMARK    9  A    between atoms: O_7  and  C_56
REMARK   10  A    between atoms: O_9  and  C_46
REMARK   11  A    between atoms: N_11  and  C_30
REMARK   12  A    between atoms: C_17  and  C_23
REMARK   13  A    between atoms: C_18  and  C_28
REMARK   14  A    between atoms: C_23  and  C_32
REMARK   15  A    between atoms: C_33  and  C_35
REMARK   16  A    between atoms: C_35  and  C_40
REMARK   17  A    between atoms: C_36  and  C_41
REMARK   18  A    between atoms: C_46  and  C_53
REMARK   19  A    between atoms: C_53  and  C_57
REMARK                            x       y       z     vdW  Elec       q    Type
REMARK                         _______ _______ _______ _____ _____    ______ ____
ROOT
ATOM      1  N   UNL     1      -9.292  41.570  15.813  0.00  0.00    +0.000 NA
ATOM      2  N   UNL     1      -6.792  41.459  11.749  0.00  0.00    +0.000 N 
ATOM      3  C   UNL     1      -8.096  41.540  13.812  0.00  0.00    +0.000 C 
ATOM      4  C   UNL     1      -9.104  42.393  14.603  0.00  0.00    +0.000 C 
ATOM      5  C   UNL     1      -8.065  41.977  12.333  0.00  0.00    +0.000 C 
ATOM      6  C   UNL     1     -10.412  42.780  13.771  0.00  0.00    +0.000 C 
ATOM      7  C   UNL     1      -9.371  41.777  11.546  0.00  0.00    +0.000 C 
ATOM      8  C   UNL     1      -8.429  40.082  14.181  0.00  0.00    +0.000 C 
ATOM      9  C   UNL     1     -10.624  41.875  12.478  0.00  0.00    +0.000 C 
ATOM     10  C   UNL     1      -6.616  41.728  14.080  0.00  0.00    +0.000 A 
ATOM     11  C   UNL     1      -9.331  40.170  15.410  0.00  0.00    +0.000 C 
ATOM     12  C   UNL     1      -5.919  41.612  12.870  0.00  0.00    +0.000 A 
ATOM     13  C   UNL     1     -11.676  42.668  14.626  0.00  0.00    +0.000 C 
ATOM     14  C   UNL     1     -10.403  41.976  16.660  0.00  0.00    +0.000 C 
ATOM     15  C   UNL     1     -11.655  42.320  15.921  0.00  0.00    +0.000 C 
ATOM     16  C   UNL     1      -5.961  41.924  15.292  0.00  0.00    +0.000 A 
ATOM     17  C   UNL     1      -6.313  42.082  10.516  0.00  0.00    +0.000 C 
ATOM     18  C   UNL     1      -4.538  41.651  12.871  0.00  0.00    +0.000 A 
ATOM     19  C   UNL     1      -4.554  41.974  15.327  0.00  0.00    +0.000 A 
ATOM     20  C   UNL     1      -3.860  41.822  14.090  0.00  0.00    +0.000 A 
ENDROOT
BRANCH  19  23
ATOM     21  N   UNL     1      -1.367  43.279  20.092  0.00  0.00    +0.000 NA
ATOM     22  N   UNL     1      -6.012  42.813  17.643  0.00  0.00    +0.000 N 
ATOM     23  C   UNL     1      -3.757  42.167  16.678  0.00  0.00    +0.000 C 
ATOM     24  C   UNL     1      -2.857  43.486  16.638  0.00  0.00    +0.000 C 
ATOM     25  C   UNL     1      -4.741  42.321  17.888  0.00  0.00    +0.000 A 
ATOM     26  C   UNL     1      -2.304  43.992  17.981  0.00  0.00    +0.000 C 
ATOM     27  C   UNL     1      -1.584  45.338  17.914  0.00  0.00    +0.000 C 
ATOM     28  C   UNL     1      -1.344  43.028  18.662  0.00  0.00    +0.000 C 
ATOM     29  C   UNL     1      -4.645  42.165  19.282  0.00  0.00    +0.000 A 
ATOM     30  C   UNL     1      -1.089  45.795  19.318  0.00  0.00    +0.000 C 
ATOM     31  C   UNL     1      -0.914  44.653  20.401  0.00  0.00    +0.000 C 
ATOM     32  C   UNL     1      -3.483  41.744  20.168  0.00  0.00    +0.000 C 
ATOM     33  C   UNL     1      -2.658  42.935  20.743  0.00  0.00    +0.000 C 
ATOM     34  C   UNL     1      -5.927  42.536  19.836  0.00  0.00    +0.000 A 
ATOM     35  C   UNL     1      -6.747  42.930  18.790  0.00  0.00    +0.000 A 
ATOM     36  C   UNL     1      -6.453  42.586  21.146  0.00  0.00    +0.000 A 
ATOM     37  C   UNL     1      -8.067  43.363  18.970  0.00  0.00    +0.000 A 
ATOM     38  C   UNL     1      -7.769  43.015  21.351  0.00  0.00    +0.000 A 
ATOM     39  C   UNL     1      -8.564  43.397  20.275  0.00  0.00    +0.000 A 
ATOM     40  H   UNL     1      -6.371  43.042  16.726  0.00  0.00    +0.000 HD
BRANCH  23  42
ATOM     41  O   UNL     1      -1.662  40.853  17.079  0.00  0.00    +0.000 OA
ATOM     42  C   UNL     1      -2.855  40.895  16.805  0.00  0.00    +0.000 C 
BRANCH  42  43
ATOM     43  O   UNL     1      -3.608  39.764  16.590  0.00  0.00    +0.000 OA
ATOM     44  C   UNL     1      -2.856  38.651  16.110  0.00  0.00    +0.000 C 
ENDBRANCH  42  43
ENDBRANCH  23  42
BRANCH  30  45
ATOM     45  O   UNL     1       0.221  46.374  19.092  0.00  0.00    +0.000 OA
ATOM     46  H   UNL     1       0.473  46.172  18.173  0.00  0.00    +0.000 HD
ENDBRANCH  30  45
BRANCH  30  47
ATOM     47  C   UNL     1      -1.927  46.977  19.858  0.00  0.00    +0.000 C 
ATOM     48  C   UNL     1      -2.904  47.617  18.887  0.00  0.00    +0.000 C 
ENDBRANCH  30  47
ENDBRANCH  19  23
BRANCH   7  49
ATOM     49  O   UNL     1      -9.456  42.920  10.634  0.00  0.00    +0.000 OA
ATOM     50  H   UNL     1     -10.182  42.713  10.010  0.00  0.00    +0.000 HD
ENDBRANCH   7  49
BRANCH   7  52
ATOM     51  O   UNL     1      -9.163  39.341  11.109  0.00  0.00    +0.000 OA
ATOM     52  C   UNL     1      -9.360  40.478  10.702  0.00  0.00    +0.000 C 
BRANCH  52  53
ATOM     53  O   UNL     1      -9.692  40.771   9.401  0.00  0.00    +0.000 OA
ATOM     54  C   UNL     1     -11.054  40.490   9.072  0.00  0.00    +0.000 C 
ENDBRANCH  52  53
ENDBRANCH   7  52
BRANCH  20  55
ATOM     55  O   UNL     1      -2.492  41.912  14.122  0.00  0.00    +0.000 OA
ATOM     56  C   UNL     1      -1.797  40.824  13.519  0.00  0.00    +0.000 C 
ENDBRANCH  20  55
BRANCH   6  57
ATOM     57  C   UNL     1     -10.325  44.284  13.318  0.00  0.00    +0.000 C 
ATOM     58  C   UNL     1      -9.234  45.133  13.975  0.00  0.00    +0.000 C 
ENDBRANCH   6  57
BRANCH   9  59
ATOM     59  O   UNL     1     -11.085  40.572  12.908  0.00  0.00    +0.000 OA
BRANCH  59  61
ATOM     60  O   UNL     1     -13.045  40.670  11.725  0.00  0.00    +0.000 OA
ATOM     61  C   UNL     1     -12.390  40.267  12.676  0.00  0.00    +0.000 C 
ATOM     62  C   UNL     1     -12.899  39.338  13.734  0.00  0.00    +0.000 C 
ENDBRANCH  59  61
ENDBRANCH   9  59
TORSDOF 12
ENDMDL
MODEL 8
REMARK VINA RESULT:      -7.0     17.821     23.518
REMARK  Name = 
REMARK  19 active torsions:
REMARK  status: ('A' for Active; 'I' for Inactive)
REMARK    1  A    between atoms: O_1  and  C_20
REMARK    2  A    between atoms: O_1  and  C_36
REMARK    3  A    between atoms: O_2  and  C_18
REMARK    4  A    between atoms: O_3  and  C_28
REMARK    5  A    between atoms: O_3  and  C_42
REMARK    6  A    between atoms: O_5  and  C_34
REMARK    7  A    between atoms: O_5  and  C_50
REMARK    8  A    between atoms: O_7  and  C_40
REMARK    9  A    between atoms: O_7  and  C_56
REMARK   10  A    between atoms: O_9  and  C_46
REMARK   11  A    between atoms: N_11  and  C_30
REMARK   12  A    between atoms: C_17  and  C_23
REMARK   13  A    between atoms: C_18  and  C_28
REMARK   14  A    between atoms: C_23  and  C_32
REMARK   15  A    between atoms: C_33  and  C_35
REMARK   16  A    between atoms: C_35  and  C_40
REMARK   17  A    between atoms: C_36  and  C_41
REMARK   18  A    between atoms: C_46  and  C_53
REMARK   19  A    between atoms: C_53  and  C_57
REMARK                            x       y       z     vdW  Elec       q    Type
REMARK                         _______ _______ _______ _____ _____    ______ ____
ROOT
ATOM      1  N   UNL     1      11.281  34.661  16.058  0.00  0.00    +0.000 NA
ATOM      2  N   UNL     1      10.424  32.776  20.358  0.00  0.00    +0.000 N 
ATOM      3  C   UNL     1      10.829  33.761  18.161  0.00  0.00    +0.000 C 
ATOM      4  C   UNL     1      10.137  34.427  16.959  0.00  0.00    +0.000 C 
ATOM      5  C   UNL     1       9.916  33.804  19.402  0.00  0.00    +0.000 C 
ATOM      6  C   UNL     1       9.244  35.692  17.352  0.00  0.00    +0.000 C 
ATOM      7  C   UNL     1       9.577  35.205  19.938  0.00  0.00    +0.000 C 
ATOM      8  C   UNL     1      12.235  34.391  18.212  0.00  0.00    +0.000 C 
ATOM      9  C   UNL     1       9.580  36.273  18.796  0.00  0.00    +0.000 C 
ATOM     10  C   UNL     1      11.029  32.258  18.144  0.00  0.00    +0.000 A 
ATOM     11  C   UNL     1      12.417  35.089  16.866  0.00  0.00    +0.000 C 
ATOM     12  C   UNL     1      10.841  31.763  19.441  0.00  0.00    +0.000 A 
ATOM     13  C   UNL     1       9.410  36.832  16.344  0.00  0.00    +0.000 C 
ATOM     14  C   UNL     1      10.998  35.528  14.924  0.00  0.00    +0.000 C 
ATOM     15  C   UNL     1      10.188  36.739  15.256  0.00  0.00    +0.000 C 
ATOM     16  C   UNL     1      11.399  31.433  17.086  0.00  0.00    +0.000 A 
ATOM     17  C   UNL     1       9.510  32.313  21.401  0.00  0.00    +0.000 C 
ATOM     18  C   UNL     1      11.065  30.424  19.700  0.00  0.00    +0.000 A 
ATOM     19  C   UNL     1      11.629  30.062  17.316  0.00  0.00    +0.000 A 
ATOM     20  C   UNL     1      11.464  29.582  18.648  0.00  0.00    +0.000 A 
ENDROOT
BRANCH  19  23
ATOM     21  N   UNL     1      13.406  26.979  12.635  0.00  0.00    +0.000 NA
ATOM     22  N   UNL     1      14.219  28.854  17.494  0.00  0.00    +0.000 N 
ATOM     23  C   UNL     1      12.076  29.084  16.157  0.00  0.00    +0.000 C 
ATOM     24  C   UNL     1      12.428  29.887  14.822  0.00  0.00    +0.000 C 
ATOM     25  C   UNL     1      13.362  28.288  16.565  0.00  0.00    +0.000 A 
ATOM     26  C   UNL     1      13.200  29.123  13.734  0.00  0.00    +0.000 C 
ATOM     27  C   UNL     1      13.649  29.974  12.547  0.00  0.00    +0.000 C 
ATOM     28  C   UNL     1      12.445  27.939  13.148  0.00  0.00    +0.000 C 
ATOM     29  C   UNL     1      13.980  27.097  16.142  0.00  0.00    +0.000 A 
ATOM     30  C   UNL     1      14.455  29.134  11.511  0.00  0.00    +0.000 C 
ATOM     31  C   UNL     1      14.223  27.569  11.551  0.00  0.00    +0.000 C 
ATOM     32  C   UNL     1      13.580  26.080  15.084  0.00  0.00    +0.000 C 
ATOM     33  C   UNL     1      14.228  26.328  13.688  0.00  0.00    +0.000 C 
ATOM     34  C   UNL     1      15.203  26.966  16.899  0.00  0.00    +0.000 A 
ATOM     35  C   UNL     1      15.316  28.073  17.727  0.00  0.00    +0.000 A 
ATOM     36  C   UNL     1      16.236  26.002  16.936  0.00  0.00    +0.000 A 
ATOM     37  C   UNL     1      16.394  28.273  18.598  0.00  0.00    +0.000 A 
ATOM     38  C   UNL     1      17.323  26.181  17.800  0.00  0.00    +0.000 A 
ATOM     39  C   UNL     1      17.398  27.302  18.619  0.00  0.00    +0.000 A 
ATOM     40  H   UNL     1      14.052  29.733  17.967  0.00  0.00    +0.000 HD
BRANCH  23  42
ATOM     41  O   UNL     1      10.708  26.991  16.309  0.00  0.00    +0.000 OA
ATOM     42  C   UNL     1      10.847  28.144  15.921  0.00  0.00    +0.000 C 
BRANCH  42  43
ATOM     43  O   UNL     1       9.876  28.812  15.213  0.00  0.00    +0.000 OA
ATOM     44  C   UNL     1       8.878  27.960  14.652  0.00  0.00    +0.000 C 
ENDBRANCH  42  43
ENDBRANCH  23  42
BRANCH  30  45
ATOM     45  O   UNL     1      14.010  29.600  10.212  0.00  0.00    +0.000 OA
ATOM     46  H   UNL     1      13.815  28.814   9.673  0.00  0.00    +0.000 HD
ENDBRANCH  30  45
BRANCH  30  47
ATOM     47  C   UNL     1      15.959  29.494  11.536  0.00  0.00    +0.000 C 
ATOM     48  C   UNL     1      16.728  29.112  12.790  0.00  0.00    +0.000 C 
ENDBRANCH  30  47
ENDBRANCH  19  23
BRANCH   7  49
ATOM     49  O   UNL     1       8.193  35.119  20.408  0.00  0.00    +0.000 OA
ATOM     50  H   UNL     1       8.242  34.819  21.339  0.00  0.00    +0.000 HD
ENDBRANCH   7  49
BRANCH   7  52
ATOM     51  O   UNL     1      11.662  35.904  21.093  0.00  0.00    +0.000 OA
ATOM     52  C   UNL     1      10.474  35.613  21.134  0.00  0.00    +0.000 C 
BRANCH  52  53
ATOM     53  O   UNL     1       9.714  35.685  22.276  0.00  0.00    +0.000 OA
ATOM     54  C   UNL     1      10.418  35.319  23.465  0.00  0.00    +0.000 C 
ENDBRANCH  52  53
ENDBRANCH   7  52
BRANCH  20  55
ATOM     55  O   UNL     1      11.650  28.239  18.859  0.00  0.00    +0.000 OA
ATOM     56  C   UNL     1      12.049  27.881  20.179  0.00  0.00    +0.000 C 
ENDBRANCH  20  55
BRANCH   6  57
ATOM     57  C   UNL     1       7.721  35.298  17.315  0.00  0.00    +0.000 C 
ATOM     58  C   UNL     1       7.374  33.983  16.613  0.00  0.00    +0.000 C 
ENDBRANCH   6  57
BRANCH   9  59
ATOM     59  O   UNL     1      10.839  36.982  18.716  0.00  0.00    +0.000 OA
BRANCH  59  61
ATOM     60  O   UNL     1       9.885  39.020  19.148  0.00  0.00    +0.000 OA
ATOM     61  C   UNL     1      10.787  38.341  18.678  0.00  0.00    +0.000 C 
ATOM     62  C   UNL     1      12.011  38.886  18.010  0.00  0.00    +0.000 C 
ENDBRANCH  59  61
ENDBRANCH   9  59
TORSDOF 12
ENDMDL
MODEL 9
REMARK VINA RESULT:      -6.9     18.929     22.746
REMARK  Name = 
REMARK  19 active torsions:
REMARK  status: ('A' for Active; 'I' for Inactive)
REMARK    1  A    between atoms: O_1  and  C_20
REMARK    2  A    between atoms: O_1  and  C_36
REMARK    3  A    between atoms: O_2  and  C_18
REMARK    4  A    between atoms: O_3  and  C_28
REMARK    5  A    between atoms: O_3  and  C_42
REMARK    6  A    between atoms: O_5  and  C_34
REMARK    7  A    between atoms: O_5  and  C_50
REMARK    8  A    between atoms: O_7  and  C_40
REMARK    9  A    between atoms: O_7  and  C_56
REMARK   10  A    between atoms: O_9  and  C_46
REMARK   11  A    between atoms: N_11  and  C_30
REMARK   12  A    between atoms: C_17  and  C_23
REMARK   13  A    between atoms: C_18  and  C_28
REMARK   14  A    between atoms: C_23  and  C_32
REMARK   15  A    between atoms: C_33  and  C_35
REMARK   16  A    between atoms: C_35  and  C_40
REMARK   17  A    between atoms: C_36  and  C_41
REMARK   18  A    between atoms: C_46  and  C_53
REMARK   19  A    between atoms: C_53  and  C_57
REMARK                            x       y       z     vdW  Elec       q    Type
REMARK                         _______ _______ _______ _____ _____    ______ ____
ROOT
ATOM      1  N   UNL     1      13.684  31.156  18.534  0.00  0.00    +0.000 NA
ATOM      2  N   UNL     1      10.101  31.920  15.476  0.00  0.00    +0.000 N 
ATOM      3  C   UNL     1      11.910  31.508  17.062  0.00  0.00    +0.000 C 
ATOM      4  C   UNL     1      12.210  31.120  18.521  0.00  0.00    +0.000 C 
ATOM      5  C   UNL     1      10.463  31.130  16.690  0.00  0.00    +0.000 C 
ATOM      6  C   UNL     1      11.508  29.760  18.982  0.00  0.00    +0.000 C 
ATOM      7  C   UNL     1      10.132  29.628  16.717  0.00  0.00    +0.000 C 
ATOM      8  C   UNL     1      13.091  30.944  16.248  0.00  0.00    +0.000 C 
ATOM      9  C   UNL     1      11.011  28.865  17.762  0.00  0.00    +0.000 C 
ATOM     10  C   UNL     1      11.804  32.978  16.708  0.00  0.00    +0.000 A 
ATOM     11  C   UNL     1      14.165  30.596  17.277  0.00  0.00    +0.000 C 
ATOM     12  C   UNL     1      10.791  33.140  15.753  0.00  0.00    +0.000 A 
ATOM     13  C   UNL     1      12.447  28.903  19.833  0.00  0.00    +0.000 C 
ATOM     14  C   UNL     1      14.299  30.575  19.717  0.00  0.00    +0.000 C 
ATOM     15  C   UNL     1      13.688  29.286  20.165  0.00  0.00    +0.000 C 
ATOM     16  C   UNL     1      12.575  34.047  17.153  0.00  0.00    +0.000 A 
ATOM     17  C   UNL     1       8.679  32.081  15.174  0.00  0.00    +0.000 C 
ATOM     18  C   UNL     1      10.568  34.386  15.200  0.00  0.00    +0.000 A 
ATOM     19  C   UNL     1      12.369  35.331  16.613  0.00  0.00    +0.000 A 
ATOM     20  C   UNL     1      11.355  35.471  15.619  0.00  0.00    +0.000 A 
ENDROOT
BRANCH  19  23
ATOM     21  N   UNL     1      15.166  40.339  17.905  0.00  0.00    +0.000 NA
ATOM     22  N   UNL     1      11.961  36.375  19.248  0.00  0.00    +0.000 N 
ATOM     23  C   UNL     1      13.233  36.577  17.062  0.00  0.00    +0.000 C 
ATOM     24  C   UNL     1      12.741  37.915  16.343  0.00  0.00    +0.000 C 
ATOM     25  C   UNL     1      13.107  36.813  18.606  0.00  0.00    +0.000 A 
ATOM     26  C   UNL     1      13.243  39.245  16.930  0.00  0.00    +0.000 C 
ATOM     27  C   UNL     1      12.624  40.496  16.310  0.00  0.00    +0.000 C 
ATOM     28  C   UNL     1      14.751  39.431  16.850  0.00  0.00    +0.000 C 
ATOM     29  C   UNL     1      13.867  37.486  19.581  0.00  0.00    +0.000 A 
ATOM     30  C   UNL     1      13.156  41.796  16.985  0.00  0.00    +0.000 C 
ATOM     31  C   UNL     1      14.542  41.670  17.740  0.00  0.00    +0.000 C 
ATOM     32  C   UNL     1      15.175  38.253  19.481  0.00  0.00    +0.000 C 
ATOM     33  C   UNL     1      14.999  39.788  19.274  0.00  0.00    +0.000 C 
ATOM     34  C   UNL     1      13.143  37.376  20.826  0.00  0.00    +0.000 A 
ATOM     35  C   UNL     1      11.969  36.680  20.580  0.00  0.00    +0.000 A 
ATOM     36  C   UNL     1      13.382  37.828  22.144  0.00  0.00    +0.000 A 
ATOM     37  C   UNL     1      11.021  36.399  21.572  0.00  0.00    +0.000 A 
ATOM     38  C   UNL     1      12.449  37.557  23.152  0.00  0.00    +0.000 A 
ATOM     39  C   UNL     1      11.285  36.852  22.867  0.00  0.00    +0.000 A 
ATOM     40  H   UNL     1      11.210  35.868  18.798  0.00  0.00    +0.000 HD
BRANCH  23  42
ATOM     41  O   UNL     1      15.566  35.700  17.311  0.00  0.00    +0.000 OA
ATOM     42  C   UNL     1      14.697  36.232  16.632  0.00  0.00    +0.000 C 
BRANCH  42  43
ATOM     43  O   UNL     1      14.896  36.591  15.319  0.00  0.00    +0.000 OA
ATOM     44  C   UNL     1      16.270  36.676  14.944  0.00  0.00    +0.000 C 
ENDBRANCH  42  43
ENDBRANCH  23  42
BRANCH  30  45
ATOM     45  O   UNL     1      13.343  42.739  15.900  0.00  0.00    +0.000 OA
ATOM     46  H   UNL     1      14.031  43.370  16.179  0.00  0.00    +0.000 HD
ENDBRANCH  30  45
BRANCH  30  47
ATOM     47  C   UNL     1      12.076  42.460  17.870  0.00  0.00    +0.000 C 
ATOM     48  C   UNL     1      11.806  41.808  19.216  0.00  0.00    +0.000 C 
ENDBRANCH  30  47
ENDBRANCH  19  23
BRANCH   7  49
ATOM     49  O   UNL     1       8.755  29.541  17.208  0.00  0.00    +0.000 OA
ATOM     50  H   UNL     1       8.517  30.444  17.505  0.00  0.00    +0.000 HD
ENDBRANCH   7  49
BRANCH   7  52
ATOM     51  O   UNL     1      11.146  28.981  14.545  0.00  0.00    +0.000 OA
ATOM     52  C   UNL     1      10.191  28.984  15.309  0.00  0.00    +0.000 C 
BRANCH  52  53
ATOM     53  O   UNL     1       9.013  28.325  15.055  0.00  0.00    +0.000 OA
ATOM     54  C   UNL     1       9.187  26.990  14.576  0.00  0.00    +0.000 C 
ENDBRANCH  52  53
ENDBRANCH   7  52
BRANCH  20  55
ATOM     55  O   UNL     1      11.130  36.731  15.125  0.00  0.00    +0.000 OA
ATOM     56  C   UNL     1       9.761  37.064  14.912  0.00  0.00    +0.000 C 
ENDBRANCH  20  55
BRANCH   6  57
ATOM     57  C   UNL     1      10.270  30.088  19.896  0.00  0.00    +0.000 C 
ATOM     58  C   UNL     1      10.265  31.460  20.574  0.00  0.00    +0.000 C 
ENDBRANCH   6  57
BRANCH   9  59
ATOM     59  O   UNL     1      12.171  28.250  17.152  0.00  0.00    +0.000 OA
BRANCH  59  61
ATOM     60  O   UNL     1      11.310  26.141  17.393  0.00  0.00    +0.000 OA
ATOM     61  C   UNL     1      12.255  26.894  17.204  0.00  0.00    +0.000 C 
ATOM     62  C   UNL     1      13.665  26.454  16.961  0.00  0.00    +0.000 C 
ENDBRANCH  59  61
ENDBRANCH   9  59
TORSDOF 12
ENDMDL
