MODEL 1
REMARK VINA RESULT:      -6.8      0.000      0.000
REMARK  Name = Vorinostat.pdbqt.pdb
REMARK  6 active torsions:
REMARK  status: ('A' for Active; 'I' for Inactive)
REMARK    1  A    between atoms: C_1  and  C_2
REMARK    2  A    between atoms: C_3  and  C_4
REMARK    3  A    between atoms: C_5  and  C_8
REMARK    4  A    between atoms: N_7  and  O_10
REMARK    5  A    between atoms: C_12  and  C_15
REMARK    6  A    between atoms: N_14  and  C_17
REMARK                            x       y       z     vdW  Elec       q    Type
REMARK                         _______ _______ _______ _____ _____    ______ ____
ROOT
ATOM      1  C   UNL     1       3.773  29.558  15.461  0.00  0.00    +0.000 C 
ATOM      2  C   UNL     1       2.371  30.153  15.619  0.00  0.00    +0.000 C 
ENDROOT
BRANCH   2   5
ATOM      3  O   UNL     1       0.521  30.674  16.869  0.00  0.00    +0.000 OA
ATOM      4  N   UNL     1       0.527  31.236  14.607  0.00  0.00    +0.000 N 
ATOM      5  C   UNL     1       1.047  30.712  15.768  0.00  0.00    +0.000 C 
ATOM      6  H   UNL     1       1.102  31.185  13.775  0.00  0.00    +0.000 HD
BRANCH   4   7
ATOM      7  C   UNL     1      -0.736  31.839  14.474  0.00  0.00    +0.000 A 
ATOM      8  C   UNL     1      -1.789  31.047  14.013  0.00  0.00    +0.000 A 
ATOM      9  C   UNL     1      -0.972  33.177  14.784  0.00  0.00    +0.000 A 
ATOM     10  C   UNL     1      -3.064  31.589  13.861  0.00  0.00    +0.000 A 
ATOM     11  C   UNL     1      -2.246  33.722  14.633  0.00  0.00    +0.000 A 
ATOM     12  C   UNL     1      -3.292  32.927  14.172  0.00  0.00    +0.000 A 
ENDBRANCH   4   7
ENDBRANCH   2   5
BRANCH   1  13
ATOM     13  C   UNL     1       5.175  28.963  15.303  0.00  0.00    +0.000 C 
ATOM     14  C   UNL     1       6.577  28.367  15.145  0.00  0.00    +0.000 C 
BRANCH  14  15
ATOM     15  C   UNL     1       7.978  27.770  14.987  0.00  0.00    +0.000 C 
ATOM     16  C   UNL     1       9.380  27.172  14.829  0.00  0.00    +0.000 C 
BRANCH  16  19
ATOM     17  O   UNL     1      11.035  25.639  15.348  0.00  0.00    +0.000 OA
ATOM     18  N   UNL     1      11.505  27.216  13.762  0.00  0.00    +0.000 N 
ATOM     19  C   UNL     1      10.695  26.608  14.681  0.00  0.00    +0.000 C 
ATOM     20  H   UNL     1      11.228  27.991  13.174  0.00  0.00    +0.000 HD
BRANCH  18  21
ATOM     21  O   UNL     1      12.792  26.671  13.564  0.00  0.00    +0.000 OA
ATOM     22  H   UNL     1      13.358  27.244  14.127  0.00  0.00    +0.000 HD
ENDBRANCH  18  21
ENDBRANCH  16  19
ENDBRANCH  14  15
ENDBRANCH   1  13
TORSDOF 6
ENDMDL
MODEL 2
REMARK VINA RESULT:      -6.3      1.781      2.420
REMARK  Name = Vorinostat.pdbqt.pdb
REMARK  6 active torsions:
REMARK  status: ('A' for Active; 'I' for Inactive)
REMARK    1  A    between atoms: C_1  and  C_2
REMARK    2  A    between atoms: C_3  and  C_4
REMARK    3  A    between atoms: C_5  and  C_8
REMARK    4  A    between atoms: N_7  and  O_10
REMARK    5  A    between atoms: C_12  and  C_15
REMARK    6  A    between atoms: N_14  and  C_17
REMARK                            x       y       z     vdW  Elec       q    Type
REMARK                         _______ _______ _______ _____ _____    ______ ____
ROOT
ATOM      1  C   UNL     1       5.453  28.354  14.941  0.00  0.00    +0.000 C 
ATOM      2  C   UNL     1       3.986  28.793  14.977  0.00  0.00    +0.000 C 
ENDROOT
BRANCH   2   5
ATOM      3  O   UNL     1       1.744  28.386  14.727  0.00  0.00    +0.000 OA
ATOM      4  N   UNL     1       2.419  30.522  15.369  0.00  0.00    +0.000 N 
ATOM      5  C   UNL     1       2.602  29.206  15.010  0.00  0.00    +0.000 C 
ATOM      6  H   UNL     1       3.248  31.068  15.572  0.00  0.00    +0.000 HD
BRANCH   4   7
ATOM      7  C   UNL     1       1.180  31.176  15.478  0.00  0.00    +0.000 A 
ATOM      8  C   UNL     1       0.374  30.866  16.574  0.00  0.00    +0.000 A 
ATOM      9  C   UNL     1       0.734  32.110  14.544  0.00  0.00    +0.000 A 
ATOM     10  C   UNL     1      -0.865  31.482  16.735  0.00  0.00    +0.000 A 
ATOM     11  C   UNL     1      -0.505  32.728  14.703  0.00  0.00    +0.000 A 
ATOM     12  C   UNL     1      -1.304  32.414  15.799  0.00  0.00    +0.000 A 
ENDBRANCH   4   7
ENDBRANCH   2   5
BRANCH   1  13
ATOM     13  C   UNL     1       6.919  27.914  14.904  0.00  0.00    +0.000 C 
ATOM     14  C   UNL     1       8.386  27.474  14.868  0.00  0.00    +0.000 C 
BRANCH  14  15
ATOM     15  C   UNL     1       9.852  27.035  14.832  0.00  0.00    +0.000 C 
ATOM     16  C   UNL     1      11.320  26.597  14.797  0.00  0.00    +0.000 C 
BRANCH  16  19
ATOM     17  O   UNL     1      13.360  26.153  15.796  0.00  0.00    +0.000 OA
ATOM     18  N   UNL     1      13.190  25.839  13.539  0.00  0.00    +0.000 N 
ATOM     19  C   UNL     1      12.698  26.185  14.766  0.00  0.00    +0.000 C 
ATOM     20  H   UNL     1      12.647  25.822  12.684  0.00  0.00    +0.000 HD
BRANCH  18  21
ATOM     21  O   UNL     1      14.530  25.398  13.472  0.00  0.00    +0.000 OA
ATOM     22  H   UNL     1      14.997  26.035  14.056  0.00  0.00    +0.000 HD
ENDBRANCH  18  21
ENDBRANCH  16  19
ENDBRANCH  14  15
ENDBRANCH   1  13
TORSDOF 6
ENDMDL
MODEL 3
REMARK VINA RESULT:      -6.2      2.448     11.793
REMARK  Name = Vorinostat.pdbqt.pdb
REMARK  6 active torsions:
REMARK  status: ('A' for Active; 'I' for Inactive)
REMARK    1  A    between atoms: C_1  and  C_2
REMARK    2  A    between atoms: C_3  and  C_4
REMARK    3  A    between atoms: C_5  and  C_8
REMARK    4  A    between atoms: N_7  and  O_10
REMARK    5  A    between atoms: C_12  and  C_15
REMARK    6  A    between atoms: N_14  and  C_17
REMARK                            x       y       z     vdW  Elec       q    Type
REMARK                         _______ _______ _______ _____ _____    ______ ____
ROOT
ATOM      1  C   UNL     1       5.789  30.081  15.789  0.00  0.00    +0.000 C 
ATOM      2  C   UNL     1       7.232  29.592  15.935  0.00  0.00    +0.000 C 
ENDROOT
BRANCH   2   5
ATOM      3  O   UNL     1       9.221  29.462  17.069  0.00  0.00    +0.000 OA
ATOM      4  N   UNL     1       9.030  28.346  15.031  0.00  0.00    +0.000 N 
ATOM      5  C   UNL     1       8.594  29.130  16.075  0.00  0.00    +0.000 C 
ATOM      6  H   UNL     1       8.375  28.168  14.279  0.00  0.00    +0.000 HD
BRANCH   4   7
ATOM      7  C   UNL     1      10.307  27.770  14.918  0.00  0.00    +0.000 A 
ATOM      8  C   UNL     1      10.496  26.495  15.453  0.00  0.00    +0.000 A 
ATOM      9  C   UNL     1      11.375  28.417  14.298  0.00  0.00    +0.000 A 
ATOM     10  C   UNL     1      11.740  25.874  15.371  0.00  0.00    +0.000 A 
ATOM     11  C   UNL     1      12.621  27.797  14.214  0.00  0.00    +0.000 A 
ATOM     12  C   UNL     1      12.803  26.526  14.750  0.00  0.00    +0.000 A 
ENDBRANCH   4   7
ENDBRANCH   2   5
BRANCH   1  13
ATOM     13  C   UNL     1       4.345  30.569  15.644  0.00  0.00    +0.000 C 
ATOM     14  C   UNL     1       2.900  31.059  15.499  0.00  0.00    +0.000 C 
BRANCH  14  15
ATOM     15  C   UNL     1       1.456  31.547  15.355  0.00  0.00    +0.000 C 
ATOM     16  C   UNL     1       0.012  32.037  15.210  0.00  0.00    +0.000 C 
BRANCH  16  19
ATOM     17  O   UNL     1      -2.234  32.028  15.773  0.00  0.00    +0.000 OA
ATOM     18  N   UNL     1      -1.554  33.466  14.133  0.00  0.00    +0.000 N 
ATOM     19  C   UNL     1      -1.344  32.495  15.072  0.00  0.00    +0.000 C 
ATOM     20  H   UNL     1      -0.826  33.893  13.574  0.00  0.00    +0.000 HD
BRANCH  18  21
ATOM     21  O   UNL     1      -2.866  33.967  13.990  0.00  0.00    +0.000 OA
ATOM     22  H   UNL     1      -3.205  33.950  14.912  0.00  0.00    +0.000 HD
ENDBRANCH  18  21
ENDBRANCH  16  19
ENDBRANCH  14  15
ENDBRANCH   1  13
TORSDOF 6
ENDMDL
MODEL 4
REMARK VINA RESULT:      -6.1      6.376     11.668
REMARK  Name = Vorinostat.pdbqt.pdb
REMARK  6 active torsions:
REMARK  status: ('A' for Active; 'I' for Inactive)
REMARK    1  A    between atoms: C_1  and  C_2
REMARK    2  A    between atoms: C_3  and  C_4
REMARK    3  A    between atoms: C_5  and  C_8
REMARK    4  A    between atoms: N_7  and  O_10
REMARK    5  A    between atoms: C_12  and  C_15
REMARK    6  A    between atoms: N_14  and  C_17
REMARK                            x       y       z     vdW  Elec       q    Type
REMARK                         _______ _______ _______ _____ _____    ______ ____
ROOT
ATOM      1  C   UNL     1       4.448  33.271  15.723  0.00  0.00    +0.000 C 
ATOM      2  C   UNL     1       5.906  33.586  16.073  0.00  0.00    +0.000 C 
ENDROOT
BRANCH   2   5
ATOM      3  O   UNL     1       7.994  32.970  16.791  0.00  0.00    +0.000 OA
ATOM      4  N   UNL     1       7.626  35.203  16.233  0.00  0.00    +0.000 N 
ATOM      5  C   UNL     1       7.280  33.882  16.404  0.00  0.00    +0.000 C 
ATOM      6  H   UNL     1       6.905  35.832  15.901  0.00  0.00    +0.000 HD
BRANCH   4   7
ATOM      7  C   UNL     1       8.894  35.756  16.481  0.00  0.00    +0.000 A 
ATOM      8  C   UNL     1       9.699  36.056  15.382  0.00  0.00    +0.000 A 
ATOM      9  C   UNL     1       9.368  36.012  17.767  0.00  0.00    +0.000 A 
ATOM     10  C   UNL     1      10.966  36.606  15.566  0.00  0.00    +0.000 A 
ATOM     11  C   UNL     1      10.635  36.563  17.954  0.00  0.00    +0.000 A 
ATOM     12  C   UNL     1      11.433  36.860  16.853  0.00  0.00    +0.000 A 
ENDBRANCH   4   7
ENDBRANCH   2   5
BRANCH   1  13
ATOM     13  C   UNL     1       2.991  32.954  15.374  0.00  0.00    +0.000 C 
ATOM     14  C   UNL     1       1.534  32.636  15.024  0.00  0.00    +0.000 C 
BRANCH  14  15
ATOM     15  C   UNL     1       0.078  32.319  14.674  0.00  0.00    +0.000 C 
ATOM     16  C   UNL     1      -1.379  32.002  14.322  0.00  0.00    +0.000 C 
BRANCH  16  19
ATOM     17  O   UNL     1      -3.059  31.415  12.842  0.00  0.00    +0.000 OA
ATOM     18  N   UNL     1      -3.639  31.765  15.024  0.00  0.00    +0.000 N 
ATOM     19  C   UNL     1      -2.747  31.705  13.990  0.00  0.00    +0.000 C 
ATOM     20  H   UNL     1      -3.393  31.964  15.986  0.00  0.00    +0.000 HD
BRANCH  18  21
ATOM     21  O   UNL     1      -4.986  31.448  14.745  0.00  0.00    +0.000 OA
ATOM     22  H   UNL     1      -5.091  31.749  13.815  0.00  0.00    +0.000 HD
ENDBRANCH  18  21
ENDBRANCH  16  19
ENDBRANCH  14  15
ENDBRANCH   1  13
TORSDOF 6
ENDMDL
MODEL 5
REMARK VINA RESULT:      -6.0      1.918      2.624
REMARK  Name = Vorinostat.pdbqt.pdb
REMARK  6 active torsions:
REMARK  status: ('A' for Active; 'I' for Inactive)
REMARK    1  A    between atoms: C_1  and  C_2
REMARK    2  A    between atoms: C_3  and  C_4
REMARK    3  A    between atoms: C_5  and  C_8
REMARK    4  A    between atoms: N_7  and  O_10
REMARK    5  A    between atoms: C_12  and  C_15
REMARK    6  A    between atoms: N_14  and  C_17
REMARK                            x       y       z     vdW  Elec       q    Type
REMARK                         _______ _______ _______ _____ _____    ______ ____
ROOT
ATOM      1  C   UNL     1       6.041  29.752  15.647  0.00  0.00    +0.000 C 
ATOM      2  C   UNL     1       4.800  30.634  15.813  0.00  0.00    +0.000 C 
ENDROOT
BRANCH   2   5
ATOM      3  O   UNL     1       3.766  32.576  16.458  0.00  0.00    +0.000 OA
ATOM      4  N   UNL     1       2.465  30.881  15.526  0.00  0.00    +0.000 N 
ATOM      5  C   UNL     1       3.629  31.466  15.968  0.00  0.00    +0.000 C 
ATOM      6  H   UNL     1       2.530  29.946  15.143  0.00  0.00    +0.000 HD
BRANCH   4   7
ATOM      7  C   UNL     1       1.189  31.470  15.561  0.00  0.00    +0.000 A 
ATOM      8  C   UNL     1       0.890  32.434  14.597  0.00  0.00    +0.000 A 
ATOM      9  C   UNL     1       0.225  31.131  16.510  0.00  0.00    +0.000 A 
ATOM     10  C   UNL     1      -0.358  33.053  14.582  0.00  0.00    +0.000 A 
ATOM     11  C   UNL     1      -1.024  31.748  16.496  0.00  0.00    +0.000 A 
ATOM     12  C   UNL     1      -1.316  32.709  15.532  0.00  0.00    +0.000 A 
ENDBRANCH   4   7
ENDBRANCH   2   5
BRANCH   1  13
ATOM     13  C   UNL     1       7.281  28.869  15.480  0.00  0.00    +0.000 C 
ATOM     14  C   UNL     1       8.522  27.986  15.311  0.00  0.00    +0.000 C 
BRANCH  14  15
ATOM     15  C   UNL     1       9.761  27.102  15.144  0.00  0.00    +0.000 C 
ATOM     16  C   UNL     1      11.000  26.217  14.977  0.00  0.00    +0.000 C 
BRANCH  16  19
ATOM     17  O   UNL     1      13.254  25.756  15.234  0.00  0.00    +0.000 OA
ATOM     18  N   UNL     1      11.957  24.184  14.200  0.00  0.00    +0.000 N 
ATOM     19  C   UNL     1      12.162  25.384  14.820  0.00  0.00    +0.000 C 
ATOM     20  H   UNL     1      11.056  23.843  13.888  0.00  0.00    +0.000 HD
BRANCH  18  21
ATOM     21  O   UNL     1      13.068  23.323  14.056  0.00  0.00    +0.000 OA
ATOM     22  H   UNL     1      12.775  22.513  14.529  0.00  0.00    +0.000 HD
ENDBRANCH  18  21
ENDBRANCH  16  19
ENDBRANCH  14  15
ENDBRANCH   1  13
TORSDOF 6
ENDMDL
MODEL 6
REMARK VINA RESULT:      -5.7      7.720      8.475
REMARK  Name = Vorinostat.pdbqt.pdb
REMARK  6 active torsions:
REMARK  status: ('A' for Active; 'I' for Inactive)
REMARK    1  A    between atoms: C_1  and  C_2
REMARK    2  A    between atoms: C_3  and  C_4
REMARK    3  A    between atoms: C_5  and  C_8
REMARK    4  A    between atoms: N_7  and  O_10
REMARK    5  A    between atoms: C_12  and  C_15
REMARK    6  A    between atoms: N_14  and  C_17
REMARK                            x       y       z     vdW  Elec       q    Type
REMARK                         _______ _______ _______ _____ _____    ______ ____
ROOT
ATOM      1  C   UNL     1       7.169  34.134  16.633  0.00  0.00    +0.000 C 
ATOM      2  C   UNL     1       5.977  33.173  16.690  0.00  0.00    +0.000 C 
ENDROOT
BRANCH   2   5
ATOM      3  O   UNL     1       4.236  32.167  17.791  0.00  0.00    +0.000 OA
ATOM      4  N   UNL     1       4.607  31.611  15.558  0.00  0.00    +0.000 N 
ATOM      5  C   UNL     1       4.852  32.269  16.742  0.00  0.00    +0.000 C 
ATOM      6  H   UNL     1       5.220  31.814  14.779  0.00  0.00    +0.000 HD
BRANCH   4   7
ATOM      7  C   UNL     1       3.578  30.679  15.338  0.00  0.00    +0.000 A 
ATOM      8  C   UNL     1       3.937  29.342  15.162  0.00  0.00    +0.000 A 
ATOM      9  C   UNL     1       2.232  31.038  15.289  0.00  0.00    +0.000 A 
ATOM     10  C   UNL     1       2.961  28.374  14.939  0.00  0.00    +0.000 A 
ATOM     11  C   UNL     1       1.253  30.071  15.067  0.00  0.00    +0.000 A 
ATOM     12  C   UNL     1       1.618  28.739  14.892  0.00  0.00    +0.000 A 
ENDBRANCH   4   7
ENDBRANCH   2   5
BRANCH   1  13
ATOM     13  C   UNL     1       8.360  35.093  16.575  0.00  0.00    +0.000 C 
ATOM     14  C   UNL     1       9.553  36.054  16.516  0.00  0.00    +0.000 C 
BRANCH  14  15
ATOM     15  C   UNL     1      10.744  37.013  16.456  0.00  0.00    +0.000 C 
ATOM     16  C   UNL     1      11.937  37.973  16.397  0.00  0.00    +0.000 C 
BRANCH  16  19
ATOM     17  O   UNL     1      14.203  38.445  16.400  0.00  0.00    +0.000 OA
ATOM     18  N   UNL     1      12.752  40.201  16.225  0.00  0.00    +0.000 N 
ATOM     19  C   UNL     1      13.057  38.874  16.344  0.00  0.00    +0.000 C 
ATOM     20  H   UNL     1      11.813  40.570  16.138  0.00  0.00    +0.000 HD
BRANCH  18  21
ATOM     21  O   UNL     1      13.825  41.114  16.136  0.00  0.00    +0.000 OA
ATOM     22  H   UNL     1      14.337  40.771  15.372  0.00  0.00    +0.000 HD
ENDBRANCH  18  21
ENDBRANCH  16  19
ENDBRANCH  14  15
ENDBRANCH   1  13
TORSDOF 6
ENDMDL
MODEL 7
REMARK VINA RESULT:      -5.5      8.877     11.406
REMARK  Name = Vorinostat.pdbqt.pdb
REMARK  6 active torsions:
REMARK  status: ('A' for Active; 'I' for Inactive)
REMARK    1  A    between atoms: C_1  and  C_2
REMARK    2  A    between atoms: C_3  and  C_4
REMARK    3  A    between atoms: C_5  and  C_8
REMARK    4  A    between atoms: N_7  and  O_10
REMARK    5  A    between atoms: C_12  and  C_15
REMARK    6  A    between atoms: N_14  and  C_17
REMARK                            x       y       z     vdW  Elec       q    Type
REMARK                         _______ _______ _______ _____ _____    ______ ____
ROOT
ATOM      1  C   UNL     1       7.766  34.654  16.922  0.00  0.00    +0.000 C 
ATOM      2  C   UNL     1       8.694  35.812  17.298  0.00  0.00    +0.000 C 
ENDROOT
BRANCH   2   5
ATOM      3  O   UNL     1       9.651  37.228  18.827  0.00  0.00    +0.000 OA
ATOM      4  N   UNL     1      10.225  37.468  16.580  0.00  0.00    +0.000 N 
ATOM      5  C   UNL     1       9.569  36.906  17.651  0.00  0.00    +0.000 C 
ATOM      6  H   UNL     1      10.040  37.076  15.665  0.00  0.00    +0.000 HD
BRANCH   4   7
ATOM      7  C   UNL     1      11.129  38.542  16.645  0.00  0.00    +0.000 A 
ATOM      8  C   UNL     1      10.604  39.834  16.690  0.00  0.00    +0.000 A 
ATOM      9  C   UNL     1      12.512  38.365  16.668  0.00  0.00    +0.000 A 
ATOM     10  C   UNL     1      11.452  40.938  16.756  0.00  0.00    +0.000 A 
ATOM     11  C   UNL     1      13.363  39.467  16.733  0.00  0.00    +0.000 A 
ATOM     12  C   UNL     1      12.832  40.753  16.778  0.00  0.00    +0.000 A 
ENDBRANCH   4   7
ENDBRANCH   2   5
BRANCH   1  13
ATOM     13  C   UNL     1       6.836  33.497  16.547  0.00  0.00    +0.000 C 
ATOM     14  C   UNL     1       5.907  32.338  16.171  0.00  0.00    +0.000 C 
BRANCH  14  15
ATOM     15  C   UNL     1       4.977  31.181  15.794  0.00  0.00    +0.000 C 
ATOM     16  C   UNL     1       4.047  30.023  15.419  0.00  0.00    +0.000 C 
BRANCH  16  19
ATOM     17  O   UNL     1       2.058  28.848  15.570  0.00  0.00    +0.000 OA
ATOM     18  N   UNL     1       3.662  28.047  14.154  0.00  0.00    +0.000 N 
ATOM     19  C   UNL     1       3.172  28.937  15.067  0.00  0.00    +0.000 C 
ATOM     20  H   UNL     1       4.563  28.126  13.698  0.00  0.00    +0.000 HD
BRANCH  18  21
ATOM     21  O   UNL     1       2.820  26.985  13.758  0.00  0.00    +0.000 OA
ATOM     22  H   UNL     1       2.485  26.643  14.616  0.00  0.00    +0.000 HD
ENDBRANCH  18  21
ENDBRANCH  16  19
ENDBRANCH  14  15
ENDBRANCH   1  13
TORSDOF 6
ENDMDL
MODEL 8
REMARK VINA RESULT:      -5.5     18.830     22.065
REMARK  Name = Vorinostat.pdbqt.pdb
REMARK  6 active torsions:
REMARK  status: ('A' for Active; 'I' for Inactive)
REMARK    1  A    between atoms: C_1  and  C_2
REMARK    2  A    between atoms: C_3  and  C_4
REMARK    3  A    between atoms: C_5  and  C_8
REMARK    4  A    between atoms: N_7  and  O_10
REMARK    5  A    between atoms: C_12  and  C_15
REMARK    6  A    between atoms: N_14  and  C_17
REMARK                            x       y       z     vdW  Elec       q    Type
REMARK                         _______ _______ _______ _____ _____    ______ ____
ROOT
ATOM      1  C   UNL     1     -14.851  21.665  18.173  0.00  0.00    +0.000 C 
ATOM      2  C   UNL     1     -15.349  21.580  19.619  0.00  0.00    +0.000 C 
ENDROOT
BRANCH   2   5
ATOM      3  O   UNL     1     -15.149  22.024  21.859  0.00  0.00    +0.000 OA
ATOM      4  N   UNL     1     -17.009  20.825  21.127  0.00  0.00    +0.000 N 
ATOM      5  C   UNL     1     -15.820  21.502  20.983  0.00  0.00    +0.000 C 
ATOM      6  H   UNL     1     -17.436  20.452  20.288  0.00  0.00    +0.000 HD
BRANCH   4   7
ATOM      7  C   UNL     1     -17.683  20.605  22.340  0.00  0.00    +0.000 A 
ATOM      8  C   UNL     1     -17.798  19.290  22.792  0.00  0.00    +0.000 A 
ATOM      9  C   UNL     1     -18.233  21.639  23.098  0.00  0.00    +0.000 A 
ATOM     10  C   UNL     1     -18.456  19.010  23.988  0.00  0.00    +0.000 A 
ATOM     11  C   UNL     1     -18.892  21.362  24.295  0.00  0.00    +0.000 A 
ATOM     12  C   UNL     1     -19.002  20.047  24.739  0.00  0.00    +0.000 A 
ENDBRANCH   4   7
ENDBRANCH   2   5
BRANCH   1  13
ATOM     13  C   UNL     1     -14.354  21.751  16.728  0.00  0.00    +0.000 C 
ATOM     14  C   UNL     1     -13.857  21.835  15.281  0.00  0.00    +0.000 C 
BRANCH  14  15
ATOM     15  C   UNL     1     -13.360  21.919  13.835  0.00  0.00    +0.000 C 
ATOM     16  C   UNL     1     -12.863  22.003  12.388  0.00  0.00    +0.000 C 
BRANCH  16  19
ATOM     17  O   UNL     1     -12.985  21.483  10.136  0.00  0.00    +0.000 OA
ATOM     18  N   UNL     1     -11.293  22.859  10.820  0.00  0.00    +0.000 N 
ATOM     19  C   UNL     1     -12.399  22.083  11.029  0.00  0.00    +0.000 C 
ATOM     20  H   UNL     1     -10.820  23.393  11.538  0.00  0.00    +0.000 HD
BRANCH  18  21
ATOM     21  O   UNL     1     -10.827  22.988   9.494  0.00  0.00    +0.000 OA
ATOM     22  H   UNL     1     -11.482  23.600   9.093  0.00  0.00    +0.000 HD
ENDBRANCH  18  21
ENDBRANCH  16  19
ENDBRANCH  14  15
ENDBRANCH   1  13
TORSDOF 6
ENDMDL
MODEL 9
REMARK VINA RESULT:      -5.3     15.616     16.872
REMARK  Name = Vorinostat.pdbqt.pdb
REMARK  6 active torsions:
REMARK  status: ('A' for Active; 'I' for Inactive)
REMARK    1  A    between atoms: C_1  and  C_2
REMARK    2  A    between atoms: C_3  and  C_4
REMARK    3  A    between atoms: C_5  and  C_8
REMARK    4  A    between atoms: N_7  and  O_10
REMARK    5  A    between atoms: C_12  and  C_15
REMARK    6  A    between atoms: N_14  and  C_17
REMARK                            x       y       z     vdW  Elec       q    Type
REMARK                         _______ _______ _______ _____ _____    ______ ____
ROOT
ATOM      1  C   UNL     1       1.985  22.753   1.936  0.00  0.00    +0.000 C 
ATOM      2  C   UNL     1       1.975  21.829   3.157  0.00  0.00    +0.000 C 
ENDROOT
BRANCH   2   5
ATOM      3  O   UNL     1       1.922  19.750   4.122  0.00  0.00    +0.000 OA
ATOM      4  N   UNL     1       2.009  21.618   5.513  0.00  0.00    +0.000 N 
ATOM      5  C   UNL     1       1.966  20.956   4.307  0.00  0.00    +0.000 C 
ATOM      6  H   UNL     1       2.042  22.630   5.487  0.00  0.00    +0.000 HD
BRANCH   4   7
ATOM      7  C   UNL     1       2.011  21.011   6.781  0.00  0.00    +0.000 A 
ATOM      8  C   UNL     1       3.222  20.953   7.473  0.00  0.00    +0.000 A 
ATOM      9  C   UNL     1       0.864  20.473   7.363  0.00  0.00    +0.000 A 
ATOM     10  C   UNL     1       3.285  20.363   8.733  0.00  0.00    +0.000 A 
ATOM     11  C   UNL     1       0.925  19.883   8.624  0.00  0.00    +0.000 A 
ATOM     12  C   UNL     1       2.136  19.828   9.309  0.00  0.00    +0.000 A 
ENDBRANCH   4   7
ENDBRANCH   2   5
BRANCH   1  13
ATOM     13  C   UNL     1       1.998  23.678   0.715  0.00  0.00    +0.000 C 
ATOM     14  C   UNL     1       2.010  24.603  -0.506  0.00  0.00    +0.000 C 
BRANCH  14  15
ATOM     15  C   UNL     1       2.022  25.526  -1.727  0.00  0.00    +0.000 C 
ATOM     16  C   UNL     1       2.036  26.449  -2.950  0.00  0.00    +0.000 C 
BRANCH  16  19
ATOM     17  O   UNL     1       2.385  26.886  -5.196  0.00  0.00    +0.000 OA
ATOM     18  N   UNL     1       1.661  28.607  -3.878  0.00  0.00    +0.000 N 
ATOM     19  C   UNL     1       2.048  27.314  -4.099  0.00  0.00    +0.000 C 
ATOM     20  H   UNL     1       1.342  28.968  -2.988  0.00  0.00    +0.000 HD
BRANCH  18  21
ATOM     21  O   UNL     1       1.629  29.479  -4.988  0.00  0.00    +0.000 OA
ATOM     22  H   UNL     1       0.698  29.404  -5.294  0.00  0.00    +0.000 HD
ENDBRANCH  18  21
ENDBRANCH  16  19
ENDBRANCH  14  15
ENDBRANCH   1  13
TORSDOF 6
ENDMDL
