MODEL 1
REMARK VINA RESULT:      -7.7      0.000      0.000
REMARK  Name = 10074640_Masitinib.pdbqt.pdb
REMARK  6 active torsions:
REMARK  status: ('A' for Active; 'I' for Inactive)
REMARK    1  A    between atoms: C_1  and  N_22
REMARK    2  A    between atoms: C_2  and  N_9
REMARK    3  A    between atoms: C_12  and  C_16
REMARK    4  A    between atoms: C_23  and  C_30
REMARK    5  A    between atoms: C_25  and  C_31
REMARK    6  A    between atoms: C_31  and  N_32
REMARK                            x       y       z     vdW  Elec       q    Type
REMARK                         _______ _______ _______ _____ _____    ______ ____
ROOT
ATOM      1  C   UNL     1     -36.719 -43.988  49.458  0.00  0.00    +0.000 A 
ATOM      2  C   UNL     1     -37.450 -41.661  49.236  0.00  0.00    +0.000 A 
ATOM      3  C   UNL     1     -36.941 -42.721  49.999  0.00  0.00    +0.000 A 
ATOM      4  C   UNL     1     -37.736 -41.924  47.882  0.00  0.00    +0.000 A 
ATOM      5  C   UNL     1     -36.991 -44.208  48.109  0.00  0.00    +0.000 A 
ATOM      6  C   UNL     1     -37.508 -43.182  47.324  0.00  0.00    +0.000 A 
ATOM      7  C   UNL     1     -38.301 -40.838  46.988  0.00  0.00    +0.000 C 
ENDROOT
BRANCH   2   9
ATOM      8  S   UNL     1     -38.803 -38.200  50.811  0.00  0.00    +0.000 S 
ATOM      9  N   UNL     1     -37.632 -40.367  49.778  0.00  0.00    +0.000 N 
ATOM     10  N   UNL     1     -39.866 -40.524  50.580  0.00  0.00    +0.000 NA
ATOM     11  C   UNL     1     -38.758 -39.862  50.331  0.00  0.00    +0.000 A 
ATOM     12  C   UNL     1     -40.823 -39.702  51.142  0.00  0.00    +0.000 A 
ATOM     13  C   UNL     1     -40.405 -38.407  51.331  0.00  0.00    +0.000 A 
ATOM     14  H   UNL     1     -36.794 -39.789  49.747  0.00  0.00    +0.000 HD
BRANCH  12  16
ATOM     15  N   UNL     1     -43.991 -41.675  51.019  0.00  0.00    +0.000 NA
ATOM     16  C   UNL     1     -42.135 -40.192  51.504  0.00  0.00    +0.000 A 
ATOM     17  C   UNL     1     -42.799 -39.745  52.643  0.00  0.00    +0.000 A 
ATOM     18  C   UNL     1     -42.776 -41.147  50.728  0.00  0.00    +0.000 A 
ATOM     19  C   UNL     1     -44.052 -40.250  52.970  0.00  0.00    +0.000 A 
ATOM     20  C   UNL     1     -44.597 -41.207  52.131  0.00  0.00    +0.000 A 
ENDBRANCH  12  16
ENDBRANCH   2   9
BRANCH   1  22
ATOM     21  O   UNL     1     -34.010 -44.349  50.441  0.00  0.00    +0.000 OA
ATOM     22  N   UNL     1     -36.207 -45.062  50.212  0.00  0.00    +0.000 N 
ATOM     23  C   UNL     1     -34.884 -45.191  50.609  0.00  0.00    +0.000 C 
ATOM     24  H   UNL     1     -36.877 -45.766  50.500  0.00  0.00    +0.000 HD
BRANCH  23  30
ATOM     25  C   UNL     1     -33.820 -48.838  52.558  0.00  0.00    +0.000 A 
ATOM     26  C   UNL     1     -34.742 -47.988  53.164  0.00  0.00    +0.000 A 
ATOM     27  C   UNL     1     -33.250 -48.500  51.335  0.00  0.00    +0.000 A 
ATOM     28  C   UNL     1     -35.096 -46.793  52.541  0.00  0.00    +0.000 A 
ATOM     29  C   UNL     1     -33.604 -47.304  50.714  0.00  0.00    +0.000 A 
ATOM     30  C   UNL     1     -34.527 -46.446  51.315  0.00  0.00    +0.000 A 
BRANCH  25  31
ATOM     31  C   UNL     1     -33.459 -50.062  53.195  0.00  0.00    +0.000 C 
BRANCH  31  32
ATOM     32  N   UNL     1     -33.090 -51.315  53.843  0.00  0.00    +0.000 N 
ATOM     33  N   UNL     1     -30.263 -52.968  52.470  0.00  0.00    +0.000 N 
ATOM     34  C   UNL     1     -32.955 -52.335  52.766  0.00  0.00    +0.000 C 
ATOM     35  C   UNL     1     -31.635 -51.228  54.152  0.00  0.00    +0.000 C 
ATOM     36  C   UNL     1     -31.718 -53.066  52.171  0.00  0.00    +0.000 C 
ATOM     37  C   UNL     1     -30.397 -51.958  53.556  0.00  0.00    +0.000 C 
ATOM     38  C   UNL     1     -29.872 -54.221  53.099  0.00  0.00    +0.000 C 
ENDBRANCH  31  32
ENDBRANCH  25  31
ENDBRANCH  23  30
ENDBRANCH   1  22
TORSDOF 6
ENDMDL
MODEL 2
REMARK VINA RESULT:      -7.7     21.606     25.009
REMARK  Name = 10074640_Masitinib.pdbqt.pdb
REMARK  6 active torsions:
REMARK  status: ('A' for Active; 'I' for Inactive)
REMARK    1  A    between atoms: C_1  and  N_22
REMARK    2  A    between atoms: C_2  and  N_9
REMARK    3  A    between atoms: C_12  and  C_16
REMARK    4  A    between atoms: C_23  and  C_30
REMARK    5  A    between atoms: C_25  and  C_31
REMARK    6  A    between atoms: C_31  and  N_32
REMARK                            x       y       z     vdW  Elec       q    Type
REMARK                         _______ _______ _______ _____ _____    ______ ____
ROOT
ATOM      1  C   UNL     1     -43.085 -68.185  41.888  0.00  0.00    +0.000 A 
ATOM      2  C   UNL     1     -43.686 -66.179  40.618  0.00  0.00    +0.000 A 
ATOM      3  C   UNL     1     -42.806 -66.891  41.444  0.00  0.00    +0.000 A 
ATOM      4  C   UNL     1     -44.882 -66.824  40.246  0.00  0.00    +0.000 A 
ATOM      5  C   UNL     1     -44.266 -68.803  41.483  0.00  0.00    +0.000 A 
ATOM      6  C   UNL     1     -45.169 -68.122  40.672  0.00  0.00    +0.000 A 
ATOM      7  C   UNL     1     -45.896 -66.122  39.365  0.00  0.00    +0.000 C 
ENDROOT
BRANCH   2   9
ATOM      8  S   UNL     1     -43.486 -62.248  39.729  0.00  0.00    +0.000 S 
ATOM      9  N   UNL     1     -43.379 -64.885  40.135  0.00  0.00    +0.000 N 
ATOM     10  N   UNL     1     -44.708 -63.539  41.578  0.00  0.00    +0.000 NA
ATOM     11  C   UNL     1     -43.902 -63.711  40.554  0.00  0.00    +0.000 A 
ATOM     12  C   UNL     1     -45.058 -62.211  41.722  0.00  0.00    +0.000 A 
ATOM     13  C   UNL     1     -44.480 -61.378  40.794  0.00  0.00    +0.000 A 
ATOM     14  H   UNL     1     -42.670 -64.879  39.406  0.00  0.00    +0.000 HD
BRANCH  12  16
ATOM     15  N   UNL     1     -46.884 -62.132  44.978  0.00  0.00    +0.000 NA
ATOM     16  C   UNL     1     -45.943 -61.763  42.774  0.00  0.00    +0.000 A 
ATOM     17  C   UNL     1     -46.661 -60.574  42.675  0.00  0.00    +0.000 A 
ATOM     18  C   UNL     1     -46.096 -62.502  43.937  0.00  0.00    +0.000 A 
ATOM     19  C   UNL     1     -47.490 -60.165  43.713  0.00  0.00    +0.000 A 
ATOM     20  C   UNL     1     -47.563 -60.975  44.833  0.00  0.00    +0.000 A 
ENDBRANCH  12  16
ENDBRANCH   2   9
BRANCH   1  22
ATOM     21  O   UNL     1     -40.875 -69.894  41.091  0.00  0.00    +0.000 OA
ATOM     22  N   UNL     1     -42.209 -68.914  42.718  0.00  0.00    +0.000 N 
ATOM     23  C   UNL     1     -41.200 -69.750  42.263  0.00  0.00    +0.000 C 
ATOM     24  H   UNL     1     -42.323 -68.779  43.716  0.00  0.00    +0.000 HD
BRANCH  23  30
ATOM     25  C   UNL     1     -39.025 -71.827  45.294  0.00  0.00    +0.000 A 
ATOM     26  C   UNL     1     -39.248 -72.451  44.069  0.00  0.00    +0.000 A 
ATOM     27  C   UNL     1     -39.510 -70.543  45.527  0.00  0.00    +0.000 A 
ATOM     28  C   UNL     1     -39.959 -71.787  43.072  0.00  0.00    +0.000 A 
ATOM     29  C   UNL     1     -40.222 -69.881  44.530  0.00  0.00    +0.000 A 
ATOM     30  C   UNL     1     -40.450 -70.501  43.299  0.00  0.00    +0.000 A 
BRANCH  25  31
ATOM     31  C   UNL     1     -38.296 -72.506  46.315  0.00  0.00    +0.000 C 
BRANCH  31  32
ATOM     32  N   UNL     1     -37.549 -73.199  47.356  0.00  0.00    +0.000 N 
ATOM     33  N   UNL     1     -39.514 -74.686  49.912  0.00  0.00    +0.000 N 
ATOM     34  C   UNL     1     -38.046 -72.682  48.662  0.00  0.00    +0.000 C 
ATOM     35  C   UNL     1     -38.152 -74.555  47.491  0.00  0.00    +0.000 C 
ATOM     36  C   UNL     1     -38.899 -73.336  49.785  0.00  0.00    +0.000 C 
ATOM     37  C   UNL     1     -39.006 -75.209  48.614  0.00  0.00    +0.000 C 
ATOM     38  C   UNL     1     -38.793 -75.386  50.965  0.00  0.00    +0.000 C 
ENDBRANCH  31  32
ENDBRANCH  25  31
ENDBRANCH  23  30
ENDBRANCH   1  22
TORSDOF 6
ENDMDL
MODEL 3
REMARK VINA RESULT:      -7.6     21.322     24.410
REMARK  Name = 10074640_Masitinib.pdbqt.pdb
REMARK  6 active torsions:
REMARK  status: ('A' for Active; 'I' for Inactive)
REMARK    1  A    between atoms: C_1  and  N_22
REMARK    2  A    between atoms: C_2  and  N_9
REMARK    3  A    between atoms: C_12  and  C_16
REMARK    4  A    between atoms: C_23  and  C_30
REMARK    5  A    between atoms: C_25  and  C_31
REMARK    6  A    between atoms: C_31  and  N_32
REMARK                            x       y       z     vdW  Elec       q    Type
REMARK                         _______ _______ _______ _____ _____    ______ ____
ROOT
ATOM      1  C   UNL     1     -42.825 -68.261  42.266  0.00  0.00    +0.000 A 
ATOM      2  C   UNL     1     -43.503 -66.405  40.818  0.00  0.00    +0.000 A 
ATOM      3  C   UNL     1     -42.595 -67.005  41.700  0.00  0.00    +0.000 A 
ATOM      4  C   UNL     1     -44.676 -67.124  40.516  0.00  0.00    +0.000 A 
ATOM      5  C   UNL     1     -43.984 -68.955  41.928  0.00  0.00    +0.000 A 
ATOM      6  C   UNL     1     -44.914 -68.385  41.063  0.00  0.00    +0.000 A 
ATOM      7  C   UNL     1     -45.717 -66.544  39.580  0.00  0.00    +0.000 C 
ENDROOT
BRANCH   2   9
ATOM      8  S   UNL     1     -43.429 -62.562  39.586  0.00  0.00    +0.000 S 
ATOM      9  N   UNL     1     -43.244 -65.151  40.214  0.00  0.00    +0.000 N 
ATOM     10  N   UNL     1     -44.555 -63.714  41.583  0.00  0.00    +0.000 NA
ATOM     11  C   UNL     1     -43.781 -63.957  40.549  0.00  0.00    +0.000 A 
ATOM     12  C   UNL     1     -44.933 -62.386  41.624  0.00  0.00    +0.000 A 
ATOM     13  C   UNL     1     -44.407 -61.625  40.608  0.00  0.00    +0.000 A 
ATOM     14  H   UNL     1     -42.560 -65.194  39.462  0.00  0.00    +0.000 HD
BRANCH  12  16
ATOM     15  N   UNL     1     -46.683 -62.090  44.909  0.00  0.00    +0.000 NA
ATOM     16  C   UNL     1     -45.791 -61.867  42.665  0.00  0.00    +0.000 A 
ATOM     17  C   UNL     1     -46.506 -60.683  42.507  0.00  0.00    +0.000 A 
ATOM     18  C   UNL     1     -45.921 -62.530  43.877  0.00  0.00    +0.000 A 
ATOM     19  C   UNL     1     -47.310 -60.204  43.536  0.00  0.00    +0.000 A 
ATOM     20  C   UNL     1     -47.361 -60.941  44.707  0.00  0.00    +0.000 A 
ENDBRANCH  12  16
ENDBRANCH   2   9
BRANCH   1  22
ATOM     21  O   UNL     1     -40.485 -69.853  41.613  0.00  0.00    +0.000 OA
ATOM     22  N   UNL     1     -41.920 -68.877  43.153  0.00  0.00    +0.000 N 
ATOM     23  C   UNL     1     -40.846 -69.666  42.768  0.00  0.00    +0.000 C 
ATOM     24  H   UNL     1     -42.067 -68.693  44.139  0.00  0.00    +0.000 HD
BRANCH  23  30
ATOM     25  C   UNL     1     -38.585 -71.566  45.852  0.00  0.00    +0.000 A 
ATOM     26  C   UNL     1     -39.558 -70.633  46.200  0.00  0.00    +0.000 A 
ATOM     27  C   UNL     1     -38.350 -71.871  44.514  0.00  0.00    +0.000 A 
ATOM     28  C   UNL     1     -40.301 -70.002  45.204  0.00  0.00    +0.000 A 
ATOM     29  C   UNL     1     -39.093 -71.239  43.520  0.00  0.00    +0.000 A 
ATOM     30  C   UNL     1     -40.071 -70.301  43.861  0.00  0.00    +0.000 A 
BRANCH  25  31
ATOM     31  C   UNL     1     -37.825 -72.213  46.870  0.00  0.00    +0.000 C 
BRANCH  31  32
ATOM     32  N   UNL     1     -37.049 -72.872  47.913  0.00  0.00    +0.000 N 
ATOM     33  N   UNL     1     -34.859 -70.764  49.748  0.00  0.00    +0.000 N 
ATOM     34  C   UNL     1     -35.626 -72.485  47.702  0.00  0.00    +0.000 C 
ATOM     35  C   UNL     1     -37.238 -72.078  49.160  0.00  0.00    +0.000 C 
ATOM     36  C   UNL     1     -34.664 -71.568  48.511  0.00  0.00    +0.000 C 
ATOM     37  C   UNL     1     -36.277 -71.161  49.968  0.00  0.00    +0.000 C 
ATOM     38  C   UNL     1     -34.071 -71.396  50.797  0.00  0.00    +0.000 C 
ENDBRANCH  31  32
ENDBRANCH  25  31
ENDBRANCH  23  30
ENDBRANCH   1  22
TORSDOF 6
ENDMDL
MODEL 4
REMARK VINA RESULT:      -7.6     20.575     23.265
REMARK  Name = 10074640_Masitinib.pdbqt.pdb
REMARK  6 active torsions:
REMARK  status: ('A' for Active; 'I' for Inactive)
REMARK    1  A    between atoms: C_1  and  N_22
REMARK    2  A    between atoms: C_2  and  N_9
REMARK    3  A    between atoms: C_12  and  C_16
REMARK    4  A    between atoms: C_23  and  C_30
REMARK    5  A    between atoms: C_25  and  C_31
REMARK    6  A    between atoms: C_31  and  N_32
REMARK                            x       y       z     vdW  Elec       q    Type
REMARK                         _______ _______ _______ _____ _____    ______ ____
ROOT
ATOM      1  C   UNL     1     -45.324 -59.586  35.916  0.00  0.00    +0.000 A 
ATOM      2  C   UNL     1     -46.126 -61.725  36.801  0.00  0.00    +0.000 A 
ATOM      3  C   UNL     1     -45.085 -60.857  36.443  0.00  0.00    +0.000 A 
ATOM      4  C   UNL     1     -47.443 -61.264  36.606  0.00  0.00    +0.000 A 
ATOM      5  C   UNL     1     -46.638 -59.152  35.759  0.00  0.00    +0.000 A 
ATOM      6  C   UNL     1     -47.697 -59.992  36.094  0.00  0.00    +0.000 A 
ATOM      7  C   UNL     1     -48.627 -62.143  36.955  0.00  0.00    +0.000 C 
ENDROOT
BRANCH   2   9
ATOM      8  S   UNL     1     -45.371 -64.899  39.177  0.00  0.00    +0.000 S 
ATOM      9  N   UNL     1     -45.878 -62.995  37.374  0.00  0.00    +0.000 N 
ATOM     10  N   UNL     1     -46.116 -62.497  39.688  0.00  0.00    +0.000 NA
ATOM     11  C   UNL     1     -45.825 -63.301  38.690  0.00  0.00    +0.000 A 
ATOM     12  C   UNL     1     -45.948 -63.130  40.905  0.00  0.00    +0.000 A 
ATOM     13  C   UNL     1     -45.543 -64.439  40.801  0.00  0.00    +0.000 A 
ATOM     14  H   UNL     1     -45.750 -63.735  36.688  0.00  0.00    +0.000 HD
BRANCH  12  16
ATOM     15  N   UNL     1     -45.890 -62.385  44.563  0.00  0.00    +0.000 NA
ATOM     16  C   UNL     1     -46.198 -62.456  42.159  0.00  0.00    +0.000 A 
ATOM     17  C   UNL     1     -46.908 -61.260  42.222  0.00  0.00    +0.000 A 
ATOM     18  C   UNL     1     -45.720 -62.975  43.354  0.00  0.00    +0.000 A 
ATOM     19  C   UNL     1     -47.116 -60.629  43.444  0.00  0.00    +0.000 A 
ATOM     20  C   UNL     1     -46.588 -61.230  44.574  0.00  0.00    +0.000 A 
ENDBRANCH  12  16
ENDBRANCH   2   9
BRANCH   1  22
ATOM     21  O   UNL     1     -42.947 -58.898  37.437  0.00  0.00    +0.000 OA
ATOM     22  N   UNL     1     -44.288 -58.702  35.554  0.00  0.00    +0.000 N 
ATOM     23  C   UNL     1     -43.201 -58.384  36.355  0.00  0.00    +0.000 C 
ATOM     24  H   UNL     1     -44.347 -58.303  34.624  0.00  0.00    +0.000 HD
BRANCH  23  30
ATOM     25  C   UNL     1     -40.601 -55.370  34.812  0.00  0.00    +0.000 A 
ATOM     26  C   UNL     1     -40.119 -56.667  34.969  0.00  0.00    +0.000 A 
ATOM     27  C   UNL     1     -41.913 -55.061  35.157  0.00  0.00    +0.000 A 
ATOM     28  C   UNL     1     -40.955 -57.660  35.475  0.00  0.00    +0.000 A 
ATOM     29  C   UNL     1     -42.747 -56.054  35.664  0.00  0.00    +0.000 A 
ATOM     30  C   UNL     1     -42.271 -57.358  35.826  0.00  0.00    +0.000 A 
BRANCH  25  31
ATOM     31  C   UNL     1     -39.746 -54.353  34.293  0.00  0.00    +0.000 C 
BRANCH  31  32
ATOM     32  N   UNL     1     -38.874 -53.313  33.761  0.00  0.00    +0.000 N 
ATOM     33  N   UNL     1     -38.256 -53.479  30.269  0.00  0.00    +0.000 N 
ATOM     34  C   UNL     1     -37.818 -54.000  32.965  0.00  0.00    +0.000 C 
ATOM     35  C   UNL     1     -39.579 -52.715  32.593  0.00  0.00    +0.000 C 
ATOM     36  C   UNL     1     -37.543 -54.065  31.436  0.00  0.00    +0.000 C 
ATOM     37  C   UNL     1     -39.303 -52.781  31.063  0.00  0.00    +0.000 C 
ATOM     38  C   UNL     1     -37.388 -52.452  29.710  0.00  0.00    +0.000 C 
ENDBRANCH  31  32
ENDBRANCH  25  31
ENDBRANCH  23  30
ENDBRANCH   1  22
TORSDOF 6
ENDMDL
MODEL 5
REMARK VINA RESULT:      -7.6     23.443     26.874
REMARK  Name = 10074640_Masitinib.pdbqt.pdb
REMARK  6 active torsions:
REMARK  status: ('A' for Active; 'I' for Inactive)
REMARK    1  A    between atoms: C_1  and  N_22
REMARK    2  A    between atoms: C_2  and  N_9
REMARK    3  A    between atoms: C_12  and  C_16
REMARK    4  A    between atoms: C_23  and  C_30
REMARK    5  A    between atoms: C_25  and  C_31
REMARK    6  A    between atoms: C_31  and  N_32
REMARK                            x       y       z     vdW  Elec       q    Type
REMARK                         _______ _______ _______ _____ _____    ______ ____
ROOT
ATOM      1  C   UNL     1     -44.900 -62.106  36.979  0.00  0.00    +0.000 A 
ATOM      2  C   UNL     1     -44.625 -64.539  37.039  0.00  0.00    +0.000 A 
ATOM      3  C   UNL     1     -44.292 -63.278  36.526  0.00  0.00    +0.000 A 
ATOM      4  C   UNL     1     -45.611 -64.583  38.044  0.00  0.00    +0.000 A 
ATOM      5  C   UNL     1     -45.854 -62.183  37.991  0.00  0.00    +0.000 A 
ATOM      6  C   UNL     1     -46.218 -63.419  38.517  0.00  0.00    +0.000 A 
ATOM      7  C   UNL     1     -46.039 -65.906  38.647  0.00  0.00    +0.000 C 
ENDROOT
BRANCH   2   9
ATOM      8  S   UNL     1     -43.489 -68.016  35.335  0.00  0.00    +0.000 S 
ATOM      9  N   UNL     1     -43.975 -65.719  36.607  0.00  0.00    +0.000 N 
ATOM     10  N   UNL     1     -45.347 -66.341  34.767  0.00  0.00    +0.000 NA
ATOM     11  C   UNL     1     -44.359 -66.545  35.609  0.00  0.00    +0.000 A 
ATOM     12  C   UNL     1     -45.471 -67.390  33.877  0.00  0.00    +0.000 A 
ATOM     13  C   UNL     1     -44.538 -68.383  34.052  0.00  0.00    +0.000 A 
ATOM     14  H   UNL     1     -43.118 -65.924  37.117  0.00  0.00    +0.000 HD
BRANCH  12  16
ATOM     15  N   UNL     1     -47.601 -66.262  31.025  0.00  0.00    +0.000 NA
ATOM     16  C   UNL     1     -46.490 -67.407  32.851  0.00  0.00    +0.000 A 
ATOM     17  C   UNL     1     -47.300 -68.519  32.637  0.00  0.00    +0.000 A 
ATOM     18  C   UNL     1     -46.686 -66.309  32.026  0.00  0.00    +0.000 A 
ATOM     19  C   UNL     1     -48.259 -68.506  31.630  0.00  0.00    +0.000 A 
ATOM     20  C   UNL     1     -48.366 -67.362  30.859  0.00  0.00    +0.000 A 
ENDBRANCH  12  16
ENDBRANCH   2   9
BRANCH   1  22
ATOM     21  O   UNL     1     -42.768 -60.331  37.842  0.00  0.00    +0.000 OA
ATOM     22  N   UNL     1     -44.575 -60.831  36.473  0.00  0.00    +0.000 N 
ATOM     23  C   UNL     1     -43.567 -60.016  36.968  0.00  0.00    +0.000 C 
ATOM     24  H   UNL     1     -45.110 -60.520  35.670  0.00  0.00    +0.000 HD
BRANCH  23  30
ATOM     25  C   UNL     1     -43.136 -56.133  35.246  0.00  0.00    +0.000 A 
ATOM     26  C   UNL     1     -44.409 -56.686  35.365  0.00  0.00    +0.000 A 
ATOM     27  C   UNL     1     -42.019 -56.841  35.679  0.00  0.00    +0.000 A 
ATOM     28  C   UNL     1     -44.564 -57.953  35.922  0.00  0.00    +0.000 A 
ATOM     29  C   UNL     1     -42.176 -58.108  36.235  0.00  0.00    +0.000 A 
ATOM     30  C   UNL     1     -43.449 -58.670  36.357  0.00  0.00    +0.000 A 
BRANCH  25  31
ATOM     31  C   UNL     1     -42.976 -54.835  34.677  0.00  0.00    +0.000 C 
BRANCH  31  32
ATOM     32  N   UNL     1     -42.810 -53.508  34.098  0.00  0.00    +0.000 N 
ATOM     33  N   UNL     1     -45.817 -51.863  33.169  0.00  0.00    +0.000 N 
ATOM     34  C   UNL     1     -43.588 -53.491  32.828  0.00  0.00    +0.000 C 
ATOM     35  C   UNL     1     -43.720 -52.594  34.844  0.00  0.00    +0.000 C 
ATOM     36  C   UNL     1     -44.901 -52.764  32.418  0.00  0.00    +0.000 C 
ATOM     37  C   UNL     1     -45.033 -51.867  34.435  0.00  0.00    +0.000 C 
ATOM     38  C   UNL     1     -45.680 -50.535  32.588  0.00  0.00    +0.000 C 
ENDBRANCH  31  32
ENDBRANCH  25  31
ENDBRANCH  23  30
ENDBRANCH   1  22
TORSDOF 6
ENDMDL
MODEL 6
REMARK VINA RESULT:      -7.5     23.896     27.278
REMARK  Name = 10074640_Masitinib.pdbqt.pdb
REMARK  6 active torsions:
REMARK  status: ('A' for Active; 'I' for Inactive)
REMARK    1  A    between atoms: C_1  and  N_22
REMARK    2  A    between atoms: C_2  and  N_9
REMARK    3  A    between atoms: C_12  and  C_16
REMARK    4  A    between atoms: C_23  and  C_30
REMARK    5  A    between atoms: C_25  and  C_31
REMARK    6  A    between atoms: C_31  and  N_32
REMARK                            x       y       z     vdW  Elec       q    Type
REMARK                         _______ _______ _______ _____ _____    ______ ____
ROOT
ATOM      1  C   UNL     1     -45.280 -63.330  37.282  0.00  0.00    +0.000 A 
ATOM      2  C   UNL     1     -44.815 -65.732  37.173  0.00  0.00    +0.000 A 
ATOM      3  C   UNL     1     -44.600 -64.419  36.735  0.00  0.00    +0.000 A 
ATOM      4  C   UNL     1     -45.760 -65.919  38.202  0.00  0.00    +0.000 A 
ATOM      5  C   UNL     1     -46.190 -63.547  38.314  0.00  0.00    +0.000 A 
ATOM      6  C   UNL     1     -46.438 -64.840  38.768  0.00  0.00    +0.000 A 
ATOM      7  C   UNL     1     -46.063 -67.308  38.727  0.00  0.00    +0.000 C 
ENDROOT
BRANCH   2   9
ATOM      8  S   UNL     1     -43.424 -68.919  35.124  0.00  0.00    +0.000 S 
ATOM      9  N   UNL     1     -44.091 -66.827  36.644  0.00  0.00    +0.000 N 
ATOM     10  N   UNL     1     -45.289 -67.228  34.629  0.00  0.00    +0.000 NA
ATOM     11  C   UNL     1     -44.365 -67.520  35.517  0.00  0.00    +0.000 A 
ATOM     12  C   UNL     1     -45.304 -68.151  33.600  0.00  0.00    +0.000 A 
ATOM     13  C   UNL     1     -44.353 -69.135  33.721  0.00  0.00    +0.000 A 
ATOM     14  H   UNL     1     -43.271 -67.078  37.193  0.00  0.00    +0.000 HD
BRANCH  12  16
ATOM     15  N   UNL     1     -46.679 -67.341  30.224  0.00  0.00    +0.000 NA
ATOM     16  C   UNL     1     -46.236 -68.054  32.500  0.00  0.00    +0.000 A 
ATOM     17  C   UNL     1     -47.524 -68.578  32.578  0.00  0.00    +0.000 A 
ATOM     18  C   UNL     1     -45.870 -67.443  31.309  0.00  0.00    +0.000 A 
ATOM     19  C   UNL     1     -48.389 -68.482  31.494  0.00  0.00    +0.000 A 
ATOM     20  C   UNL     1     -47.919 -67.859  30.350  0.00  0.00    +0.000 A 
ENDBRANCH  12  16
ENDBRANCH   2   9
BRANCH   1  22
ATOM     21  O   UNL     1     -43.041 -61.583  37.893  0.00  0.00    +0.000 OA
ATOM     22  N   UNL     1     -45.073 -62.004  36.852  0.00  0.00    +0.000 N 
ATOM     23  C   UNL     1     -43.997 -61.210  37.224  0.00  0.00    +0.000 C 
ATOM     24  H   UNL     1     -45.756 -61.633  36.202  0.00  0.00    +0.000 HD
BRANCH  23  30
ATOM     25  C   UNL     1     -43.976 -57.153  35.893  0.00  0.00    +0.000 A 
ATOM     26  C   UNL     1     -45.042 -57.978  35.542  0.00  0.00    +0.000 A 
ATOM     27  C   UNL     1     -42.929 -57.649  36.664  0.00  0.00    +0.000 A 
ATOM     28  C   UNL     1     -45.061 -59.305  35.967  0.00  0.00    +0.000 A 
ATOM     29  C   UNL     1     -42.948 -58.975  37.087  0.00  0.00    +0.000 A 
ATOM     30  C   UNL     1     -44.014 -59.809  36.738  0.00  0.00    +0.000 A 
BRANCH  25  31
ATOM     31  C   UNL     1     -43.957 -55.795  35.460  0.00  0.00    +0.000 C 
BRANCH  31  32
ATOM     32  N   UNL     1     -43.940 -54.405  35.019  0.00  0.00    +0.000 N 
ATOM     33  N   UNL     1     -41.226 -53.506  32.914  0.00  0.00    +0.000 N 
ATOM     34  C   UNL     1     -42.581 -53.875  35.315  0.00  0.00    +0.000 C 
ATOM     35  C   UNL     1     -43.776 -54.424  33.538  0.00  0.00    +0.000 C 
ATOM     36  C   UNL     1     -41.395 -53.473  34.393  0.00  0.00    +0.000 C 
ATOM     37  C   UNL     1     -42.590 -54.023  32.616  0.00  0.00    +0.000 C 
ATOM     38  C   UNL     1     -41.185 -52.124  32.458  0.00  0.00    +0.000 C 
ENDBRANCH  31  32
ENDBRANCH  25  31
ENDBRANCH  23  30
ENDBRANCH   1  22
TORSDOF 6
ENDMDL
MODEL 7
REMARK VINA RESULT:      -7.4     20.734     24.056
REMARK  Name = 10074640_Masitinib.pdbqt.pdb
REMARK  6 active torsions:
REMARK  status: ('A' for Active; 'I' for Inactive)
REMARK    1  A    between atoms: C_1  and  N_22
REMARK    2  A    between atoms: C_2  and  N_9
REMARK    3  A    between atoms: C_12  and  C_16
REMARK    4  A    between atoms: C_23  and  C_30
REMARK    5  A    between atoms: C_25  and  C_31
REMARK    6  A    between atoms: C_31  and  N_32
REMARK                            x       y       z     vdW  Elec       q    Type
REMARK                         _______ _______ _______ _____ _____    ______ ____
ROOT
ATOM      1  C   UNL     1     -45.844 -59.447  35.740  0.00  0.00    +0.000 A 
ATOM      2  C   UNL     1     -45.598 -61.547  36.977  0.00  0.00    +0.000 A 
ATOM      3  C   UNL     1     -45.050 -60.419  36.352  0.00  0.00    +0.000 A 
ATOM      4  C   UNL     1     -47.001 -61.669  36.967  0.00  0.00    +0.000 A 
ATOM      5  C   UNL     1     -47.230 -59.586  35.769  0.00  0.00    +0.000 A 
ATOM      6  C   UNL     1     -47.809 -60.699  36.372  0.00  0.00    +0.000 A 
ATOM      7  C   UNL     1     -47.676 -62.863  37.611  0.00  0.00    +0.000 C 
ENDROOT
BRANCH   2   9
ATOM      8  S   UNL     1     -43.533 -63.858  39.563  0.00  0.00    +0.000 S 
ATOM      9  N   UNL     1     -44.790 -62.507  37.633  0.00  0.00    +0.000 N 
ATOM     10  N   UNL     1     -45.419 -62.151  39.899  0.00  0.00    +0.000 NA
ATOM     11  C   UNL     1     -44.690 -62.718  38.964  0.00  0.00    +0.000 A 
ATOM     12  C   UNL     1     -45.048 -62.588  41.156  0.00  0.00    +0.000 A 
ATOM     13  C   UNL     1     -44.035 -63.516  41.148  0.00  0.00    +0.000 A 
ATOM     14  H   UNL     1     -44.257 -63.095  36.996  0.00  0.00    +0.000 HD
BRANCH  12  16
ATOM     15  N   UNL     1     -46.157 -62.409  44.717  0.00  0.00    +0.000 NA
ATOM     16  C   UNL     1     -45.697 -62.107  42.356  0.00  0.00    +0.000 A 
ATOM     17  C   UNL     1     -46.425 -60.921  42.373  0.00  0.00    +0.000 A 
ATOM     18  C   UNL     1     -45.601 -62.812  43.547  0.00  0.00    +0.000 A 
ATOM     19  C   UNL     1     -47.022 -60.479  43.548  0.00  0.00    +0.000 A 
ATOM     20  C   UNL     1     -46.857 -61.255  44.683  0.00  0.00    +0.000 A 
ENDBRANCH  12  16
ENDBRANCH   2   9
BRANCH   1  22
ATOM     21  O   UNL     1     -43.743 -57.690  36.709  0.00  0.00    +0.000 OA
ATOM     22  N   UNL     1     -45.307 -58.308  35.109  0.00  0.00    +0.000 N 
ATOM     23  C   UNL     1     -44.333 -57.485  35.655  0.00  0.00    +0.000 C 
ATOM     24  H   UNL     1     -45.652 -58.110  34.176  0.00  0.00    +0.000 HD
BRANCH  23  30
ATOM     25  C   UNL     1     -43.348 -53.961  33.454  0.00  0.00    +0.000 A 
ATOM     26  C   UNL     1     -43.160 -55.208  32.860  0.00  0.00    +0.000 A 
ATOM     27  C   UNL     1     -43.846 -53.868  34.750  0.00  0.00    +0.000 A 
ATOM     28  C   UNL     1     -43.474 -56.366  33.568  0.00  0.00    +0.000 A 
ATOM     29  C   UNL     1     -44.158 -55.027  35.456  0.00  0.00    +0.000 A 
ATOM     30  C   UNL     1     -43.972 -56.280  34.868  0.00  0.00    +0.000 A 
BRANCH  25  31
ATOM     31  C   UNL     1     -43.028 -52.775  32.729  0.00  0.00    +0.000 C 
BRANCH  31  32
ATOM     32  N   UNL     1     -42.704 -51.562  31.989  0.00  0.00    +0.000 N 
ATOM     33  N   UNL     1     -44.330 -51.206  28.853  0.00  0.00    +0.000 N 
ATOM     34  C   UNL     1     -42.322 -51.984  30.613  0.00  0.00    +0.000 C 
ATOM     35  C   UNL     1     -43.998 -50.934  31.601  0.00  0.00    +0.000 C 
ATOM     36  C   UNL     1     -43.030 -51.821  29.238  0.00  0.00    +0.000 C 
ATOM     37  C   UNL     1     -44.706 -50.771  30.226  0.00  0.00    +0.000 C 
ATOM     38  C   UNL     1     -44.024 -50.003  28.093  0.00  0.00    +0.000 C 
ENDBRANCH  31  32
ENDBRANCH  25  31
ENDBRANCH  23  30
ENDBRANCH   1  22
TORSDOF 6
ENDMDL
MODEL 8
REMARK VINA RESULT:      -7.3     20.712     24.103
REMARK  Name = 10074640_Masitinib.pdbqt.pdb
REMARK  6 active torsions:
REMARK  status: ('A' for Active; 'I' for Inactive)
REMARK    1  A    between atoms: C_1  and  N_22
REMARK    2  A    between atoms: C_2  and  N_9
REMARK    3  A    between atoms: C_12  and  C_16
REMARK    4  A    between atoms: C_23  and  C_30
REMARK    5  A    between atoms: C_25  and  C_31
REMARK    6  A    between atoms: C_31  and  N_32
REMARK                            x       y       z     vdW  Elec       q    Type
REMARK                         _______ _______ _______ _____ _____    ______ ____
ROOT
ATOM      1  C   UNL     1     -41.061 -60.855  36.675  0.00  0.00    +0.000 A 
ATOM      2  C   UNL     1     -41.595 -62.964  37.800  0.00  0.00    +0.000 A 
ATOM      3  C   UNL     1     -41.912 -61.644  37.450  0.00  0.00    +0.000 A 
ATOM      4  C   UNL     1     -40.367 -63.474  37.336  0.00  0.00    +0.000 A 
ATOM      5  C   UNL     1     -39.864 -61.398  36.212  0.00  0.00    +0.000 A 
ATOM      6  C   UNL     1     -39.512 -62.702  36.549  0.00  0.00    +0.000 A 
ATOM      7  C   UNL     1     -39.940 -64.888  37.678  0.00  0.00    +0.000 C 
ENDROOT
BRANCH   2   9
ATOM      8  S   UNL     1     -44.717 -64.701  39.677  0.00  0.00    +0.000 S 
ATOM      9  N   UNL     1     -42.481 -63.774  38.550  0.00  0.00    +0.000 N 
ATOM     10  N   UNL     1     -44.584 -62.932  37.823  0.00  0.00    +0.000 NA
ATOM     11  C   UNL     1     -43.830 -63.698  38.581  0.00  0.00    +0.000 A 
ATOM     12  C   UNL     1     -45.923 -63.097  38.122  0.00  0.00    +0.000 A 
ATOM     13  C   UNL     1     -46.164 -64.021  39.110  0.00  0.00    +0.000 A 
ATOM     14  H   UNL     1     -42.012 -64.492  39.097  0.00  0.00    +0.000 HD
BRANCH  12  16
ATOM     15  N   UNL     1     -47.703 -61.261  35.401  0.00  0.00    +0.000 NA
ATOM     16  C   UNL     1     -46.957 -62.360  37.430  0.00  0.00    +0.000 A 
ATOM     17  C   UNL     1     -48.179 -62.068  38.029  0.00  0.00    +0.000 A 
ATOM     18  C   UNL     1     -46.770 -61.930  36.124  0.00  0.00    +0.000 A 
ATOM     19  C   UNL     1     -49.157 -61.373  37.328  0.00  0.00    +0.000 A 
ATOM     20  C   UNL     1     -48.869 -60.996  36.027  0.00  0.00    +0.000 A 
ENDBRANCH  12  16
ENDBRANCH   2   9
BRANCH   1  22
ATOM     21  O   UNL     1     -43.228 -59.189  37.660  0.00  0.00    +0.000 OA
ATOM     22  N   UNL     1     -41.367 -59.527  36.315  0.00  0.00    +0.000 N 
ATOM     23  C   UNL     1     -42.451 -58.806  36.793  0.00  0.00    +0.000 C 
ATOM     24  H   UNL     1     -40.718 -59.076  35.680  0.00  0.00    +0.000 HD
BRANCH  23  30
ATOM     25  C   UNL     1     -42.928 -54.908  35.118  0.00  0.00    +0.000 A 
ATOM     26  C   UNL     1     -43.980 -55.473  35.835  0.00  0.00    +0.000 A 
ATOM     27  C   UNL     1     -41.737 -55.609  34.947  0.00  0.00    +0.000 A 
ATOM     28  C   UNL     1     -43.840 -56.746  36.384  0.00  0.00    +0.000 A 
ATOM     29  C   UNL     1     -41.599 -56.882  35.496  0.00  0.00    +0.000 A 
ATOM     30  C   UNL     1     -42.651 -57.455  36.215  0.00  0.00    +0.000 A 
BRANCH  25  31
ATOM     31  C   UNL     1     -43.070 -53.605  34.557  0.00  0.00    +0.000 C 
BRANCH  31  32
ATOM     32  N   UNL     1     -43.218 -52.273  33.983  0.00  0.00    +0.000 N 
ATOM     33  N   UNL     1     -46.513 -51.395  32.994  0.00  0.00    +0.000 N 
ATOM     34  C   UNL     1     -43.951 -52.436  32.697  0.00  0.00    +0.000 C 
ATOM     35  C   UNL     1     -44.336 -51.611  34.712  0.00  0.00    +0.000 C 
ATOM     36  C   UNL     1     -45.392 -52.043  32.261  0.00  0.00    +0.000 C 
ATOM     37  C   UNL     1     -45.777 -51.219  34.276  0.00  0.00    +0.000 C 
ATOM     38  C   UNL     1     -46.690 -50.070  32.418  0.00  0.00    +0.000 C 
ENDBRANCH  31  32
ENDBRANCH  25  31
ENDBRANCH  23  30
ENDBRANCH   1  22
TORSDOF 6
ENDMDL
MODEL 9
REMARK VINA RESULT:      -7.1      5.930     13.621
REMARK  Name = 10074640_Masitinib.pdbqt.pdb
REMARK  6 active torsions:
REMARK  status: ('A' for Active; 'I' for Inactive)
REMARK    1  A    between atoms: C_1  and  N_22
REMARK    2  A    between atoms: C_2  and  N_9
REMARK    3  A    between atoms: C_12  and  C_16
REMARK    4  A    between atoms: C_23  and  C_30
REMARK    5  A    between atoms: C_25  and  C_31
REMARK    6  A    between atoms: C_31  and  N_32
REMARK                            x       y       z     vdW  Elec       q    Type
REMARK                         _______ _______ _______ _____ _____    ______ ____
ROOT
ATOM      1  C   UNL     1     -41.648 -41.232  48.229  0.00  0.00    +0.000 A 
ATOM      2  C   UNL     1     -39.615 -42.581  48.015  0.00  0.00    +0.000 A 
ATOM      3  C   UNL     1     -40.707 -42.116  48.760  0.00  0.00    +0.000 A 
ATOM      4  C   UNL     1     -39.498 -42.118  46.690  0.00  0.00    +0.000 A 
ATOM      5  C   UNL     1     -41.516 -40.812  46.907  0.00  0.00    +0.000 A 
ATOM      6  C   UNL     1     -40.438 -41.246  46.141  0.00  0.00    +0.000 A 
ATOM      7  C   UNL     1     -38.341 -42.562  45.817  0.00  0.00    +0.000 C 
ENDROOT
BRANCH   2   9
ATOM      8  S   UNL     1     -36.550 -44.520  49.787  0.00  0.00    +0.000 S 
ATOM      9  N   UNL     1     -38.688 -43.510  48.544  0.00  0.00    +0.000 N 
ATOM     10  N   UNL     1     -37.372 -42.093  49.930  0.00  0.00    +0.000 NA
ATOM     11  C   UNL     1     -37.647 -43.249  49.366  0.00  0.00    +0.000 A 
ATOM     12  C   UNL     1     -36.231 -42.174  50.705  0.00  0.00    +0.000 A 
ATOM     13  C   UNL     1     -35.662 -43.424  50.731  0.00  0.00    +0.000 A 
ATOM     14  H   UNL     1     -38.870 -44.472  48.267  0.00  0.00    +0.000 HD
BRANCH  12  16
ATOM     15  N   UNL     1     -33.911 -40.047  52.713  0.00  0.00    +0.000 NA
ATOM     16  C   UNL     1     -35.714 -41.033  51.426  0.00  0.00    +0.000 A 
ATOM     17  C   UNL     1     -36.423 -39.838  51.518  0.00  0.00    +0.000 A 
ATOM     18  C   UNL     1     -34.473 -41.085  52.044  0.00  0.00    +0.000 A 
ATOM     19  C   UNL     1     -35.888 -38.754  52.206  0.00  0.00    +0.000 A 
ATOM     20  C   UNL     1     -34.638 -38.912  52.779  0.00  0.00    +0.000 A 
ENDBRANCH  12  16
ENDBRANCH   2   9
BRANCH   1  22
ATOM     21  O   UNL     1     -41.780 -38.890  49.942  0.00  0.00    +0.000 OA
ATOM     22  N   UNL     1     -42.752 -40.757  48.966  0.00  0.00    +0.000 N 
ATOM     23  C   UNL     1     -42.728 -39.653  49.804  0.00  0.00    +0.000 C 
ATOM     24  H   UNL     1     -43.624 -41.258  48.836  0.00  0.00    +0.000 HD
BRANCH  23  30
ATOM     25  C   UNL     1     -46.325 -38.777  51.933  0.00  0.00    +0.000 A 
ATOM     26  C   UNL     1     -45.379 -39.618  52.514  0.00  0.00    +0.000 A 
ATOM     27  C   UNL     1     -46.100 -38.232  50.672  0.00  0.00    +0.000 A 
ATOM     28  C   UNL     1     -44.202 -39.916  51.829  0.00  0.00    +0.000 A 
ATOM     29  C   UNL     1     -44.924 -38.532  49.988  0.00  0.00    +0.000 A 
ATOM     30  C   UNL     1     -43.971 -39.376  50.564  0.00  0.00    +0.000 A 
BRANCH  25  31
ATOM     31  C   UNL     1     -47.528 -38.471  52.634  0.00  0.00    +0.000 C 
BRANCH  31  32
ATOM     32  N   UNL     1     -48.759 -38.157  53.348  0.00  0.00    +0.000 N 
ATOM     33  N   UNL     1     -51.349 -36.740  51.375  0.00  0.00    +0.000 N 
ATOM     34  C   UNL     1     -49.103 -36.746  53.016  0.00  0.00    +0.000 C 
ATOM     35  C   UNL     1     -49.876 -38.771  52.576  0.00  0.00    +0.000 C 
ATOM     36  C   UNL     1     -50.243 -36.125  52.159  0.00  0.00    +0.000 C 
ATOM     37  C   UNL     1     -51.015 -38.150  51.718  0.00  0.00    +0.000 C 
ATOM     38  C   UNL     1     -52.590 -36.416  52.064  0.00  0.00    +0.000 C 
ENDBRANCH  31  32
ENDBRANCH  25  31
ENDBRANCH  23  30
ENDBRANCH   1  22
TORSDOF 6
ENDMDL
