MODEL 1
REMARK VINA RESULT:      -7.6      0.000      0.000
REMARK  Name = 101808841_CandidaspongiolideA.pdbqt.pdb
REMARK  13 active torsions:
REMARK  status: ('A' for Active; 'I' for Inactive)
REMARK    1  A    between atoms: C_6  and  C_39
REMARK    2  A    between atoms: C_9  and  O_27
REMARK    3  A    between atoms: C_9  and  C_51
REMARK    4  A    between atoms: C_10  and  O_29
REMARK    5  A    between atoms: C_14  and  O_31
REMARK    6  A    between atoms: C_15  and  O_33
REMARK    7  A    between atoms: C_20  and  O_35
REMARK    8  A    between atoms: O_35  and  C_37
REMARK    9  A    between atoms: C_39  and  C_41
REMARK   10  A    between atoms: C_39  and  O_49
REMARK   11  A    between atoms: C_42  and  C_44
REMARK   12  A    between atoms: C_44  and  C_46
REMARK   13  A    between atoms: C_51  and  O_52
REMARK                            x       y       z     vdW  Elec       q    Type
REMARK                         _______ _______ _______ _____ _____    ______ ____
ROOT
ATOM      1  O   UNL     1     -45.583 -62.826  36.333  0.00  0.00    +0.000 OA
ATOM      2  O   UNL     1     -42.219 -63.373  38.715  0.00  0.00    +0.000 OA
ATOM      3  O   UNL     1     -46.117 -60.792  37.282  0.00  0.00    +0.000 OA
ATOM      4  O   UNL     1     -43.933 -69.520  37.050  0.00  0.00    +0.000 OA
ATOM      5  O   UNL     1     -45.212 -64.706  34.231  0.00  0.00    +0.000 OA
ATOM      6  C   UNL     1     -44.534 -63.807  38.681  0.00  0.00    +0.000 C 
ATOM      7  C   UNL     1     -43.100 -64.230  38.621  0.00  0.00    +0.000 C 
ATOM      8  C   UNL     1     -45.114 -63.290  37.489  0.00  0.00    +0.000 C 
ATOM      9  C   UNL     1     -42.842 -65.736  38.344  0.00  0.00    +0.000 C 
ATOM     10  C   UNL     1     -43.112 -66.065  36.885  0.00  0.00    +0.000 C 
ATOM     11  C   UNL     1     -43.584 -67.340  36.456  0.00  0.00    +0.000 C 
ATOM     12  C   UNL     1     -45.970 -61.529  36.316  0.00  0.00    +0.000 C 
ATOM     13  C   UNL     1     -44.059 -68.682  36.164  0.00  0.00    +0.000 C 
ATOM     14  C   UNL     1     -46.160 -61.046  34.929  0.00  0.00    +0.000 C 
ATOM     15  C   UNL     1     -46.098 -61.882  33.748  0.00  0.00    +0.000 C 
ATOM     16  C   UNL     1     -44.668 -68.991  34.829  0.00  0.00    +0.000 C 
ATOM     17  C   UNL     1     -46.835 -63.119  33.521  0.00  0.00    +0.000 C 
ATOM     18  C   UNL     1     -46.403 -65.281  32.234  0.00  0.00    +0.000 C 
ATOM     19  C   UNL     1     -46.055 -64.389  33.390  0.00  0.00    +0.000 C 
ATOM     20  C   UNL     1     -45.948 -66.673  32.249  0.00  0.00    +0.000 C 
ATOM     21  C   UNL     1     -44.707 -68.038  33.780  0.00  0.00    +0.000 C 
ATOM     22  C   UNL     1     -44.717 -67.157  32.831  0.00  0.00    +0.000 C 
ATOM     23  C   UNL     1     -45.274 -70.336  34.487  0.00  0.00    +0.000 C 
ATOM     24  C   UNL     1     -48.255 -63.240  34.075  0.00  0.00    +0.000 C 
ATOM     25  C   UNL     1     -47.129 -64.728  31.013  0.00  0.00    +0.000 C 
ATOM     26  C   UNL     1     -43.382 -66.542  32.496  0.00  0.00    +0.000 C 
ENDROOT
BRANCH   9  27
ATOM     27  O   UNL     1     -43.723 -66.518  39.151  0.00  0.00    +0.000 OA
ATOM     28  H   UNL     1     -44.031 -65.944  39.876  0.00  0.00    +0.000 HD
ENDBRANCH   9  27
BRANCH  10  29
ATOM     29  O   UNL     1     -42.860 -65.091  35.939  0.00  0.00    +0.000 OA
ATOM     30  H   UNL     1     -41.994 -65.183  35.498  0.00  0.00    +0.000 HD
ENDBRANCH  10  29
BRANCH  14  31
ATOM     31  O   UNL     1     -46.361 -59.693  34.717  0.00  0.00    +0.000 OA
ATOM     32  H   UNL     1     -47.266 -59.431  34.991  0.00  0.00    +0.000 HD
ENDBRANCH  14  31
BRANCH  15  33
ATOM     33  O   UNL     1     -45.709 -61.210  32.601  0.00  0.00    +0.000 OA
ATOM     34  C   UNL     1     -44.324 -61.333  32.410  0.00  0.00    +0.000 C 
ENDBRANCH  15  33
BRANCH  20  35
ATOM     35  O   UNL     1     -46.539 -67.593  31.341  0.00  0.00    +0.000 OA
BRANCH  35  37
ATOM     36  O   UNL     1     -47.824 -68.963  32.725  0.00  0.00    +0.000 OA
ATOM     37  C   UNL     1     -47.671 -68.184  31.804  0.00  0.00    +0.000 C 
ATOM     38  C   UNL     1     -48.895 -67.865  31.030  0.00  0.00    +0.000 C 
ENDBRANCH  35  37
ENDBRANCH  20  35
BRANCH   6  39
ATOM     39  C   UNL     1     -45.256 -63.829  39.937  0.00  0.00    +0.000 C 
BRANCH  39  41
ATOM     40  O   UNL     1     -46.786 -61.993  40.826  0.00  0.00    +0.000 OA
ATOM     41  C   UNL     1     -45.469 -62.589  40.737  0.00  0.00    +0.000 C 
ATOM     42  C   UNL     1     -46.366 -62.755  41.877  0.00  0.00    +0.000 C 
ATOM     43  C   UNL     1     -44.412 -61.439  40.602  0.00  0.00    +0.000 C 
BRANCH  42  44
ATOM     44  C   UNL     1     -46.123 -62.119  43.141  0.00  0.00    +0.000 C 
ATOM     45  C   UNL     1     -46.890 -60.878  43.521  0.00  0.00    +0.000 C 
BRANCH  44  46
ATOM     46  C   UNL     1     -45.629 -62.902  44.218  0.00  0.00    +0.000 C 
ATOM     47  C   UNL     1     -45.138 -63.598  45.062  0.00  0.00    +0.000 C 
ATOM     48  C   UNL     1     -44.432 -64.552  46.037  0.00  0.00    +0.000 C 
ENDBRANCH  44  46
ENDBRANCH  42  44
ENDBRANCH  39  41
BRANCH  39  49
ATOM     49  O   UNL     1     -46.010 -64.972  40.158  0.00  0.00    +0.000 OA
ATOM     50  H   UNL     1     -46.665 -64.856  40.874  0.00  0.00    +0.000 HD
ENDBRANCH  39  49
ENDBRANCH   6  39
BRANCH   9  51
ATOM     51  C   UNL     1     -41.442 -66.098  38.668  0.00  0.00    +0.000 C 
BRANCH  51  52
ATOM     52  O   UNL     1     -40.176 -66.398  38.963  0.00  0.00    +0.000 OA
ATOM     53  H   UNL     1     -40.048 -66.436  39.929  0.00  0.00    +0.000 HD
ENDBRANCH  51  52
ENDBRANCH   9  51
TORSDOF 13
ENDMDL
MODEL 2
REMARK VINA RESULT:      -7.4      2.062      5.734
REMARK  Name = 101808841_CandidaspongiolideA.pdbqt.pdb
REMARK  13 active torsions:
REMARK  status: ('A' for Active; 'I' for Inactive)
REMARK    1  A    between atoms: C_6  and  C_39
REMARK    2  A    between atoms: C_9  and  O_27
REMARK    3  A    between atoms: C_9  and  C_51
REMARK    4  A    between atoms: C_10  and  O_29
REMARK    5  A    between atoms: C_14  and  O_31
REMARK    6  A    between atoms: C_15  and  O_33
REMARK    7  A    between atoms: C_20  and  O_35
REMARK    8  A    between atoms: O_35  and  C_37
REMARK    9  A    between atoms: C_39  and  C_41
REMARK   10  A    between atoms: C_39  and  O_49
REMARK   11  A    between atoms: C_42  and  C_44
REMARK   12  A    between atoms: C_44  and  C_46
REMARK   13  A    between atoms: C_51  and  O_52
REMARK                            x       y       z     vdW  Elec       q    Type
REMARK                         _______ _______ _______ _____ _____    ______ ____
ROOT
ATOM      1  O   UNL     1     -45.558 -65.495  36.598  0.00  0.00    +0.000 OA
ATOM      2  O   UNL     1     -48.348 -62.748  37.995  0.00  0.00    +0.000 OA
ATOM      3  O   UNL     1     -45.430 -66.624  38.605  0.00  0.00    +0.000 OA
ATOM      4  O   UNL     1     -45.385 -59.541  33.052  0.00  0.00    +0.000 OA
ATOM      5  O   UNL     1     -45.714 -65.210  33.771  0.00  0.00    +0.000 OA
ATOM      6  C   UNL     1     -46.022 -63.076  37.824  0.00  0.00    +0.000 C 
ATOM      7  C   UNL     1     -47.301 -62.395  37.449  0.00  0.00    +0.000 C 
ATOM      8  C   UNL     1     -45.745 -64.332  37.215  0.00  0.00    +0.000 C 
ATOM      9  C   UNL     1     -47.210 -61.346  36.307  0.00  0.00    +0.000 C 
ATOM     10  C   UNL     1     -47.054 -62.033  34.961  0.00  0.00    +0.000 C 
ATOM     11  C   UNL     1     -46.339 -61.450  33.875  0.00  0.00    +0.000 C 
ATOM     12  C   UNL     1     -45.511 -66.596  37.385  0.00  0.00    +0.000 C 
ATOM     13  C   UNL     1     -45.585 -60.735  32.857  0.00  0.00    +0.000 C 
ATOM     14  C   UNL     1     -45.626 -67.834  36.581  0.00  0.00    +0.000 C 
ATOM     15  C   UNL     1     -45.628 -67.881  35.133  0.00  0.00    +0.000 C 
ATOM     16  C   UNL     1     -45.094 -61.457  31.639  0.00  0.00    +0.000 C 
ATOM     17  C   UNL     1     -44.642 -67.280  34.244  0.00  0.00    +0.000 C 
ATOM     18  C   UNL     1     -44.683 -66.282  31.895  0.00  0.00    +0.000 C 
ATOM     19  C   UNL     1     -45.091 -66.179  33.335  0.00  0.00    +0.000 C 
ATOM     20  C   UNL     1     -44.771 -65.093  31.045  0.00  0.00    +0.000 C 
ATOM     21  C   UNL     1     -45.427 -62.811  31.379  0.00  0.00    +0.000 C 
ATOM     22  C   UNL     1     -45.758 -64.043  31.155  0.00  0.00    +0.000 C 
ATOM     23  C   UNL     1     -44.221 -60.807  30.587  0.00  0.00    +0.000 C 
ATOM     24  C   UNL     1     -43.177 -67.251  34.684  0.00  0.00    +0.000 C 
ATOM     25  C   UNL     1     -44.279 -67.623  31.292  0.00  0.00    +0.000 C 
ATOM     26  C   UNL     1     -47.236 -64.340  31.192  0.00  0.00    +0.000 C 
ENDROOT
BRANCH   9  27
ATOM     27  O   UNL     1     -46.066 -60.519  36.524  0.00  0.00    +0.000 OA
ATOM     28  H   UNL     1     -46.309 -59.616  36.248  0.00  0.00    +0.000 HD
ENDBRANCH   9  27
BRANCH  10  29
ATOM     29  O   UNL     1     -47.659 -63.261  34.781  0.00  0.00    +0.000 OA
ATOM     30  H   UNL     1     -47.634 -63.834  35.571  0.00  0.00    +0.000 HD
ENDBRANCH  10  29
BRANCH  14  31
ATOM     31  O   UNL     1     -45.796 -69.040  37.238  0.00  0.00    +0.000 OA
ATOM     32  H   UNL     1     -46.629 -69.037  37.756  0.00  0.00    +0.000 HD
ENDBRANCH  14  31
BRANCH  15  33
ATOM     33  O   UNL     1     -46.315 -68.962  34.605  0.00  0.00    +0.000 OA
ATOM     34  C   UNL     1     -45.417 -69.891  34.060  0.00  0.00    +0.000 C 
ENDBRANCH  15  33
BRANCH  20  35
ATOM     35  O   UNL     1     -44.090 -65.094  29.797  0.00  0.00    +0.000 OA
BRANCH  35  37
ATOM     36  O   UNL     1     -45.655 -66.153  28.429  0.00  0.00    +0.000 OA
ATOM     37  C   UNL     1     -44.902 -65.244  28.719  0.00  0.00    +0.000 C 
ATOM     38  C   UNL     1     -44.810 -64.150  27.720  0.00  0.00    +0.000 C 
ENDBRANCH  35  37
ENDBRANCH  20  35
BRANCH   6  39
ATOM     39  C   UNL     1     -45.163 -62.515  38.847  0.00  0.00    +0.000 C 
BRANCH  39  41
ATOM     40  O   UNL     1     -44.200 -62.768  41.195  0.00  0.00    +0.000 OA
ATOM     41  C   UNL     1     -45.322 -62.878  40.284  0.00  0.00    +0.000 C 
ATOM     42  C   UNL     1     -45.126 -61.766  41.211  0.00  0.00    +0.000 C 
ATOM     43  C   UNL     1     -46.113 -64.187  40.628  0.00  0.00    +0.000 C 
BRANCH  42  44
ATOM     44  C   UNL     1     -45.939 -61.592  42.381  0.00  0.00    +0.000 C 
ATOM     45  C   UNL     1     -47.333 -61.031  42.256  0.00  0.00    +0.000 C 
BRANCH  44  46
ATOM     46  C   UNL     1     -45.698 -62.418  43.511  0.00  0.00    +0.000 C 
ATOM     47  C   UNL     1     -45.400 -63.134  44.426  0.00  0.00    +0.000 C 
ATOM     48  C   UNL     1     -44.903 -64.091  45.519  0.00  0.00    +0.000 C 
ENDBRANCH  44  46
ENDBRANCH  42  44
ENDBRANCH  39  41
BRANCH  39  49
ATOM     49  O   UNL     1     -44.004 -61.917  38.375  0.00  0.00    +0.000 OA
ATOM     50  H   UNL     1     -43.578 -61.347  39.044  0.00  0.00    +0.000 HD
ENDBRANCH  39  49
ENDBRANCH   6  39
BRANCH   9  51
ATOM     51  C   UNL     1     -48.422 -60.495  36.277  0.00  0.00    +0.000 C 
BRANCH  51  52
ATOM     52  O   UNL     1     -49.521 -59.741  36.227  0.00  0.00    +0.000 OA
ATOM     53  H   UNL     1     -49.594 -59.297  35.362  0.00  0.00    +0.000 HD
ENDBRANCH  51  52
ENDBRANCH   9  51
TORSDOF 13
ENDMDL
MODEL 3
REMARK VINA RESULT:      -6.8      2.318      6.331
REMARK  Name = 101808841_CandidaspongiolideA.pdbqt.pdb
REMARK  13 active torsions:
REMARK  status: ('A' for Active; 'I' for Inactive)
REMARK    1  A    between atoms: C_6  and  C_39
REMARK    2  A    between atoms: C_9  and  O_27
REMARK    3  A    between atoms: C_9  and  C_51
REMARK    4  A    between atoms: C_10  and  O_29
REMARK    5  A    between atoms: C_14  and  O_31
REMARK    6  A    between atoms: C_15  and  O_33
REMARK    7  A    between atoms: C_20  and  O_35
REMARK    8  A    between atoms: O_35  and  C_37
REMARK    9  A    between atoms: C_39  and  C_41
REMARK   10  A    between atoms: C_39  and  O_49
REMARK   11  A    between atoms: C_42  and  C_44
REMARK   12  A    between atoms: C_44  and  C_46
REMARK   13  A    between atoms: C_51  and  O_52
REMARK                            x       y       z     vdW  Elec       q    Type
REMARK                         _______ _______ _______ _____ _____    ______ ____
ROOT
ATOM      1  O   UNL     1     -44.656 -65.548  34.917  0.00  0.00    +0.000 OA
ATOM      2  O   UNL     1     -47.254 -62.928  36.833  0.00  0.00    +0.000 OA
ATOM      3  O   UNL     1     -43.699 -66.285  36.883  0.00  0.00    +0.000 OA
ATOM      4  O   UNL     1     -46.627 -60.328  30.804  0.00  0.00    +0.000 OA
ATOM      5  O   UNL     1     -45.766 -65.783  32.308  0.00  0.00    +0.000 OA
ATOM      6  C   UNL     1     -45.089 -63.018  35.910  0.00  0.00    +0.000 C 
ATOM      7  C   UNL     1     -46.514 -62.562  35.917  0.00  0.00    +0.000 C 
ATOM      8  C   UNL     1     -44.822 -64.322  35.408  0.00  0.00    +0.000 C 
ATOM      9  C   UNL     1     -46.973 -61.726  34.692  0.00  0.00    +0.000 C 
ATOM     10  C   UNL     1     -47.152 -62.617  33.474  0.00  0.00    +0.000 C 
ATOM     11  C   UNL     1     -46.934 -62.158  32.142  0.00  0.00    +0.000 C 
ATOM     12  C   UNL     1     -44.175 -66.481  35.773  0.00  0.00    +0.000 C 
ATOM     13  C   UNL     1     -46.680 -61.553  30.845  0.00  0.00    +0.000 C 
ATOM     14  C   UNL     1     -44.339 -67.846  35.223  0.00  0.00    +0.000 C 
ATOM     15  C   UNL     1     -44.803 -68.147  33.884  0.00  0.00    +0.000 C 
ATOM     16  C   UNL     1     -46.499 -62.418  29.634  0.00  0.00    +0.000 C 
ATOM     17  C   UNL     1     -44.272 -67.604  32.640  0.00  0.00    +0.000 C 
ATOM     18  C   UNL     1     -45.237 -67.046  30.343  0.00  0.00    +0.000 C 
ATOM     19  C   UNL     1     -45.167 -66.738  31.811  0.00  0.00    +0.000 C 
ATOM     20  C   UNL     1     -45.791 -66.042  29.433  0.00  0.00    +0.000 C 
ATOM     21  C   UNL     1     -46.670 -63.824  29.680  0.00  0.00    +0.000 C 
ATOM     22  C   UNL     1     -46.848 -65.106  29.743  0.00  0.00    +0.000 C 
ATOM     23  C   UNL     1     -46.135 -61.869  28.271  0.00  0.00    +0.000 C 
ATOM     24  C   UNL     1     -42.770 -67.335  32.538  0.00  0.00    +0.000 C 
ATOM     25  C   UNL     1     -44.835 -68.418  29.814  0.00  0.00    +0.000 C 
ATOM     26  C   UNL     1     -48.163 -65.556  30.327  0.00  0.00    +0.000 C 
ENDROOT
BRANCH   9  27
ATOM     27  O   UNL     1     -45.973 -60.750  34.391  0.00  0.00    +0.000 OA
ATOM     28  H   UNL     1     -46.118 -60.467  33.470  0.00  0.00    +0.000 HD
ENDBRANCH   9  27
BRANCH  10  29
ATOM     29  O   UNL     1     -47.571 -63.918  33.673  0.00  0.00    +0.000 OA
ATOM     30  H   UNL     1     -47.790 -64.125  34.601  0.00  0.00    +0.000 HD
ENDBRANCH  10  29
BRANCH  14  31
ATOM     31  O   UNL     1     -44.085 -68.929  36.046  0.00  0.00    +0.000 OA
ATOM     32  H   UNL     1     -43.983 -69.749  35.517  0.00  0.00    +0.000 HD
ENDBRANCH  14  31
BRANCH  15  33
ATOM     33  O   UNL     1     -45.436 -69.373  33.769  0.00  0.00    +0.000 OA
ATOM     34  C   UNL     1     -46.820 -69.226  33.949  0.00  0.00    +0.000 C 
ENDBRANCH  15  33
BRANCH  20  35
ATOM     35  O   UNL     1     -45.562 -66.186  28.038  0.00  0.00    +0.000 OA
BRANCH  35  37
ATOM     36  O   UNL     1     -43.490 -65.111  28.028  0.00  0.00    +0.000 OA
ATOM     37  C   UNL     1     -44.573 -65.393  27.550  0.00  0.00    +0.000 C 
ATOM     38  C   UNL     1     -44.891 -64.732  26.261  0.00  0.00    +0.000 C 
ENDBRANCH  35  37
ENDBRANCH  20  35
BRANCH   6  39
ATOM     39  C   UNL     1     -44.049 -62.194  36.492  0.00  0.00    +0.000 C 
BRANCH  39  41
ATOM     40  O   UNL     1     -43.508 -61.362  38.841  0.00  0.00    +0.000 OA
ATOM     41  C   UNL     1     -43.540 -62.439  37.872  0.00  0.00    +0.000 C 
ATOM     42  C   UNL     1     -44.537 -62.255  38.923  0.00  0.00    +0.000 C 
ATOM     43  C   UNL     1     -42.232 -63.288  38.031  0.00  0.00    +0.000 C 
BRANCH  42  44
ATOM     44  C   UNL     1     -44.614 -63.121  40.065  0.00  0.00    +0.000 C 
ATOM     45  C   UNL     1     -44.589 -62.541  41.456  0.00  0.00    +0.000 C 
BRANCH  44  46
ATOM     46  C   UNL     1     -45.252 -64.382  39.925  0.00  0.00    +0.000 C 
ATOM     47  C   UNL     1     -45.722 -65.469  39.734  0.00  0.00    +0.000 C 
ATOM     48  C   UNL     1     -46.242 -66.866  39.369  0.00  0.00    +0.000 C 
ENDBRANCH  44  46
ENDBRANCH  42  44
ENDBRANCH  39  41
BRANCH  39  49
ATOM     49  O   UNL     1     -43.342 -61.417  35.586  0.00  0.00    +0.000 OA
ATOM     50  H   UNL     1     -43.060 -61.923  34.799  0.00  0.00    +0.000 HD
ENDBRANCH  39  49
ENDBRANCH   6  39
BRANCH   9  51
ATOM     51  C   UNL     1     -48.252 -61.034  34.975  0.00  0.00    +0.000 C 
BRANCH  51  52
ATOM     52  O   UNL     1     -49.390 -60.395  35.247  0.00  0.00    +0.000 OA
ATOM     53  H   UNL     1     -50.100 -61.031  35.458  0.00  0.00    +0.000 HD
ENDBRANCH  51  52
ENDBRANCH   9  51
TORSDOF 13
ENDMDL
MODEL 4
REMARK VINA RESULT:      -6.8      3.195      6.562
REMARK  Name = 101808841_CandidaspongiolideA.pdbqt.pdb
REMARK  13 active torsions:
REMARK  status: ('A' for Active; 'I' for Inactive)
REMARK    1  A    between atoms: C_6  and  C_39
REMARK    2  A    between atoms: C_9  and  O_27
REMARK    3  A    between atoms: C_9  and  C_51
REMARK    4  A    between atoms: C_10  and  O_29
REMARK    5  A    between atoms: C_14  and  O_31
REMARK    6  A    between atoms: C_15  and  O_33
REMARK    7  A    between atoms: C_20  and  O_35
REMARK    8  A    between atoms: O_35  and  C_37
REMARK    9  A    between atoms: C_39  and  C_41
REMARK   10  A    between atoms: C_39  and  O_49
REMARK   11  A    between atoms: C_42  and  C_44
REMARK   12  A    between atoms: C_44  and  C_46
REMARK   13  A    between atoms: C_51  and  O_52
REMARK                            x       y       z     vdW  Elec       q    Type
REMARK                         _______ _______ _______ _____ _____    ______ ____
ROOT
ATOM      1  O   UNL     1     -44.756 -65.071  36.302  0.00  0.00    +0.000 OA
ATOM      2  O   UNL     1     -46.982 -61.828  37.648  0.00  0.00    +0.000 OA
ATOM      3  O   UNL     1     -43.981 -65.612  38.406  0.00  0.00    +0.000 OA
ATOM      4  O   UNL     1     -45.791 -60.352  31.332  0.00  0.00    +0.000 OA
ATOM      5  O   UNL     1     -45.811 -65.559  33.706  0.00  0.00    +0.000 OA
ATOM      6  C   UNL     1     -44.830 -62.378  36.867  0.00  0.00    +0.000 C 
ATOM      7  C   UNL     1     -46.169 -61.725  36.728  0.00  0.00    +0.000 C 
ATOM      8  C   UNL     1     -44.749 -63.771  36.588  0.00  0.00    +0.000 C 
ATOM      9  C   UNL     1     -46.459 -61.040  35.365  0.00  0.00    +0.000 C 
ATOM     10  C   UNL     1     -46.735 -62.080  34.292  0.00  0.00    +0.000 C 
ATOM     11  C   UNL     1     -46.411 -61.878  32.919  0.00  0.00    +0.000 C 
ATOM     12  C   UNL     1     -44.448 -65.913  37.317  0.00  0.00    +0.000 C 
ATOM     13  C   UNL     1     -46.030 -61.533  31.558  0.00  0.00    +0.000 C 
ATOM     14  C   UNL     1     -44.800 -67.311  36.977  0.00  0.00    +0.000 C 
ATOM     15  C   UNL     1     -45.265 -67.753  35.678  0.00  0.00    +0.000 C 
ATOM     16  C   UNL     1     -45.947 -62.599  30.508  0.00  0.00    +0.000 C 
ATOM     17  C   UNL     1     -44.621 -67.501  34.394  0.00  0.00    +0.000 C 
ATOM     18  C   UNL     1     -45.422 -67.185  31.991  0.00  0.00    +0.000 C 
ATOM     19  C   UNL     1     -45.350 -66.659  33.395  0.00  0.00    +0.000 C 
ATOM     20  C   UNL     1     -45.791 -66.271  30.907  0.00  0.00    +0.000 C 
ATOM     21  C   UNL     1     -46.330 -63.939  30.762  0.00  0.00    +0.000 C 
ATOM     22  C   UNL     1     -46.702 -65.155  31.013  0.00  0.00    +0.000 C 
ATOM     23  C   UNL     1     -45.463 -62.334  29.098  0.00  0.00    +0.000 C 
ATOM     24  C   UNL     1     -43.093 -67.472  34.332  0.00  0.00    +0.000 C 
ATOM     25  C   UNL     1     -45.217 -68.668  31.703  0.00  0.00    +0.000 C 
ATOM     26  C   UNL     1     -48.087 -65.309  31.588  0.00  0.00    +0.000 C 
ENDROOT
BRANCH   9  27
ATOM     27  O   UNL     1     -45.315 -60.281  34.971  0.00  0.00    +0.000 OA
ATOM     28  H   UNL     1     -45.610 -59.359  34.854  0.00  0.00    +0.000 HD
ENDBRANCH   9  27
BRANCH  10  29
ATOM     29  O   UNL     1     -47.352 -63.257  34.667  0.00  0.00    +0.000 OA
ATOM     30  H   UNL     1     -47.662 -63.798  33.916  0.00  0.00    +0.000 HD
ENDBRANCH  10  29
BRANCH  14  31
ATOM     31  O   UNL     1     -44.738 -68.273  37.970  0.00  0.00    +0.000 OA
ATOM     32  H   UNL     1     -44.206 -67.952  38.729  0.00  0.00    +0.000 HD
ENDBRANCH  14  31
BRANCH  15  33
ATOM     33  O   UNL     1     -46.072 -68.877  35.720  0.00  0.00    +0.000 OA
ATOM     34  C   UNL     1     -45.503 -69.915  34.966  0.00  0.00    +0.000 C 
ENDBRANCH  15  33
BRANCH  20  35
ATOM     35  O   UNL     1     -45.544 -66.670  29.566  0.00  0.00    +0.000 OA
BRANCH  35  37
ATOM     36  O   UNL     1     -47.408 -68.031  29.221  0.00  0.00    +0.000 OA
ATOM     37  C   UNL     1     -46.639 -67.140  28.914  0.00  0.00    +0.000 C 
ATOM     38  C   UNL     1     -46.898 -66.498  27.602  0.00  0.00    +0.000 C 
ENDBRANCH  35  37
ENDBRANCH  20  35
BRANCH   6  39
ATOM     39  C   UNL     1     -43.695 -61.631  37.369  0.00  0.00    +0.000 C 
BRANCH  39  41
ATOM     40  O   UNL     1     -41.178 -61.226  37.426  0.00  0.00    +0.000 OA
ATOM     41  C   UNL     1     -42.347 -61.745  36.744  0.00  0.00    +0.000 C 
ATOM     42  C   UNL     1     -41.404 -62.570  37.494  0.00  0.00    +0.000 C 
ATOM     43  C   UNL     1     -42.216 -61.417  35.217  0.00  0.00    +0.000 C 
BRANCH  42  44
ATOM     44  C   UNL     1     -40.483 -63.461  36.846  0.00  0.00    +0.000 C 
ATOM     45  C   UNL     1     -39.056 -63.034  36.614  0.00  0.00    +0.000 C 
BRANCH  44  46
ATOM     46  C   UNL     1     -40.711 -64.860  36.929  0.00  0.00    +0.000 C 
ATOM     47  C   UNL     1     -40.860 -66.039  37.094  0.00  0.00    +0.000 C 
ATOM     48  C   UNL     1     -40.964 -67.536  37.420  0.00  0.00    +0.000 C 
ENDBRANCH  44  46
ENDBRANCH  42  44
ENDBRANCH  39  41
BRANCH  39  49
ATOM     49  O   UNL     1     -44.015 -60.577  38.213  0.00  0.00    +0.000 OA
ATOM     50  H   UNL     1     -44.309 -59.783  37.726  0.00  0.00    +0.000 HD
ENDBRANCH  39  49
ENDBRANCH   6  39
BRANCH   9  51
ATOM     51  C   UNL     1     -47.627 -60.134  35.469  0.00  0.00    +0.000 C 
BRANCH  51  52
ATOM     52  O   UNL     1     -48.687 -59.329  35.540  0.00  0.00    +0.000 OA
ATOM     53  H   UNL     1     -48.949 -59.026  34.650  0.00  0.00    +0.000 HD
ENDBRANCH  51  52
ENDBRANCH   9  51
TORSDOF 13
ENDMDL
MODEL 5
REMARK VINA RESULT:      -6.6      3.333      7.160
REMARK  Name = 101808841_CandidaspongiolideA.pdbqt.pdb
REMARK  13 active torsions:
REMARK  status: ('A' for Active; 'I' for Inactive)
REMARK    1  A    between atoms: C_6  and  C_39
REMARK    2  A    between atoms: C_9  and  O_27
REMARK    3  A    between atoms: C_9  and  C_51
REMARK    4  A    between atoms: C_10  and  O_29
REMARK    5  A    between atoms: C_14  and  O_31
REMARK    6  A    between atoms: C_15  and  O_33
REMARK    7  A    between atoms: C_20  and  O_35
REMARK    8  A    between atoms: O_35  and  C_37
REMARK    9  A    between atoms: C_39  and  C_41
REMARK   10  A    between atoms: C_39  and  O_49
REMARK   11  A    between atoms: C_42  and  C_44
REMARK   12  A    between atoms: C_44  and  C_46
REMARK   13  A    between atoms: C_51  and  O_52
REMARK                            x       y       z     vdW  Elec       q    Type
REMARK                         _______ _______ _______ _____ _____    ______ ____
ROOT
ATOM      1  O   UNL     1     -44.783 -64.943  36.021  0.00  0.00    +0.000 OA
ATOM      2  O   UNL     1     -46.946 -61.752  37.577  0.00  0.00    +0.000 OA
ATOM      3  O   UNL     1     -43.753 -65.427  38.027  0.00  0.00    +0.000 OA
ATOM      4  O   UNL     1     -46.540 -60.335  31.149  0.00  0.00    +0.000 OA
ATOM      5  O   UNL     1     -46.114 -65.504  33.569  0.00  0.00    +0.000 OA
ATOM      6  C   UNL     1     -44.881 -62.246  36.559  0.00  0.00    +0.000 C 
ATOM      7  C   UNL     1     -46.248 -61.638  36.568  0.00  0.00    +0.000 C 
ATOM      8  C   UNL     1     -44.786 -63.640  36.289  0.00  0.00    +0.000 C 
ATOM      9  C   UNL     1     -46.716 -60.983  35.240  0.00  0.00    +0.000 C 
ATOM     10  C   UNL     1     -47.079 -62.048  34.219  0.00  0.00    +0.000 C 
ATOM     11  C   UNL     1     -46.922 -61.856  32.815  0.00  0.00    +0.000 C 
ATOM     12  C   UNL     1     -44.333 -65.760  37.002  0.00  0.00    +0.000 C 
ATOM     13  C   UNL     1     -46.712 -61.520  31.415  0.00  0.00    +0.000 C 
ATOM     14  C   UNL     1     -44.675 -67.173  36.721  0.00  0.00    +0.000 C 
ATOM     15  C   UNL     1     -45.271 -67.649  35.490  0.00  0.00    +0.000 C 
ATOM     16  C   UNL     1     -46.715 -62.598  30.375  0.00  0.00    +0.000 C 
ATOM     17  C   UNL     1     -44.789 -67.396  34.138  0.00  0.00    +0.000 C 
ATOM     18  C   UNL     1     -45.871 -67.143  31.840  0.00  0.00    +0.000 C 
ATOM     19  C   UNL     1     -45.655 -66.593  33.220  0.00  0.00    +0.000 C 
ATOM     20  C   UNL     1     -46.392 -66.258  30.796  0.00  0.00    +0.000 C 
ATOM     21  C   UNL     1     -47.022 -63.947  30.687  0.00  0.00    +0.000 C 
ATOM     22  C   UNL     1     -47.322 -65.169  30.993  0.00  0.00    +0.000 C 
ATOM     23  C   UNL     1     -46.406 -62.341  28.915  0.00  0.00    +0.000 C 
ATOM     24  C   UNL     1     -43.280 -67.320  33.899  0.00  0.00    +0.000 C 
ATOM     25  C   UNL     1     -45.652 -68.623  31.547  0.00  0.00    +0.000 C 
ATOM     26  C   UNL     1     -48.625 -65.359  31.726  0.00  0.00    +0.000 C 
ENDROOT
BRANCH   9  27
ATOM     27  O   UNL     1     -45.651 -60.194  34.708  0.00  0.00    +0.000 OA
ATOM     28  H   UNL     1     -45.018 -60.809  34.294  0.00  0.00    +0.000 HD
ENDBRANCH   9  27
BRANCH  10  29
ATOM     29  O   UNL     1     -47.609 -63.237  34.676  0.00  0.00    +0.000 OA
ATOM     30  H   UNL     1     -47.455 -63.995  34.080  0.00  0.00    +0.000 HD
ENDBRANCH  10  29
BRANCH  14  31
ATOM     31  O   UNL     1     -44.468 -68.117  37.711  0.00  0.00    +0.000 OA
ATOM     32  H   UNL     1     -44.490 -69.023  37.336  0.00  0.00    +0.000 HD
ENDBRANCH  14  31
BRANCH  15  33
ATOM     33  O   UNL     1     -46.031 -68.797  35.638  0.00  0.00    +0.000 OA
ATOM     34  C   UNL     1     -45.469 -69.852  34.903  0.00  0.00    +0.000 C 
ENDBRANCH  15  33
BRANCH  20  35
ATOM     35  O   UNL     1     -46.289 -66.669  29.439  0.00  0.00    +0.000 OA
BRANCH  35  37
ATOM     36  O   UNL     1     -44.132 -65.843  29.106  0.00  0.00    +0.000 OA
ATOM     37  C   UNL     1     -45.271 -66.084  28.755  0.00  0.00    +0.000 C 
ATOM     38  C   UNL     1     -45.628 -65.627  27.390  0.00  0.00    +0.000 C 
ENDBRANCH  35  37
ENDBRANCH  20  35
BRANCH   6  39
ATOM     39  C   UNL     1     -43.722 -61.455  36.918  0.00  0.00    +0.000 C 
BRANCH  39  41
ATOM     40  O   UNL     1     -42.685 -61.401  34.589  0.00  0.00    +0.000 OA
ATOM     41  C   UNL     1     -42.528 -61.373  36.029  0.00  0.00    +0.000 C 
ATOM     42  C   UNL     1     -42.492 -60.186  35.178  0.00  0.00    +0.000 C 
ATOM     43  C   UNL     1     -41.270 -62.229  36.408  0.00  0.00    +0.000 C 
BRANCH  42  44
ATOM     44  C   UNL     1     -41.275 -59.473  34.911  0.00  0.00    +0.000 C 
ATOM     45  C   UNL     1     -40.302 -59.995  33.885  0.00  0.00    +0.000 C 
BRANCH  44  46
ATOM     46  C   UNL     1     -41.235 -58.074  35.155  0.00  0.00    +0.000 C 
ATOM     47  C   UNL     1     -41.249 -56.880  35.270  0.00  0.00    +0.000 C 
ATOM     48  C   UNL     1     -41.307 -55.346  35.278  0.00  0.00    +0.000 C 
ENDBRANCH  44  46
ENDBRANCH  42  44
ENDBRANCH  39  41
BRANCH  39  49
ATOM     49  O   UNL     1     -43.932 -60.536  37.936  0.00  0.00    +0.000 OA
ATOM     50  H   UNL     1     -43.214 -60.540  38.598  0.00  0.00    +0.000 HD
ENDBRANCH  39  49
ENDBRANCH   6  39
BRANCH   9  51
ATOM     51  C   UNL     1     -47.894 -60.112  35.468  0.00  0.00    +0.000 C 
BRANCH  51  52
ATOM     52  O   UNL     1     -48.945 -59.314  35.653  0.00  0.00    +0.000 OA
ATOM     53  H   UNL     1     -48.656 -58.396  35.809  0.00  0.00    +0.000 HD
ENDBRANCH  51  52
ENDBRANCH   9  51
TORSDOF 13
ENDMDL
MODEL 6
REMARK VINA RESULT:      -6.4      3.334      7.677
REMARK  Name = 101808841_CandidaspongiolideA.pdbqt.pdb
REMARK  13 active torsions:
REMARK  status: ('A' for Active; 'I' for Inactive)
REMARK    1  A    between atoms: C_6  and  C_39
REMARK    2  A    between atoms: C_9  and  O_27
REMARK    3  A    between atoms: C_9  and  C_51
REMARK    4  A    between atoms: C_10  and  O_29
REMARK    5  A    between atoms: C_14  and  O_31
REMARK    6  A    between atoms: C_15  and  O_33
REMARK    7  A    between atoms: C_20  and  O_35
REMARK    8  A    between atoms: O_35  and  C_37
REMARK    9  A    between atoms: C_39  and  C_41
REMARK   10  A    between atoms: C_39  and  O_49
REMARK   11  A    between atoms: C_42  and  C_44
REMARK   12  A    between atoms: C_44  and  C_46
REMARK   13  A    between atoms: C_51  and  O_52
REMARK                            x       y       z     vdW  Elec       q    Type
REMARK                         _______ _______ _______ _____ _____    ______ ____
ROOT
ATOM      1  O   UNL     1     -46.023 -64.901  32.238  0.00  0.00    +0.000 OA
ATOM      2  O   UNL     1     -48.133 -62.876  35.194  0.00  0.00    +0.000 OA
ATOM      3  O   UNL     1     -46.199 -66.944  33.293  0.00  0.00    +0.000 OA
ATOM      4  O   UNL     1     -44.412 -58.162  32.467  0.00  0.00    +0.000 OA
ATOM      5  O   UNL     1     -46.053 -63.084  30.049  0.00  0.00    +0.000 OA
ATOM      6  C   UNL     1     -45.942 -63.520  34.617  0.00  0.00    +0.000 C 
ATOM      7  C   UNL     1     -47.022 -62.503  34.812  0.00  0.00    +0.000 C 
ATOM      8  C   UNL     1     -45.950 -64.259  33.402  0.00  0.00    +0.000 C 
ATOM      9  C   UNL     1     -46.669 -61.044  34.414  0.00  0.00    +0.000 C 
ATOM     10  C   UNL     1     -46.649 -60.892  32.902  0.00  0.00    +0.000 C 
ATOM     11  C   UNL     1     -45.796 -59.968  32.230  0.00  0.00    +0.000 C 
ATOM     12  C   UNL     1     -46.247 -66.234  32.298  0.00  0.00    +0.000 C 
ATOM     13  C   UNL     1     -44.878 -58.982  31.683  0.00  0.00    +0.000 C 
ATOM     14  C   UNL     1     -46.627 -66.773  30.971  0.00  0.00    +0.000 C 
ATOM     15  C   UNL     1     -46.611 -66.015  29.737  0.00  0.00    +0.000 C 
ATOM     16  C   UNL     1     -44.542 -58.997  30.222  0.00  0.00    +0.000 C 
ATOM     17  C   UNL     1     -45.495 -65.239  29.210  0.00  0.00    +0.000 C 
ATOM     18  C   UNL     1     -45.258 -63.131  27.790  0.00  0.00    +0.000 C 
ATOM     19  C   UNL     1     -45.661 -63.756  29.094  0.00  0.00    +0.000 C 
ATOM     20  C   UNL     1     -45.053 -61.682  27.731  0.00  0.00    +0.000 C 
ATOM     21  C   UNL     1     -45.173 -59.883  29.312  0.00  0.00    +0.000 C 
ATOM     22  C   UNL     1     -45.774 -60.691  28.498  0.00  0.00    +0.000 C 
ATOM     23  C   UNL     1     -43.522 -58.069  29.598  0.00  0.00    +0.000 C 
ATOM     24  C   UNL     1     -44.072 -65.755  29.431  0.00  0.00    +0.000 C 
ATOM     25  C   UNL     1     -45.162 -63.968  26.520  0.00  0.00    +0.000 C 
ATOM     26  C   UNL     1     -47.281 -60.652  28.531  0.00  0.00    +0.000 C 
ENDROOT
BRANCH   9  27
ATOM     27  O   UNL     1     -45.370 -60.724  34.914  0.00  0.00    +0.000 OA
ATOM     28  H   UNL     1     -44.724 -61.191  34.352  0.00  0.00    +0.000 HD
ENDBRANCH   9  27
BRANCH  10  29
ATOM     29  O   UNL     1     -47.517 -61.665  32.157  0.00  0.00    +0.000 OA
ATOM     30  H   UNL     1     -47.140 -61.982  31.314  0.00  0.00    +0.000 HD
ENDBRANCH  10  29
BRANCH  14  31
ATOM     31  O   UNL     1     -47.084 -68.076  30.888  0.00  0.00    +0.000 OA
ATOM     32  H   UNL     1     -46.746 -68.510  30.076  0.00  0.00    +0.000 HD
ENDBRANCH  14  31
BRANCH  15  33
ATOM     33  O   UNL     1     -47.518 -66.460  28.789  0.00  0.00    +0.000 OA
ATOM     34  C   UNL     1     -46.842 -67.013  27.691  0.00  0.00    +0.000 C 
ENDBRANCH  15  33
BRANCH  20  35
ATOM     35  O   UNL     1     -44.366 -61.135  26.614  0.00  0.00    +0.000 OA
BRANCH  35  37
ATOM     36  O   UNL     1     -42.227 -61.484  27.480  0.00  0.00    +0.000 OA
ATOM     37  C   UNL     1     -43.056 -60.861  26.844  0.00  0.00    +0.000 C 
ATOM     38  C   UNL     1     -42.584 -59.576  26.271  0.00  0.00    +0.000 C 
ENDBRANCH  35  37
ENDBRANCH  20  35
BRANCH   6  39
ATOM     39  C   UNL     1     -44.998 -63.803  35.679  0.00  0.00    +0.000 C 
BRANCH  39  41
ATOM     40  O   UNL     1     -45.593 -66.160  36.450  0.00  0.00    +0.000 OA
ATOM     41  C   UNL     1     -45.313 -64.773  36.766  0.00  0.00    +0.000 C 
ATOM     42  C   UNL     1     -44.344 -65.856  36.906  0.00  0.00    +0.000 C 
ATOM     43  C   UNL     1     -46.296 -64.314  37.897  0.00  0.00    +0.000 C 
BRANCH  42  44
ATOM     44  C   UNL     1     -43.934 -66.356  38.187  0.00  0.00    +0.000 C 
ATOM     45  C   UNL     1     -42.923 -65.594  39.007  0.00  0.00    +0.000 C 
BRANCH  44  46
ATOM     46  C   UNL     1     -44.824 -67.192  38.913  0.00  0.00    +0.000 C 
ATOM     47  C   UNL     1     -45.501 -67.906  39.598  0.00  0.00    +0.000 C 
ATOM     48  C   UNL     1     -46.250 -68.846  40.554  0.00  0.00    +0.000 C 
ENDBRANCH  44  46
ENDBRANCH  42  44
ENDBRANCH  39  41
BRANCH  39  49
ATOM     49  O   UNL     1     -43.696 -63.392  35.430  0.00  0.00    +0.000 OA
ATOM     50  H   UNL     1     -43.657 -62.551  34.934  0.00  0.00    +0.000 HD
ENDBRANCH  39  49
ENDBRANCH   6  39
BRANCH   9  51
ATOM     51  C   UNL     1     -47.652 -60.091  34.981  0.00  0.00    +0.000 C 
BRANCH  51  52
ATOM     52  O   UNL     1     -48.531 -59.217  35.471  0.00  0.00    +0.000 OA
ATOM     53  H   UNL     1     -48.080 -58.543  36.013  0.00  0.00    +0.000 HD
ENDBRANCH  51  52
ENDBRANCH   9  51
TORSDOF 13
ENDMDL
MODEL 7
REMARK VINA RESULT:      -6.3      3.077      5.982
REMARK  Name = 101808841_CandidaspongiolideA.pdbqt.pdb
REMARK  13 active torsions:
REMARK  status: ('A' for Active; 'I' for Inactive)
REMARK    1  A    between atoms: C_6  and  C_39
REMARK    2  A    between atoms: C_9  and  O_27
REMARK    3  A    between atoms: C_9  and  C_51
REMARK    4  A    between atoms: C_10  and  O_29
REMARK    5  A    between atoms: C_14  and  O_31
REMARK    6  A    between atoms: C_15  and  O_33
REMARK    7  A    between atoms: C_20  and  O_35
REMARK    8  A    between atoms: O_35  and  C_37
REMARK    9  A    between atoms: C_39  and  C_41
REMARK   10  A    between atoms: C_39  and  O_49
REMARK   11  A    between atoms: C_42  and  C_44
REMARK   12  A    between atoms: C_44  and  C_46
REMARK   13  A    between atoms: C_51  and  O_52
REMARK                            x       y       z     vdW  Elec       q    Type
REMARK                         _______ _______ _______ _____ _____    ______ ____
ROOT
ATOM      1  O   UNL     1     -41.998 -66.497  35.320  0.00  0.00    +0.000 OA
ATOM      2  O   UNL     1     -42.002 -70.645  35.044  0.00  0.00    +0.000 OA
ATOM      3  O   UNL     1     -40.429 -66.454  37.011  0.00  0.00    +0.000 OA
ATOM      4  O   UNL     1     -47.938 -68.950  32.722  0.00  0.00    +0.000 OA
ATOM      5  O   UNL     1     -43.246 -65.676  32.899  0.00  0.00    +0.000 OA
ATOM      6  C   UNL     1     -43.070 -68.881  36.182  0.00  0.00    +0.000 C 
ATOM      7  C   UNL     1     -43.042 -69.999  35.187  0.00  0.00    +0.000 C 
ATOM      8  C   UNL     1     -42.522 -67.631  35.777  0.00  0.00    +0.000 C 
ATOM      9  C   UNL     1     -44.326 -70.190  34.334  0.00  0.00    +0.000 C 
ATOM     10  C   UNL     1     -44.429 -69.106  33.275  0.00  0.00    +0.000 C 
ATOM     11  C   UNL     1     -45.677 -68.611  32.795  0.00  0.00    +0.000 C 
ATOM     12  C   UNL     1     -40.890 -66.045  35.954  0.00  0.00    +0.000 C 
ATOM     13  C   UNL     1     -47.017 -68.208  32.399  0.00  0.00    +0.000 C 
ATOM     14  C   UNL     1     -40.223 -64.980  35.171  0.00  0.00    +0.000 C 
ATOM     15  C   UNL     1     -40.760 -64.381  33.966  0.00  0.00    +0.000 C 
ATOM     16  C   UNL     1     -47.223 -66.937  31.631  0.00  0.00    +0.000 C 
ATOM     17  C   UNL     1     -42.088 -63.805  33.801  0.00  0.00    +0.000 C 
ATOM     18  C   UNL     1     -43.741 -63.571  31.870  0.00  0.00    +0.000 C 
ATOM     19  C   UNL     1     -43.029 -64.465  32.843  0.00  0.00    +0.000 C 
ATOM     20  C   UNL     1     -44.918 -64.084  31.165  0.00  0.00    +0.000 C 
ATOM     21  C   UNL     1     -46.138 -66.148  31.173  0.00  0.00    +0.000 C 
ATOM     22  C   UNL     1     -45.130 -65.452  30.752  0.00  0.00    +0.000 C 
ATOM     23  C   UNL     1     -48.592 -66.402  31.270  0.00  0.00    +0.000 C 
ATOM     24  C   UNL     1     -42.719 -63.065  34.982  0.00  0.00    +0.000 C 
ATOM     25  C   UNL     1     -43.195 -62.187  31.539  0.00  0.00    +0.000 C 
ATOM     26  C   UNL     1     -44.103 -66.209  29.948  0.00  0.00    +0.000 C 
ENDROOT
BRANCH   9  27
ATOM     27  O   UNL     1     -45.469 -70.097  35.185  0.00  0.00    +0.000 OA
ATOM     28  H   UNL     1     -45.886 -69.233  35.011  0.00  0.00    +0.000 HD
ENDBRANCH   9  27
BRANCH  10  29
ATOM     29  O   UNL     1     -43.260 -68.604  32.738  0.00  0.00    +0.000 OA
ATOM     30  H   UNL     1     -42.474 -68.746  33.299  0.00  0.00    +0.000 HD
ENDBRANCH  10  29
BRANCH  14  31
ATOM     31  O   UNL     1     -38.971 -64.545  35.571  0.00  0.00    +0.000 OA
ATOM     32  H   UNL     1     -38.426 -65.299  35.880  0.00  0.00    +0.000 HD
ENDBRANCH  14  31
BRANCH  15  33
ATOM     33  O   UNL     1     -39.795 -63.893  33.100  0.00  0.00    +0.000 OA
ATOM     34  C   UNL     1     -39.475 -64.858  32.133  0.00  0.00    +0.000 C 
ENDBRANCH  15  33
BRANCH  20  35
ATOM     35  O   UNL     1     -45.775 -63.160  30.508  0.00  0.00    +0.000 OA
BRANCH  35  37
ATOM     36  O   UNL     1     -47.318 -62.945  32.246  0.00  0.00    +0.000 OA
ATOM     37  C   UNL     1     -46.637 -62.513  31.336  0.00  0.00    +0.000 C 
ATOM     38  C   UNL     1     -46.805 -61.068  31.044  0.00  0.00    +0.000 C 
ENDBRANCH  35  37
ENDBRANCH  20  35
BRANCH   6  39
ATOM     39  C   UNL     1     -43.542 -69.108  37.532  0.00  0.00    +0.000 C 
BRANCH  39  41
ATOM     40  O   UNL     1     -44.513 -68.136  39.681  0.00  0.00    +0.000 OA
ATOM     41  C   UNL     1     -44.403 -68.115  38.236  0.00  0.00    +0.000 C 
ATOM     42  C   UNL     1     -43.676 -67.213  39.125  0.00  0.00    +0.000 C 
ATOM     43  C   UNL     1     -45.819 -67.815  37.635  0.00  0.00    +0.000 C 
BRANCH  42  44
ATOM     44  C   UNL     1     -44.007 -65.821  39.240  0.00  0.00    +0.000 C 
ATOM     45  C   UNL     1     -45.061 -65.373  40.221  0.00  0.00    +0.000 C 
BRANCH  44  46
ATOM     46  C   UNL     1     -43.027 -64.853  38.892  0.00  0.00    +0.000 C 
ATOM     47  C   UNL     1     -42.273 -63.965  38.610  0.00  0.00    +0.000 C 
ATOM     48  C   UNL     1     -41.424 -62.740  38.238  0.00  0.00    +0.000 C 
ENDBRANCH  44  46
ENDBRANCH  42  44
ENDBRANCH  39  41
BRANCH  39  49
ATOM     49  O   UNL     1     -43.437 -70.418  37.976  0.00  0.00    +0.000 OA
ATOM     50  H   UNL     1     -42.621 -70.855  37.663  0.00  0.00    +0.000 HD
ENDBRANCH  39  49
ENDBRANCH   6  39
BRANCH   9  51
ATOM     51  C   UNL     1     -44.324 -71.515  33.671  0.00  0.00    +0.000 C 
BRANCH  51  52
ATOM     52  O   UNL     1     -44.296 -72.705  33.072  0.00  0.00    +0.000 OA
ATOM     53  H   UNL     1     -43.395 -73.078  33.090  0.00  0.00    +0.000 HD
ENDBRANCH  51  52
ENDBRANCH   9  51
TORSDOF 13
ENDMDL
MODEL 8
REMARK VINA RESULT:      -6.2      4.009      8.490
REMARK  Name = 101808841_CandidaspongiolideA.pdbqt.pdb
REMARK  13 active torsions:
REMARK  status: ('A' for Active; 'I' for Inactive)
REMARK    1  A    between atoms: C_6  and  C_39
REMARK    2  A    between atoms: C_9  and  O_27
REMARK    3  A    between atoms: C_9  and  C_51
REMARK    4  A    between atoms: C_10  and  O_29
REMARK    5  A    between atoms: C_14  and  O_31
REMARK    6  A    between atoms: C_15  and  O_33
REMARK    7  A    between atoms: C_20  and  O_35
REMARK    8  A    between atoms: O_35  and  C_37
REMARK    9  A    between atoms: C_39  and  C_41
REMARK   10  A    between atoms: C_39  and  O_49
REMARK   11  A    between atoms: C_42  and  C_44
REMARK   12  A    between atoms: C_44  and  C_46
REMARK   13  A    between atoms: C_51  and  O_52
REMARK                            x       y       z     vdW  Elec       q    Type
REMARK                         _______ _______ _______ _____ _____    ______ ____
ROOT
ATOM      1  O   UNL     1     -46.269 -64.932  32.010  0.00  0.00    +0.000 OA
ATOM      2  O   UNL     1     -48.494 -62.917  34.887  0.00  0.00    +0.000 OA
ATOM      3  O   UNL     1     -46.689 -67.011  32.915  0.00  0.00    +0.000 OA
ATOM      4  O   UNL     1     -44.207 -58.361  32.799  0.00  0.00    +0.000 OA
ATOM      5  O   UNL     1     -45.964 -62.999  29.944  0.00  0.00    +0.000 OA
ATOM      6  C   UNL     1     -46.311 -63.695  34.468  0.00  0.00    +0.000 C 
ATOM      7  C   UNL     1     -47.329 -62.610  34.629  0.00  0.00    +0.000 C 
ATOM      8  C   UNL     1     -46.259 -64.363  33.213  0.00  0.00    +0.000 C 
ATOM      9  C   UNL     1     -46.836 -61.163  34.356  0.00  0.00    +0.000 C 
ATOM     10  C   UNL     1     -46.665 -60.930  32.864  0.00  0.00    +0.000 C 
ATOM     11  C   UNL     1     -45.689 -60.038  32.329  0.00  0.00    +0.000 C 
ATOM     12  C   UNL     1     -46.593 -66.245  31.966  0.00  0.00    +0.000 C 
ATOM     13  C   UNL     1     -44.655 -59.098  31.928  0.00  0.00    +0.000 C 
ATOM     14  C   UNL     1     -46.886 -66.678  30.580  0.00  0.00    +0.000 C 
ATOM     15  C   UNL     1     -46.701 -65.856  29.402  0.00  0.00    +0.000 C 
ATOM     16  C   UNL     1     -44.187 -59.058  30.505  0.00  0.00    +0.000 C 
ATOM     17  C   UNL     1     -45.488 -65.141  29.025  0.00  0.00    +0.000 C 
ATOM     18  C   UNL     1     -44.968 -62.982  27.766  0.00  0.00    +0.000 C 
ATOM     19  C   UNL     1     -45.535 -63.646  28.987  0.00  0.00    +0.000 C 
ATOM     20  C   UNL     1     -44.655 -61.552  27.816  0.00  0.00    +0.000 C 
ATOM     21  C   UNL     1     -44.792 -59.840  29.489  0.00  0.00    +0.000 C 
ATOM     22  C   UNL     1     -45.371 -60.553  28.576  0.00  0.00    +0.000 C 
ATOM     23  C   UNL     1     -43.049 -58.178  30.032  0.00  0.00    +0.000 C 
ATOM     24  C   UNL     1     -44.132 -65.777  29.339  0.00  0.00    +0.000 C 
ATOM     25  C   UNL     1     -44.814 -63.753  26.460  0.00  0.00    +0.000 C 
ATOM     26  C   UNL     1     -46.868 -60.400  28.477  0.00  0.00    +0.000 C 
ENDROOT
BRANCH   9  27
ATOM     27  O   UNL     1     -45.570 -60.973  34.989  0.00  0.00    +0.000 OA
ATOM     28  H   UNL     1     -44.940 -60.705  34.294  0.00  0.00    +0.000 HD
ENDBRANCH   9  27
BRANCH  10  29
ATOM     29  O   UNL     1     -47.513 -61.591  31.998  0.00  0.00    +0.000 OA
ATOM     30  H   UNL     1     -47.370 -62.556  31.965  0.00  0.00    +0.000 HD
ENDBRANCH  10  29
BRANCH  14  31
ATOM     31  O   UNL     1     -47.426 -67.936  30.376  0.00  0.00    +0.000 OA
ATOM     32  H   UNL     1     -46.766 -68.532  29.962  0.00  0.00    +0.000 HD
ENDBRANCH  14  31
BRANCH  15  33
ATOM     33  O   UNL     1     -47.545 -66.177  28.352  0.00  0.00    +0.000 OA
ATOM     34  C   UNL     1     -46.818 -66.762  27.304  0.00  0.00    +0.000 C 
ENDBRANCH  15  33
BRANCH  20  35
ATOM     35  O   UNL     1     -43.829 -61.000  26.800  0.00  0.00    +0.000 OA
BRANCH  35  37
ATOM     36  O   UNL     1     -45.459 -60.503  25.206  0.00  0.00    +0.000 OA
ATOM     37  C   UNL     1     -44.494 -60.236  25.895  0.00  0.00    +0.000 C 
ATOM     38  C   UNL     1     -43.914 -58.886  25.683  0.00  0.00    +0.000 C 
ENDBRANCH  35  37
ENDBRANCH  20  35
BRANCH   6  39
ATOM     39  C   UNL     1     -45.493 -64.109  35.590  0.00  0.00    +0.000 C 
BRANCH  39  41
ATOM     40  O   UNL     1     -43.310 -65.071  36.490  0.00  0.00    +0.000 OA
ATOM     41  C   UNL     1     -44.042 -64.411  35.428  0.00  0.00    +0.000 C 
ATOM     42  C   UNL     1     -43.719 -65.835  35.436  0.00  0.00    +0.000 C 
ATOM     43  C   UNL     1     -43.126 -63.298  34.812  0.00  0.00    +0.000 C 
BRANCH  42  44
ATOM     44  C   UNL     1     -42.728 -66.399  34.564  0.00  0.00    +0.000 C 
ATOM     45  C   UNL     1     -41.336 -66.668  35.076  0.00  0.00    +0.000 C 
BRANCH  44  46
ATOM     46  C   UNL     1     -43.155 -67.196  33.468  0.00  0.00    +0.000 C 
ATOM     47  C   UNL     1     -43.424 -67.916  32.548  0.00  0.00    +0.000 C 
ATOM     48  C   UNL     1     -43.629 -68.877  31.368  0.00  0.00    +0.000 C 
ENDBRANCH  44  46
ENDBRANCH  42  44
ENDBRANCH  39  41
BRANCH  39  49
ATOM     49  O   UNL     1     -46.049 -63.872  36.839  0.00  0.00    +0.000 OA
ATOM     50  H   UNL     1     -46.698 -63.143  36.828  0.00  0.00    +0.000 HD
ENDBRANCH  39  49
ENDBRANCH   6  39
BRANCH   9  51
ATOM     51  C   UNL     1     -47.797 -60.170  34.892  0.00  0.00    +0.000 C 
BRANCH  51  52
ATOM     52  O   UNL     1     -48.670 -59.295  35.392  0.00  0.00    +0.000 OA
ATOM     53  H   UNL     1     -48.230 -58.449  35.597  0.00  0.00    +0.000 HD
ENDBRANCH  51  52
ENDBRANCH   9  51
TORSDOF 13
ENDMDL
MODEL 9
REMARK VINA RESULT:      -6.1     24.280     29.001
REMARK  Name = 101808841_CandidaspongiolideA.pdbqt.pdb
REMARK  13 active torsions:
REMARK  status: ('A' for Active; 'I' for Inactive)
REMARK    1  A    between atoms: C_6  and  C_39
REMARK    2  A    between atoms: C_9  and  O_27
REMARK    3  A    between atoms: C_9  and  C_51
REMARK    4  A    between atoms: C_10  and  O_29
REMARK    5  A    between atoms: C_14  and  O_31
REMARK    6  A    between atoms: C_15  and  O_33
REMARK    7  A    between atoms: C_20  and  O_35
REMARK    8  A    between atoms: O_35  and  C_37
REMARK    9  A    between atoms: C_39  and  C_41
REMARK   10  A    between atoms: C_39  and  O_49
REMARK   11  A    between atoms: C_42  and  C_44
REMARK   12  A    between atoms: C_44  and  C_46
REMARK   13  A    between atoms: C_51  and  O_52
REMARK                            x       y       z     vdW  Elec       q    Type
REMARK                         _______ _______ _______ _____ _____    ______ ____
ROOT
ATOM      1  O   UNL     1     -31.614 -46.156  52.630  0.00  0.00    +0.000 OA
ATOM      2  O   UNL     1     -27.978 -44.281  51.889  0.00  0.00    +0.000 OA
ATOM      3  O   UNL     1     -32.866 -44.346  51.941  0.00  0.00    +0.000 OA
ATOM      4  O   UNL     1     -26.479 -48.768  56.485  0.00  0.00    +0.000 OA
ATOM      5  O   UNL     1     -30.902 -48.902  52.856  0.00  0.00    +0.000 OA
ATOM      6  C   UNL     1     -29.582 -44.567  53.589  0.00  0.00    +0.000 C 
ATOM      7  C   UNL     1     -28.236 -44.798  52.978  0.00  0.00    +0.000 C 
ATOM      8  C   UNL     1     -30.662 -45.366  53.118  0.00  0.00    +0.000 C 
ATOM      9  C   UNL     1     -27.296 -45.771  53.740  0.00  0.00    +0.000 C 
ATOM     10  C   UNL     1     -27.748 -47.209  53.552  0.00  0.00    +0.000 C 
ATOM     11  C   UNL     1     -27.554 -48.215  54.543  0.00  0.00    +0.000 C 
ATOM     12  C   UNL     1     -32.627 -45.546  51.972  0.00  0.00    +0.000 C 
ATOM     13  C   UNL     1     -27.286 -49.134  55.638  0.00  0.00    +0.000 C 
ATOM     14  C   UNL     1     -33.435 -46.524  51.207  0.00  0.00    +0.000 C 
ATOM     15  C   UNL     1     -33.271 -47.961  51.273  0.00  0.00    +0.000 C 
ATOM     16  C   UNL     1     -27.981 -50.461  55.692  0.00  0.00    +0.000 C 
ATOM     17  C   UNL     1     -33.248 -48.778  52.481  0.00  0.00    +0.000 C 
ATOM     18  C   UNL     1     -32.104 -50.947  53.186  0.00  0.00    +0.000 C 
ATOM     19  C   UNL     1     -31.981 -49.497  52.821  0.00  0.00    +0.000 C 
ATOM     20  C   UNL     1     -30.986 -51.606  53.866  0.00  0.00    +0.000 C 
ATOM     21  C   UNL     1     -28.828 -50.912  54.649  0.00  0.00    +0.000 C 
ATOM     22  C   UNL     1     -29.584 -51.310  53.675  0.00  0.00    +0.000 C 
ATOM     23  C   UNL     1     -27.830 -51.428  56.848  0.00  0.00    +0.000 C 
ATOM     24  C   UNL     1     -34.148 -48.380  53.653  0.00  0.00    +0.000 C 
ATOM     25  C   UNL     1     -33.326 -51.757  52.768  0.00  0.00    +0.000 C 
ATOM     26  C   UNL     1     -28.957 -51.276  52.304  0.00  0.00    +0.000 C 
ENDROOT
BRANCH   9  27
ATOM     27  O   UNL     1     -27.339 -45.465  55.135  0.00  0.00    +0.000 OA
ATOM     28  H   UNL     1     -28.167 -45.840  55.484  0.00  0.00    +0.000 HD
ENDBRANCH   9  27
BRANCH  10  29
ATOM     29  O   UNL     1     -28.346 -47.554  52.357  0.00  0.00    +0.000 OA
ATOM     30  H   UNL     1     -28.668 -46.791  51.840  0.00  0.00    +0.000 HD
ENDBRANCH  10  29
BRANCH  14  31
ATOM     31  O   UNL     1     -34.387 -46.051  50.321  0.00  0.00    +0.000 OA
ATOM     32  H   UNL     1     -33.967 -45.515  49.616  0.00  0.00    +0.000 HD
ENDBRANCH  14  31
BRANCH  15  33
ATOM     33  O   UNL     1     -33.655 -48.626  50.121  0.00  0.00    +0.000 OA
ATOM     34  C   UNL     1     -32.531 -48.937  49.340  0.00  0.00    +0.000 C 
ENDBRANCH  15  33
BRANCH  20  35
ATOM     35  O   UNL     1     -31.214 -52.858  54.498  0.00  0.00    +0.000 OA
BRANCH  35  37
ATOM     36  O   UNL     1     -31.445 -51.922  56.623  0.00  0.00    +0.000 OA
ATOM     37  C   UNL     1     -31.669 -52.764  55.775  0.00  0.00    +0.000 C 
ATOM     38  C   UNL     1     -32.528 -53.893  56.208  0.00  0.00    +0.000 C 
ENDBRANCH  35  37
ENDBRANCH  20  35
BRANCH   6  39
ATOM     39  C   UNL     1     -29.783 -43.496  54.544  0.00  0.00    +0.000 C 
BRANCH  39  41
ATOM     40  O   UNL     1     -30.348 -41.009  54.502  0.00  0.00    +0.000 OA
ATOM     41  C   UNL     1     -30.744 -42.386  54.283  0.00  0.00    +0.000 C 
ATOM     42  C   UNL     1     -30.334 -41.474  53.219  0.00  0.00    +0.000 C 
ATOM     43  C   UNL     1     -32.220 -42.563  54.778  0.00  0.00    +0.000 C 
BRANCH  42  44
ATOM     44  C   UNL     1     -31.269 -40.930  52.275  0.00  0.00    +0.000 C 
ATOM     45  C   UNL     1     -32.043 -39.681  52.612  0.00  0.00    +0.000 C 
BRANCH  44  46
ATOM     46  C   UNL     1     -31.076 -41.190  50.892  0.00  0.00    +0.000 C 
ATOM     47  C   UNL     1     -30.997 -41.352  49.707  0.00  0.00    +0.000 C 
ATOM     48  C   UNL     1     -31.028 -41.503  48.179  0.00  0.00    +0.000 C 
ENDBRANCH  44  46
ENDBRANCH  42  44
ENDBRANCH  39  41
BRANCH  39  49
ATOM     49  O   UNL     1     -29.301 -43.751  55.820  0.00  0.00    +0.000 OA
ATOM     50  H   UNL     1     -29.978 -44.143  56.404  0.00  0.00    +0.000 HD
ENDBRANCH  39  49
ENDBRANCH   6  39
BRANCH   9  51
ATOM     51  C   UNL     1     -25.900 -45.637  53.260  0.00  0.00    +0.000 C 
BRANCH  51  52
ATOM     52  O   UNL     1     -24.642 -45.495  52.842  0.00  0.00    +0.000 OA
ATOM     53  H   UNL     1     -24.620 -45.193  51.915  0.00  0.00    +0.000 HD
ENDBRANCH  51  52
ENDBRANCH   9  51
TORSDOF 13
ENDMDL
