MODEL 1
REMARK VINA RESULT:      -7.6      0.000      0.000
REMARK  Name = 101808842_CandidaspongiolideB.pdbqt.pdb
REMARK  12 active torsions:
REMARK  status: ('A' for Active; 'I' for Inactive)
REMARK    1  A    between atoms: C_6  and  C_42
REMARK    2  A    between atoms: C_7  and  O_28
REMARK    3  A    between atoms: C_10  and  O_30
REMARK    4  A    between atoms: C_13  and  O_32
REMARK    5  A    between atoms: C_19  and  O_34
REMARK    6  A    between atoms: C_20  and  O_38
REMARK    7  A    between atoms: C_21  and  O_36
REMARK    8  A    between atoms: O_38  and  C_40
REMARK    9  A    between atoms: C_42  and  C_44
REMARK   10  A    between atoms: C_42  and  O_52
REMARK   11  A    between atoms: C_45  and  C_47
REMARK   12  A    between atoms: C_47  and  C_49
REMARK                            x       y       z     vdW  Elec       q    Type
REMARK                         _______ _______ _______ _____ _____    ______ ____
ROOT
ATOM      1  O   UNL     1     -65.095 -71.722  42.178  0.00  0.00    +0.000 OA
ATOM      2  O   UNL     1     -59.892 -67.677  40.232  0.00  0.00    +0.000 OA
ATOM      3  O   UNL     1     -63.335 -68.373  42.615  0.00  0.00    +0.000 OA
ATOM      4  O   UNL     1     -59.850 -69.125  42.028  0.00  0.00    +0.000 OA
ATOM      5  O   UNL     1     -59.475 -71.984  41.355  0.00  0.00    +0.000 OA
ATOM      6  C   UNL     1     -62.625 -67.512  40.557  0.00  0.00    +0.000 C 
ATOM      7  C   UNL     1     -63.773 -69.826  40.676  0.00  0.00    +0.000 C 
ATOM      8  C   UNL     1     -63.254 -68.566  41.401  0.00  0.00    +0.000 C 
ATOM      9  C   UNL     1     -61.211 -67.542  40.385  0.00  0.00    +0.000 C 
ATOM     10  C   UNL     1     -62.655 -70.881  40.551  0.00  0.00    +0.000 C 
ATOM     11  C   UNL     1     -62.941 -72.145  41.148  0.00  0.00    +0.000 C 
ATOM     12  C   UNL     1     -64.739 -70.599  41.521  0.00  0.00    +0.000 C 
ATOM     13  C   UNL     1     -64.048 -72.752  41.951  0.00  0.00    +0.000 C 
ATOM     14  C   UNL     1     -63.534 -73.262  43.305  0.00  0.00    +0.000 C 
ATOM     15  C   UNL     1     -62.247 -72.888  43.794  0.00  0.00    +0.000 C 
ATOM     16  C   UNL     1     -64.235 -74.269  44.211  0.00  0.00    +0.000 C 
ATOM     17  C   UNL     1     -59.319 -68.587  41.067  0.00  0.00    +0.000 C 
ATOM     18  C   UNL     1     -61.056 -72.530  44.161  0.00  0.00    +0.000 C 
ATOM     19  C   UNL     1     -57.952 -68.925  40.606  0.00  0.00    +0.000 C 
ATOM     20  C   UNL     1     -59.902 -73.363  43.911  0.00  0.00    +0.000 C 
ATOM     21  C   UNL     1     -57.285 -70.133  41.048  0.00  0.00    +0.000 C 
ATOM     22  C   UNL     1     -58.618 -72.923  43.368  0.00  0.00    +0.000 C 
ATOM     23  C   UNL     1     -57.551 -70.880  42.269  0.00  0.00    +0.000 C 
ATOM     24  C   UNL     1     -58.625 -71.923  42.249  0.00  0.00    +0.000 C 
ATOM     25  C   UNL     1     -60.905 -71.127  44.675  0.00  0.00    +0.000 C 
ATOM     26  C   UNL     1     -57.377 -73.791  43.567  0.00  0.00    +0.000 C 
ATOM     27  C   UNL     1     -56.910 -70.407  43.569  0.00  0.00    +0.000 C 
ENDROOT
BRANCH   7  28
ATOM     28  O   UNL     1     -64.349 -69.618  39.403  0.00  0.00    +0.000 OA
ATOM     29  H   UNL     1     -64.407 -68.652  39.281  0.00  0.00    +0.000 HD
ENDBRANCH   7  28
BRANCH  10  30
ATOM     30  O   UNL     1     -61.475 -70.635  39.898  0.00  0.00    +0.000 OA
ATOM     31  H   UNL     1     -60.715 -71.028  40.378  0.00  0.00    +0.000 HD
ENDBRANCH  10  30
BRANCH  13  32
ATOM     32  O   UNL     1     -64.612 -73.812  41.183  0.00  0.00    +0.000 OA
ATOM     33  H   UNL     1     -65.440 -74.049  41.632  0.00  0.00    +0.000 HD
ENDBRANCH  13  32
BRANCH  19  34
ATOM     34  O   UNL     1     -57.306 -68.191  39.628  0.00  0.00    +0.000 OA
ATOM     35  H   UNL     1     -57.190 -68.685  38.790  0.00  0.00    +0.000 HD
ENDBRANCH  19  34
BRANCH  21  36
ATOM     36  O   UNL     1     -56.065 -70.377  40.438  0.00  0.00    +0.000 OA
ATOM     37  C   UNL     1     -56.193 -71.351  39.433  0.00  0.00    +0.000 C 
ENDBRANCH  21  36
BRANCH  20  38
ATOM     38  O   UNL     1     -59.952 -74.643  44.512  0.00  0.00    +0.000 OA
BRANCH  38  40
ATOM     39  O   UNL     1     -59.189 -73.972  46.609  0.00  0.00    +0.000 OA
ATOM     40  C   UNL     1     -59.969 -74.540  45.866  0.00  0.00    +0.000 C 
ATOM     41  C   UNL     1     -61.059 -75.285  46.541  0.00  0.00    +0.000 C 
ENDBRANCH  38  40
ENDBRANCH  20  38
BRANCH   6  42
ATOM     42  C   UNL     1     -63.434 -66.391  40.135  0.00  0.00    +0.000 C 
BRANCH  42  44
ATOM     43  O   UNL     1     -63.987 -64.253  41.367  0.00  0.00    +0.000 OA
ATOM     44  C   UNL     1     -63.093 -64.990  40.497  0.00  0.00    +0.000 C 
ATOM     45  C   UNL     1     -62.871 -64.811  41.929  0.00  0.00    +0.000 C 
ATOM     46  C   UNL     1     -62.567 -64.030  39.379  0.00  0.00    +0.000 C 
BRANCH  45  47
ATOM     47  C   UNL     1     -61.907 -63.916  42.494  0.00  0.00    +0.000 C 
ATOM     48  C   UNL     1     -62.003 -63.513  43.943  0.00  0.00    +0.000 C 
BRANCH  47  49
ATOM     49  C   UNL     1     -60.637 -63.755  41.883  0.00  0.00    +0.000 C 
ATOM     50  C   UNL     1     -59.548 -63.574  41.417  0.00  0.00    +0.000 C 
ATOM     51  C   UNL     1     -58.142 -63.252  40.903  0.00  0.00    +0.000 C 
ENDBRANCH  47  49
ENDBRANCH  45  47
ENDBRANCH  42  44
BRANCH  42  52
ATOM     52  O   UNL     1     -64.530 -66.713  39.344  0.00  0.00    +0.000 OA
ATOM     53  H   UNL     1     -65.308 -66.156  39.549  0.00  0.00    +0.000 HD
ENDBRANCH  42  52
ENDBRANCH   6  42
TORSDOF 12
ENDMDL
MODEL 2
REMARK VINA RESULT:      -7.4     16.798     19.365
REMARK  Name = 101808842_CandidaspongiolideB.pdbqt.pdb
REMARK  12 active torsions:
REMARK  status: ('A' for Active; 'I' for Inactive)
REMARK    1  A    between atoms: C_6  and  C_42
REMARK    2  A    between atoms: C_7  and  O_28
REMARK    3  A    between atoms: C_10  and  O_30
REMARK    4  A    between atoms: C_13  and  O_32
REMARK    5  A    between atoms: C_19  and  O_34
REMARK    6  A    between atoms: C_20  and  O_38
REMARK    7  A    between atoms: C_21  and  O_36
REMARK    8  A    between atoms: O_38  and  C_40
REMARK    9  A    between atoms: C_42  and  C_44
REMARK   10  A    between atoms: C_42  and  O_52
REMARK   11  A    between atoms: C_45  and  C_47
REMARK   12  A    between atoms: C_47  and  C_49
REMARK                            x       y       z     vdW  Elec       q    Type
REMARK                         _______ _______ _______ _____ _____    ______ ____
ROOT
ATOM      1  O   UNL     1     -42.971 -69.365  35.843  0.00  0.00    +0.000 OA
ATOM      2  O   UNL     1     -46.569 -64.688  32.321  0.00  0.00    +0.000 OA
ATOM      3  O   UNL     1     -46.371 -68.350  34.458  0.00  0.00    +0.000 OA
ATOM      4  O   UNL     1     -46.346 -64.740  34.617  0.00  0.00    +0.000 OA
ATOM      5  O   UNL     1     -43.768 -63.738  35.673  0.00  0.00    +0.000 OA
ATOM      6  C   UNL     1     -46.173 -67.416  32.321  0.00  0.00    +0.000 C 
ATOM      7  C   UNL     1     -44.062 -68.134  33.630  0.00  0.00    +0.000 C 
ATOM      8  C   UNL     1     -45.599 -68.000  33.565  0.00  0.00    +0.000 C 
ATOM      9  C   UNL     1     -46.421 -66.014  32.287  0.00  0.00    +0.000 C 
ATOM     10  C   UNL     1     -43.427 -66.844  34.185  0.00  0.00    +0.000 C 
ATOM     11  C   UNL     1     -42.640 -67.011  35.364  0.00  0.00    +0.000 C 
ATOM     12  C   UNL     1     -43.630 -69.093  34.697  0.00  0.00    +0.000 C 
ATOM     13  C   UNL     1     -42.284 -68.127  36.294  0.00  0.00    +0.000 C 
ATOM     14  C   UNL     1     -42.712 -67.806  37.734  0.00  0.00    +0.000 C 
ATOM     15  C   UNL     1     -43.601 -66.727  38.016  0.00  0.00    +0.000 C 
ATOM     16  C   UNL     1     -42.189 -68.480  38.999  0.00  0.00    +0.000 C 
ATOM     17  C   UNL     1     -46.416 -64.136  33.557  0.00  0.00    +0.000 C 
ATOM     18  C   UNL     1     -44.390 -65.713  38.198  0.00  0.00    +0.000 C 
ATOM     19  C   UNL     1     -46.249 -62.668  33.451  0.00  0.00    +0.000 C 
ATOM     20  C   UNL     1     -43.878 -64.404  38.530  0.00  0.00    +0.000 C 
ATOM     21  C   UNL     1     -45.671 -61.895  34.533  0.00  0.00    +0.000 C 
ATOM     22  C   UNL     1     -44.280 -63.138  37.919  0.00  0.00    +0.000 C 
ATOM     23  C   UNL     1     -45.636 -62.257  35.943  0.00  0.00    +0.000 C 
ATOM     24  C   UNL     1     -44.504 -63.104  36.436  0.00  0.00    +0.000 C 
ATOM     25  C   UNL     1     -45.838 -65.919  37.855  0.00  0.00    +0.000 C 
ATOM     26  C   UNL     1     -43.998 -61.825  38.648  0.00  0.00    +0.000 C 
ATOM     27  C   UNL     1     -46.866 -61.978  36.799  0.00  0.00    +0.000 C 
ENDROOT
BRANCH   7  28
ATOM     28  O   UNL     1     -43.416 -68.478  32.421  0.00  0.00    +0.000 OA
ATOM     29  H   UNL     1     -43.966 -68.116  31.703  0.00  0.00    +0.000 HD
ENDBRANCH   7  28
BRANCH  10  30
ATOM     30  O   UNL     1     -43.586 -65.622  33.586  0.00  0.00    +0.000 OA
ATOM     31  H   UNL     1     -42.878 -65.000  33.853  0.00  0.00    +0.000 HD
ENDBRANCH  10  30
BRANCH  13  32
ATOM     32  O   UNL     1     -40.877 -68.333  36.211  0.00  0.00    +0.000 OA
ATOM     33  H   UNL     1     -40.666 -68.331  35.263  0.00  0.00    +0.000 HD
ENDBRANCH  13  32
BRANCH  19  34
ATOM     34  O   UNL     1     -46.498 -61.984  32.276  0.00  0.00    +0.000 OA
ATOM     35  H   UNL     1     -46.092 -61.093  32.255  0.00  0.00    +0.000 HD
ENDBRANCH  19  34
BRANCH  21  36
ATOM     36  O   UNL     1     -45.466 -60.556  34.243  0.00  0.00    +0.000 OA
ATOM     37  C   UNL     1     -44.094 -60.247  34.244  0.00  0.00    +0.000 C 
ENDBRANCH  21  36
BRANCH  20  38
ATOM     38  O   UNL     1     -43.141 -64.341  39.736  0.00  0.00    +0.000 OA
BRANCH  38  40
ATOM     39  O   UNL     1     -44.917 -64.100  41.226  0.00  0.00    +0.000 OA
ATOM     40  C   UNL     1     -43.926 -64.662  40.798  0.00  0.00    +0.000 C 
ATOM     41  C   UNL     1     -43.465 -65.828  41.591  0.00  0.00    +0.000 C 
ENDBRANCH  38  40
ENDBRANCH  20  38
BRANCH   6  42
ATOM     42  C   UNL     1     -46.655 -68.314  31.295  0.00  0.00    +0.000 C 
BRANCH  42  44
ATOM     43  O   UNL     1     -47.048 -68.777  28.841  0.00  0.00    +0.000 OA
ATOM     44  C   UNL     1     -46.219 -68.200  29.879  0.00  0.00    +0.000 C 
ATOM     45  C   UNL     1     -47.147 -67.430  29.058  0.00  0.00    +0.000 C 
ATOM     46  C   UNL     1     -44.716 -68.463  29.530  0.00  0.00    +0.000 C 
BRANCH  45  47
ATOM     47  C   UNL     1     -46.755 -66.564  27.986  0.00  0.00    +0.000 C 
ATOM     48  C   UNL     1     -46.738 -67.074  26.567  0.00  0.00    +0.000 C 
BRANCH  47  49
ATOM     49  C   UNL     1     -46.818 -65.157  28.144  0.00  0.00    +0.000 C 
ATOM     50  C   UNL     1     -46.870 -63.961  28.210  0.00  0.00    +0.000 C 
ATOM     51  C   UNL     1     -46.919 -62.431  28.172  0.00  0.00    +0.000 C 
ENDBRANCH  47  49
ENDBRANCH  45  47
ENDBRANCH  42  44
BRANCH  42  52
ATOM     52  O   UNL     1     -47.524 -69.305  31.732  0.00  0.00    +0.000 OA
ATOM     53  H   UNL     1     -47.373 -69.540  32.670  0.00  0.00    +0.000 HD
ENDBRANCH  42  52
ENDBRANCH   6  42
TORSDOF 12
ENDMDL
MODEL 3
REMARK VINA RESULT:      -7.3      2.211      5.543
REMARK  Name = 101808842_CandidaspongiolideB.pdbqt.pdb
REMARK  12 active torsions:
REMARK  status: ('A' for Active; 'I' for Inactive)
REMARK    1  A    between atoms: C_6  and  C_42
REMARK    2  A    between atoms: C_7  and  O_28
REMARK    3  A    between atoms: C_10  and  O_30
REMARK    4  A    between atoms: C_13  and  O_32
REMARK    5  A    between atoms: C_19  and  O_34
REMARK    6  A    between atoms: C_20  and  O_38
REMARK    7  A    between atoms: C_21  and  O_36
REMARK    8  A    between atoms: O_38  and  C_40
REMARK    9  A    between atoms: C_42  and  C_44
REMARK   10  A    between atoms: C_42  and  O_52
REMARK   11  A    between atoms: C_45  and  C_47
REMARK   12  A    between atoms: C_47  and  C_49
REMARK                            x       y       z     vdW  Elec       q    Type
REMARK                         _______ _______ _______ _____ _____    ______ ____
ROOT
ATOM      1  O   UNL     1     -57.686 -69.615  39.722  0.00  0.00    +0.000 OA
ATOM      2  O   UNL     1     -64.157 -68.705  41.847  0.00  0.00    +0.000 OA
ATOM      3  O   UNL     1     -61.215 -68.528  38.792  0.00  0.00    +0.000 OA
ATOM      4  O   UNL     1     -63.347 -70.613  40.833  0.00  0.00    +0.000 OA
ATOM      5  O   UNL     1     -61.745 -72.398  42.568  0.00  0.00    +0.000 OA
ATOM      6  C   UNL     1     -62.204 -67.288  40.513  0.00  0.00    +0.000 C 
ATOM      7  C   UNL     1     -59.839 -68.289  40.819  0.00  0.00    +0.000 C 
ATOM      8  C   UNL     1     -61.088 -68.087  39.934  0.00  0.00    +0.000 C 
ATOM      9  C   UNL     1     -63.250 -67.981  41.187  0.00  0.00    +0.000 C 
ATOM     10  C   UNL     1     -60.000 -69.537  41.710  0.00  0.00    +0.000 C 
ATOM     11  C   UNL     1     -58.995 -70.537  41.543  0.00  0.00    +0.000 C 
ATOM     12  C   UNL     1     -58.649 -68.717  40.017  0.00  0.00    +0.000 C 
ATOM     13  C   UNL     1     -57.804 -70.757  40.666  0.00  0.00    +0.000 C 
ATOM     14  C   UNL     1     -57.935 -72.063  39.869  0.00  0.00    +0.000 C 
ATOM     15  C   UNL     1     -59.182 -72.752  39.784  0.00  0.00    +0.000 C 
ATOM     16  C   UNL     1     -56.798 -72.823  39.195  0.00  0.00    +0.000 C 
ATOM     17  C   UNL     1     -64.048 -70.049  41.661  0.00  0.00    +0.000 C 
ATOM     18  C   UNL     1     -60.339 -73.338  39.774  0.00  0.00    +0.000 C 
ATOM     19  C   UNL     1     -64.844 -70.778  42.676  0.00  0.00    +0.000 C 
ATOM     20  C   UNL     1     -60.663 -74.393  40.706  0.00  0.00    +0.000 C 
ATOM     21  C   UNL     1     -64.593 -72.176  42.969  0.00  0.00    +0.000 C 
ATOM     22  C   UNL     1     -61.895 -74.512  41.483  0.00  0.00    +0.000 C 
ATOM     23  C   UNL     1     -63.971 -73.155  42.089  0.00  0.00    +0.000 C 
ATOM     24  C   UNL     1     -62.479 -73.268  42.086  0.00  0.00    +0.000 C 
ATOM     25  C   UNL     1     -61.389 -72.735  38.885  0.00  0.00    +0.000 C 
ATOM     26  C   UNL     1     -62.287 -75.866  42.073  0.00  0.00    +0.000 C 
ATOM     27  C   UNL     1     -64.834 -73.840  41.034  0.00  0.00    +0.000 C 
ENDROOT
BRANCH   7  28
ATOM     28  O   UNL     1     -59.468 -67.193  41.631  0.00  0.00    +0.000 OA
ATOM     29  H   UNL     1     -58.785 -66.703  41.137  0.00  0.00    +0.000 HD
ENDBRANCH   7  28
BRANCH  10  30
ATOM     30  O   UNL     1     -61.021 -69.676  42.613  0.00  0.00    +0.000 OA
ATOM     31  H   UNL     1     -60.771 -69.318  43.491  0.00  0.00    +0.000 HD
ENDBRANCH  10  30
BRANCH  13  32
ATOM     32  O   UNL     1     -56.648 -70.778  41.499  0.00  0.00    +0.000 OA
ATOM     33  H   UNL     1     -56.978 -70.726  42.410  0.00  0.00    +0.000 HD
ENDBRANCH  13  32
BRANCH  19  34
ATOM     34  O   UNL     1     -65.758 -70.137  43.491  0.00  0.00    +0.000 OA
ATOM     35  H   UNL     1     -65.975 -69.231  43.188  0.00  0.00    +0.000 HD
ENDBRANCH  19  34
BRANCH  21  36
ATOM     36  O   UNL     1     -65.329 -72.687  44.025  0.00  0.00    +0.000 OA
ATOM     37  C   UNL     1     -64.623 -73.711  44.680  0.00  0.00    +0.000 C 
ENDBRANCH  21  36
BRANCH  20  38
ATOM     38  O   UNL     1     -59.828 -75.533  40.627  0.00  0.00    +0.000 OA
BRANCH  38  40
ATOM     39  O   UNL     1     -60.931 -76.577  38.860  0.00  0.00    +0.000 OA
ATOM     40  C   UNL     1     -59.943 -76.131  39.413  0.00  0.00    +0.000 C 
ATOM     41  C   UNL     1     -58.664 -76.333  38.688  0.00  0.00    +0.000 C 
ENDBRANCH  38  40
ENDBRANCH  20  38
BRANCH   6  42
ATOM     42  C   UNL     1     -62.292 -65.883  40.182  0.00  0.00    +0.000 C 
BRANCH  42  44
ATOM     43  O   UNL     1     -62.328 -65.203  42.617  0.00  0.00    +0.000 OA
ATOM     44  C   UNL     1     -62.470 -64.837  41.223  0.00  0.00    +0.000 C 
ATOM     45  C   UNL     1     -61.262 -64.602  42.006  0.00  0.00    +0.000 C 
ATOM     46  C   UNL     1     -63.660 -63.830  41.082  0.00  0.00    +0.000 C 
BRANCH  45  47
ATOM     47  C   UNL     1     -60.856 -63.323  42.507  0.00  0.00    +0.000 C 
ATOM     48  C   UNL     1     -61.340 -62.848  43.854  0.00  0.00    +0.000 C 
BRANCH  47  49
ATOM     49  C   UNL     1     -59.688 -62.696  42.006  0.00  0.00    +0.000 C 
ATOM     50  C   UNL     1     -58.739 -62.131  41.540  0.00  0.00    +0.000 C 
ATOM     51  C   UNL     1     -57.603 -61.364  40.857  0.00  0.00    +0.000 C 
ENDBRANCH  47  49
ENDBRANCH  45  47
ENDBRANCH  42  44
BRANCH  42  52
ATOM     52  O   UNL     1     -62.166 -65.582  38.832  0.00  0.00    +0.000 OA
ATOM     53  H   UNL     1     -62.849 -64.948  38.531  0.00  0.00    +0.000 HD
ENDBRANCH  42  52
ENDBRANCH   6  42
TORSDOF 12
ENDMDL
MODEL 4
REMARK VINA RESULT:      -7.3      2.177      5.683
REMARK  Name = 101808842_CandidaspongiolideB.pdbqt.pdb
REMARK  12 active torsions:
REMARK  status: ('A' for Active; 'I' for Inactive)
REMARK    1  A    between atoms: C_6  and  C_42
REMARK    2  A    between atoms: C_7  and  O_28
REMARK    3  A    between atoms: C_10  and  O_30
REMARK    4  A    between atoms: C_13  and  O_32
REMARK    5  A    between atoms: C_19  and  O_34
REMARK    6  A    between atoms: C_20  and  O_38
REMARK    7  A    between atoms: C_21  and  O_36
REMARK    8  A    between atoms: O_38  and  C_40
REMARK    9  A    between atoms: C_42  and  C_44
REMARK   10  A    between atoms: C_42  and  O_52
REMARK   11  A    between atoms: C_45  and  C_47
REMARK   12  A    between atoms: C_47  and  C_49
REMARK                            x       y       z     vdW  Elec       q    Type
REMARK                         _______ _______ _______ _____ _____    ______ ____
ROOT
ATOM      1  O   UNL     1     -59.272 -69.431  40.449  0.00  0.00    +0.000 OA
ATOM      2  O   UNL     1     -65.845 -67.458  40.797  0.00  0.00    +0.000 OA
ATOM      3  O   UNL     1     -62.301 -68.114  38.554  0.00  0.00    +0.000 OA
ATOM      4  O   UNL     1     -65.122 -69.585  40.268  0.00  0.00    +0.000 OA
ATOM      5  O   UNL     1     -64.232 -71.237  42.559  0.00  0.00    +0.000 OA
ATOM      6  C   UNL     1     -63.454 -66.507  39.807  0.00  0.00    +0.000 C 
ATOM      7  C   UNL     1     -61.394 -67.708  40.807  0.00  0.00    +0.000 C 
ATOM      8  C   UNL     1     -62.369 -67.511  39.626  0.00  0.00    +0.000 C 
ATOM      9  C   UNL     1     -64.716 -66.959  40.289  0.00  0.00    +0.000 C 
ATOM     10  C   UNL     1     -61.933 -68.769  41.786  0.00  0.00    +0.000 C 
ATOM     11  C   UNL     1     -61.078 -69.891  42.001  0.00  0.00    +0.000 C 
ATOM     12  C   UNL     1     -60.132 -68.394  40.380  0.00  0.00    +0.000 C 
ATOM     13  C   UNL     1     -59.766 -70.384  41.476  0.00  0.00    +0.000 C 
ATOM     14  C   UNL     1     -59.909 -71.778  40.848  0.00  0.00    +0.000 C 
ATOM     15  C   UNL     1     -61.193 -72.325  40.553  0.00  0.00    +0.000 C 
ATOM     16  C   UNL     1     -58.775 -72.762  40.575  0.00  0.00    +0.000 C 
ATOM     17  C   UNL     1     -65.898 -68.819  40.820  0.00  0.00    +0.000 C 
ATOM     18  C   UNL     1     -62.392 -72.770  40.338  0.00  0.00    +0.000 C 
ATOM     19  C   UNL     1     -67.000 -69.279  41.697  0.00  0.00    +0.000 C 
ATOM     20  C   UNL     1     -63.070 -73.616  41.292  0.00  0.00    +0.000 C 
ATOM     21  C   UNL     1     -67.032 -70.630  42.222  0.00  0.00    +0.000 C 
ATOM     22  C   UNL     1     -64.449 -73.467  41.754  0.00  0.00    +0.000 C 
ATOM     23  C   UNL     1     -66.382 -71.802  41.654  0.00  0.00    +0.000 C 
ATOM     24  C   UNL     1     -64.961 -72.084  42.030  0.00  0.00    +0.000 C 
ATOM     25  C   UNL     1     -63.115 -72.202  39.149  0.00  0.00    +0.000 C 
ATOM     26  C   UNL     1     -65.160 -74.654  42.402  0.00  0.00    +0.000 C 
ATOM     27  C   UNL     1     -67.079 -72.546  40.520  0.00  0.00    +0.000 C 
ENDROOT
BRANCH   7  28
ATOM     28  O   UNL     1     -61.055 -66.545  41.534  0.00  0.00    +0.000 OA
ATOM     29  H   UNL     1     -60.463 -66.832  42.253  0.00  0.00    +0.000 HD
ENDBRANCH   7  28
BRANCH  10  30
ATOM     30  O   UNL     1     -63.140 -68.644  42.424  0.00  0.00    +0.000 OA
ATOM     31  H   UNL     1     -63.582 -67.802  42.184  0.00  0.00    +0.000 HD
ENDBRANCH  10  30
BRANCH  13  32
ATOM     32  O   UNL     1     -58.842 -70.402  42.561  0.00  0.00    +0.000 OA
ATOM     33  H   UNL     1     -59.274 -70.910  43.266  0.00  0.00    +0.000 HD
ENDBRANCH  13  32
BRANCH  19  34
ATOM     34  O   UNL     1     -67.968 -68.414  42.174  0.00  0.00    +0.000 OA
ATOM     35  H   UNL     1     -67.974 -67.550  41.712  0.00  0.00    +0.000 HD
ENDBRANCH  19  34
BRANCH  21  36
ATOM     36  O   UNL     1     -68.054 -70.877  43.124  0.00  0.00    +0.000 OA
ATOM     37  C   UNL     1     -67.600 -71.671  44.191  0.00  0.00    +0.000 C 
ENDBRANCH  21  36
BRANCH  20  38
ATOM     38  O   UNL     1     -62.418 -74.842  41.567  0.00  0.00    +0.000 OA
BRANCH  38  40
ATOM     39  O   UNL     1     -61.483 -73.937  43.500  0.00  0.00    +0.000 OA
ATOM     40  C   UNL     1     -61.928 -74.853  42.834  0.00  0.00    +0.000 C 
ATOM     41  C   UNL     1     -61.864 -76.191  43.472  0.00  0.00    +0.000 C 
ENDBRANCH  38  40
ENDBRANCH  20  38
BRANCH   6  42
ATOM     42  C   UNL     1     -63.256 -65.174  39.284  0.00  0.00    +0.000 C 
BRANCH  42  44
ATOM     43  O   UNL     1     -62.638 -62.823  39.982  0.00  0.00    +0.000 OA
ATOM     44  C   UNL     1     -62.285 -64.225  39.891  0.00  0.00    +0.000 C 
ATOM     45  C   UNL     1     -62.792 -63.591  41.103  0.00  0.00    +0.000 C 
ATOM     46  C   UNL     1     -60.774 -64.343  39.503  0.00  0.00    +0.000 C 
BRANCH  45  47
ATOM     47  C   UNL     1     -61.989 -63.256  42.240  0.00  0.00    +0.000 C 
ATOM     48  C   UNL     1     -62.097 -64.061  43.510  0.00  0.00    +0.000 C 
BRANCH  47  49
ATOM     49  C   UNL     1     -60.799 -62.501  42.078  0.00  0.00    +0.000 C 
ATOM     50  C   UNL     1     -59.763 -61.921  41.921  0.00  0.00    +0.000 C 
ATOM     51  C   UNL     1     -58.385 -61.289  41.704  0.00  0.00    +0.000 C 
ENDBRANCH  47  49
ENDBRANCH  45  47
ENDBRANCH  42  44
BRANCH  42  52
ATOM     52  O   UNL     1     -64.010 -64.857  38.162  0.00  0.00    +0.000 OA
ATOM     53  H   UNL     1     -64.965 -65.015  38.303  0.00  0.00    +0.000 HD
ENDBRANCH  42  52
ENDBRANCH   6  42
TORSDOF 12
ENDMDL
MODEL 5
REMARK VINA RESULT:      -7.2     34.850     37.595
REMARK  Name = 101808842_CandidaspongiolideB.pdbqt.pdb
REMARK  12 active torsions:
REMARK  status: ('A' for Active; 'I' for Inactive)
REMARK    1  A    between atoms: C_6  and  C_42
REMARK    2  A    between atoms: C_7  and  O_28
REMARK    3  A    between atoms: C_10  and  O_30
REMARK    4  A    between atoms: C_13  and  O_32
REMARK    5  A    between atoms: C_19  and  O_34
REMARK    6  A    between atoms: C_20  and  O_38
REMARK    7  A    between atoms: C_21  and  O_36
REMARK    8  A    between atoms: O_38  and  C_40
REMARK    9  A    between atoms: C_42  and  C_44
REMARK   10  A    between atoms: C_42  and  O_52
REMARK   11  A    between atoms: C_45  and  C_47
REMARK   12  A    between atoms: C_47  and  C_49
REMARK                            x       y       z     vdW  Elec       q    Type
REMARK                         _______ _______ _______ _____ _____    ______ ____
ROOT
ATOM      1  O   UNL     1     -37.296 -41.715  43.958  0.00  0.00    +0.000 OA
ATOM      2  O   UNL     1     -39.879 -41.911  50.322  0.00  0.00    +0.000 OA
ATOM      3  O   UNL     1     -36.616 -41.287  47.680  0.00  0.00    +0.000 OA
ATOM      4  O   UNL     1     -39.730 -40.022  49.006  0.00  0.00    +0.000 OA
ATOM      5  O   UNL     1     -41.775 -39.784  46.879  0.00  0.00    +0.000 OA
ATOM      6  C   UNL     1     -37.720 -42.923  48.939  0.00  0.00    +0.000 C 
ATOM      7  C   UNL     1     -38.024 -42.827  46.373  0.00  0.00    +0.000 C 
ATOM      8  C   UNL     1     -37.384 -42.249  47.654  0.00  0.00    +0.000 C 
ATOM      9  C   UNL     1     -38.810 -42.416  49.701  0.00  0.00    +0.000 C 
ATOM     10  C   UNL     1     -39.402 -42.183  46.116  0.00  0.00    +0.000 C 
ATOM     11  C   UNL     1     -39.538 -41.516  44.862  0.00  0.00    +0.000 C 
ATOM     12  C   UNL     1     -37.311 -42.370  45.137  0.00  0.00    +0.000 C 
ATOM     13  C   UNL     1     -38.663 -41.198  43.690  0.00  0.00    +0.000 C 
ATOM     14  C   UNL     1     -38.594 -39.683  43.446  0.00  0.00    +0.000 C 
ATOM     15  C   UNL     1     -39.059 -38.757  44.426  0.00  0.00    +0.000 C 
ATOM     16  C   UNL     1     -38.154 -39.000  42.155  0.00  0.00    +0.000 C 
ATOM     17  C   UNL     1     -40.316 -40.725  49.817  0.00  0.00    +0.000 C 
ATOM     18  C   UNL     1     -39.525 -37.975  45.350  0.00  0.00    +0.000 C 
ATOM     19  C   UNL     1     -41.676 -40.418  50.318  0.00  0.00    +0.000 C 
ATOM     20  C   UNL     1     -40.879 -37.472  45.307  0.00  0.00    +0.000 C 
ATOM     21  C   UNL     1     -42.529 -39.459  49.643  0.00  0.00    +0.000 C 
ATOM     22  C   UNL     1     -41.830 -37.449  46.417  0.00  0.00    +0.000 C 
ATOM     23  C   UNL     1     -42.102 -38.364  48.785  0.00  0.00    +0.000 C 
ATOM     24  C   UNL     1     -41.886 -38.638  47.329  0.00  0.00    +0.000 C 
ATOM     25  C   UNL     1     -38.662 -37.780  46.564  0.00  0.00    +0.000 C 
ATOM     26  C   UNL     1     -43.035 -36.512  46.358  0.00  0.00    +0.000 C 
ATOM     27  C   UNL     1     -41.653 -37.059  49.434  0.00  0.00    +0.000 C 
ENDROOT
BRANCH   7  28
ATOM     28  O   UNL     1     -38.161 -44.233  46.325  0.00  0.00    +0.000 OA
ATOM     29  H   UNL     1     -37.256 -44.596  46.300  0.00  0.00    +0.000 HD
ENDBRANCH   7  28
BRANCH  10  30
ATOM     30  O   UNL     1     -40.434 -42.257  47.015  0.00  0.00    +0.000 OA
ATOM     31  H   UNL     1     -41.070 -42.961  46.768  0.00  0.00    +0.000 HD
ENDBRANCH  10  30
BRANCH  13  32
ATOM     32  O   UNL     1     -39.192 -41.877  42.554  0.00  0.00    +0.000 OA
ATOM     33  H   UNL     1     -39.150 -41.239  41.823  0.00  0.00    +0.000 HD
ENDBRANCH  13  32
BRANCH  19  34
ATOM     34  O   UNL     1     -42.253 -41.127  51.355  0.00  0.00    +0.000 OA
ATOM     35  H   UNL     1     -43.081 -41.582  51.097  0.00  0.00    +0.000 HD
ENDBRANCH  19  34
BRANCH  21  36
ATOM     36  O   UNL     1     -43.813 -39.368  50.153  0.00  0.00    +0.000 OA
ATOM     37  C   UNL     1     -44.760 -39.805  49.210  0.00  0.00    +0.000 C 
ENDBRANCH  21  36
BRANCH  20  38
ATOM     38  O   UNL     1     -41.186 -36.690  44.168  0.00  0.00    +0.000 OA
BRANCH  38  40
ATOM     39  O   UNL     1     -42.417 -38.458  43.280  0.00  0.00    +0.000 OA
ATOM     40  C   UNL     1     -41.731 -37.456  43.188  0.00  0.00    +0.000 C 
ATOM     41  C   UNL     1     -41.380 -37.053  41.805  0.00  0.00    +0.000 C 
ENDBRANCH  38  40
ENDBRANCH  20  38
BRANCH   6  42
ATOM     42  C   UNL     1     -36.801 -43.911  49.461  0.00  0.00    +0.000 C 
BRANCH  42  44
ATOM     43  O   UNL     1     -36.049 -42.908  51.656  0.00  0.00    +0.000 OA
ATOM     44  C   UNL     1     -35.710 -43.553  50.405  0.00  0.00    +0.000 C 
ATOM     45  C   UNL     1     -35.808 -44.254  51.680  0.00  0.00    +0.000 C 
ATOM     46  C   UNL     1     -34.406 -42.901  49.835  0.00  0.00    +0.000 C 
BRANCH  45  47
ATOM     47  C   UNL     1     -34.686 -44.704  52.447  0.00  0.00    +0.000 C 
ATOM     48  C   UNL     1     -33.963 -43.752  53.365  0.00  0.00    +0.000 C 
BRANCH  47  49
ATOM     49  C   UNL     1     -34.509 -46.085  52.715  0.00  0.00    +0.000 C 
ATOM     50  C   UNL     1     -34.415 -47.265  52.903  0.00  0.00    +0.000 C 
ATOM     51  C   UNL     1     -34.406 -48.785  53.090  0.00  0.00    +0.000 C 
ENDBRANCH  47  49
ENDBRANCH  45  47
ENDBRANCH  42  44
BRANCH  42  52
ATOM     52  O   UNL     1     -37.031 -45.216  49.044  0.00  0.00    +0.000 OA
ATOM     53  H   UNL     1     -36.199 -45.688  48.838  0.00  0.00    +0.000 HD
ENDBRANCH  42  52
ENDBRANCH   6  42
TORSDOF 12
ENDMDL
MODEL 6
REMARK VINA RESULT:      -6.9     28.446     31.532
REMARK  Name = 101808842_CandidaspongiolideB.pdbqt.pdb
REMARK  12 active torsions:
REMARK  status: ('A' for Active; 'I' for Inactive)
REMARK    1  A    between atoms: C_6  and  C_42
REMARK    2  A    between atoms: C_7  and  O_28
REMARK    3  A    between atoms: C_10  and  O_30
REMARK    4  A    between atoms: C_13  and  O_32
REMARK    5  A    between atoms: C_19  and  O_34
REMARK    6  A    between atoms: C_20  and  O_38
REMARK    7  A    between atoms: C_21  and  O_36
REMARK    8  A    between atoms: O_38  and  C_40
REMARK    9  A    between atoms: C_42  and  C_44
REMARK   10  A    between atoms: C_42  and  O_52
REMARK   11  A    between atoms: C_45  and  C_47
REMARK   12  A    between atoms: C_47  and  C_49
REMARK                            x       y       z     vdW  Elec       q    Type
REMARK                         _______ _______ _______ _____ _____    ______ ____
ROOT
ATOM      1  O   UNL     1     -49.293 -39.347  34.048  0.00  0.00    +0.000 OA
ATOM      2  O   UNL     1     -55.716 -41.652  34.850  0.00  0.00    +0.000 OA
ATOM      3  O   UNL     1     -51.729 -42.226  33.513  0.00  0.00    +0.000 OA
ATOM      4  O   UNL     1     -53.982 -42.009  36.330  0.00  0.00    +0.000 OA
ATOM      5  O   UNL     1     -53.295 -39.713  38.069  0.00  0.00    +0.000 OA
ATOM      6  C   UNL     1     -53.833 -41.445  32.848  0.00  0.00    +0.000 C 
ATOM      7  C   UNL     1     -51.939 -39.775  33.406  0.00  0.00    +0.000 C 
ATOM      8  C   UNL     1     -52.424 -41.235  33.285  0.00  0.00    +0.000 C 
ATOM      9  C   UNL     1     -54.836 -41.586  33.849  0.00  0.00    +0.000 C 
ATOM     10  C   UNL     1     -52.244 -39.215  34.810  0.00  0.00    +0.000 C 
ATOM     11  C   UNL     1     -51.109 -38.757  35.543  0.00  0.00    +0.000 C 
ATOM     12  C   UNL     1     -50.444 -39.683  33.430  0.00  0.00    +0.000 C 
ATOM     13  C   UNL     1     -49.626 -38.715  35.351  0.00  0.00    +0.000 C 
ATOM     14  C   UNL     1     -48.900 -39.465  36.478  0.00  0.00    +0.000 C 
ATOM     15  C   UNL     1     -49.610 -40.325  37.368  0.00  0.00    +0.000 C 
ATOM     16  C   UNL     1     -47.429 -39.316  36.856  0.00  0.00    +0.000 C 
ATOM     17  C   UNL     1     -55.157 -41.775  36.085  0.00  0.00    +0.000 C 
ATOM     18  C   UNL     1     -50.324 -41.067  38.155  0.00  0.00    +0.000 C 
ATOM     19  C   UNL     1     -56.160 -41.493  37.139  0.00  0.00    +0.000 C 
ATOM     20  C   UNL     1     -50.831 -40.571  39.414  0.00  0.00    +0.000 C 
ATOM     21  C   UNL     1     -55.759 -41.153  38.490  0.00  0.00    +0.000 C 
ATOM     22  C   UNL     1     -52.193 -40.726  39.920  0.00  0.00    +0.000 C 
ATOM     23  C   UNL     1     -54.501 -41.491  39.138  0.00  0.00    +0.000 C 
ATOM     24  C   UNL     1     -53.332 -40.573  38.955  0.00  0.00    +0.000 C 
ATOM     25  C   UNL     1     -50.765 -42.395  37.609  0.00  0.00    +0.000 C 
ATOM     26  C   UNL     1     -52.468 -40.550  41.412  0.00  0.00    +0.000 C 
ATOM     27  C   UNL     1     -54.349 -42.875  39.761  0.00  0.00    +0.000 C 
ENDROOT
BRANCH   7  28
ATOM     28  O   UNL     1     -52.434 -38.873  32.437  0.00  0.00    +0.000 OA
ATOM     29  H   UNL     1     -53.288 -38.547  32.776  0.00  0.00    +0.000 HD
ENDBRANCH   7  28
BRANCH  10  30
ATOM     30  O   UNL     1     -53.515 -39.142  35.319  0.00  0.00    +0.000 OA
ATOM     31  H   UNL     1     -53.688 -38.263  35.717  0.00  0.00    +0.000 HD
ENDBRANCH  10  30
BRANCH  13  32
ATOM     32  O   UNL     1     -49.230 -37.347  35.306  0.00  0.00    +0.000 OA
ATOM     33  H   UNL     1     -48.734 -37.244  34.479  0.00  0.00    +0.000 HD
ENDBRANCH  13  32
BRANCH  19  34
ATOM     34  O   UNL     1     -57.510 -41.398  36.859  0.00  0.00    +0.000 OA
ATOM     35  H   UNL     1     -58.079 -41.596  37.631  0.00  0.00    +0.000 HD
ENDBRANCH  19  34
BRANCH  21  36
ATOM     36  O   UNL     1     -56.801 -40.796  39.330  0.00  0.00    +0.000 OA
ATOM     37  C   UNL     1     -56.757 -39.423  39.628  0.00  0.00    +0.000 C 
ENDBRANCH  21  36
BRANCH  20  38
ATOM     38  O   UNL     1     -49.838 -40.153  40.331  0.00  0.00    +0.000 OA
BRANCH  38  40
ATOM     39  O   UNL     1     -49.325 -42.273  41.151  0.00  0.00    +0.000 OA
ATOM     40  C   UNL     1     -49.032 -41.191  40.676  0.00  0.00    +0.000 C 
ATOM     41  C   UNL     1     -47.579 -40.941  40.514  0.00  0.00    +0.000 C 
ENDBRANCH  38  40
ENDBRANCH  20  38
BRANCH   6  42
ATOM     42  C   UNL     1     -54.089 -41.714  31.450  0.00  0.00    +0.000 C 
BRANCH  42  44
ATOM     43  O   UNL     1     -55.946 -41.639  29.736  0.00  0.00    +0.000 OA
ATOM     44  C   UNL     1     -55.086 -40.938  30.667  0.00  0.00    +0.000 C 
ATOM     45  C   UNL     1     -56.463 -41.321  30.961  0.00  0.00    +0.000 C 
ATOM     46  C   UNL     1     -54.648 -39.578  30.028  0.00  0.00    +0.000 C 
BRANCH  45  47
ATOM     47  C   UNL     1     -57.569 -40.412  30.988  0.00  0.00    +0.000 C 
ATOM     48  C   UNL     1     -58.418 -40.212  29.758  0.00  0.00    +0.000 C 
BRANCH  47  49
ATOM     49  C   UNL     1     -58.161 -40.041  32.222  0.00  0.00    +0.000 C 
ATOM     50  C   UNL     1     -58.622 -39.672  33.265  0.00  0.00    +0.000 C 
ATOM     51  C   UNL     1     -59.126 -39.112  34.598  0.00  0.00    +0.000 C 
ENDBRANCH  47  49
ENDBRANCH  45  47
ENDBRANCH  42  44
BRANCH  42  52
ATOM     52  O   UNL     1     -53.318 -42.723  30.888  0.00  0.00    +0.000 OA
ATOM     53  H   UNL     1     -53.307 -43.530  31.441  0.00  0.00    +0.000 HD
ENDBRANCH  42  52
ENDBRANCH   6  42
TORSDOF 12
ENDMDL
MODEL 7
REMARK VINA RESULT:      -6.8      2.624      6.496
REMARK  Name = 101808842_CandidaspongiolideB.pdbqt.pdb
REMARK  12 active torsions:
REMARK  status: ('A' for Active; 'I' for Inactive)
REMARK    1  A    between atoms: C_6  and  C_42
REMARK    2  A    between atoms: C_7  and  O_28
REMARK    3  A    between atoms: C_10  and  O_30
REMARK    4  A    between atoms: C_13  and  O_32
REMARK    5  A    between atoms: C_19  and  O_34
REMARK    6  A    between atoms: C_20  and  O_38
REMARK    7  A    between atoms: C_21  and  O_36
REMARK    8  A    between atoms: O_38  and  C_40
REMARK    9  A    between atoms: C_42  and  C_44
REMARK   10  A    between atoms: C_42  and  O_52
REMARK   11  A    between atoms: C_45  and  C_47
REMARK   12  A    between atoms: C_47  and  C_49
REMARK                            x       y       z     vdW  Elec       q    Type
REMARK                         _______ _______ _______ _____ _____    ______ ____
ROOT
ATOM      1  O   UNL     1     -57.223 -69.845  39.285  0.00  0.00    +0.000 OA
ATOM      2  O   UNL     1     -62.221 -71.174  43.809  0.00  0.00    +0.000 OA
ATOM      3  O   UNL     1     -60.934 -70.515  39.818  0.00  0.00    +0.000 OA
ATOM      4  O   UNL     1     -61.026 -72.767  42.643  0.00  0.00    +0.000 OA
ATOM      5  O   UNL     1     -58.299 -73.314  43.659  0.00  0.00    +0.000 OA
ATOM      6  C   UNL     1     -61.727 -69.428  41.734  0.00  0.00    +0.000 C 
ATOM      7  C   UNL     1     -59.223 -69.292  41.099  0.00  0.00    +0.000 C 
ATOM      8  C   UNL     1     -60.642 -69.816  40.789  0.00  0.00    +0.000 C 
ATOM      9  C   UNL     1     -62.036 -70.314  42.805  0.00  0.00    +0.000 C 
ATOM     10  C   UNL     1     -58.477 -70.264  42.035  0.00  0.00    +0.000 C 
ATOM     11  C   UNL     1     -57.251 -70.783  41.521  0.00  0.00    +0.000 C 
ATOM     12  C   UNL     1     -58.325 -69.372  39.903  0.00  0.00    +0.000 C 
ATOM     13  C   UNL     1     -56.472 -70.693  40.247  0.00  0.00    +0.000 C 
ATOM     14  C   UNL     1     -56.252 -72.083  39.633  0.00  0.00    +0.000 C 
ATOM     15  C   UNL     1     -56.986 -73.217  40.093  0.00  0.00    +0.000 C 
ATOM     16  C   UNL     1     -55.201 -72.450  38.590  0.00  0.00    +0.000 C 
ATOM     17  C   UNL     1     -61.578 -72.364  43.658  0.00  0.00    +0.000 C 
ATOM     18  C   UNL     1     -57.669 -74.206  40.581  0.00  0.00    +0.000 C 
ATOM     19  C   UNL     1     -61.548 -73.104  44.941  0.00  0.00    +0.000 C 
ATOM     20  C   UNL     1     -57.132 -75.064  41.612  0.00  0.00    +0.000 C 
ATOM     21  C   UNL     1     -60.599 -74.176  45.170  0.00  0.00    +0.000 C 
ATOM     22  C   UNL     1     -57.821 -75.493  42.827  0.00  0.00    +0.000 C 
ATOM     23  C   UNL     1     -59.941 -74.991  44.160  0.00  0.00    +0.000 C 
ATOM     24  C   UNL     1     -58.665 -74.490  43.557  0.00  0.00    +0.000 C 
ATOM     25  C   UNL     1     -59.111 -74.295  40.168  0.00  0.00    +0.000 C 
ATOM     26  C   UNL     1     -57.319 -76.719  43.587  0.00  0.00    +0.000 C 
ATOM     27  C   UNL     1     -60.693 -76.184  43.579  0.00  0.00    +0.000 C 
ENDROOT
BRANCH   7  28
ATOM     28  O   UNL     1     -59.146 -67.988  41.639  0.00  0.00    +0.000 OA
ATOM     29  H   UNL     1     -58.980 -67.389  40.888  0.00  0.00    +0.000 HD
ENDBRANCH   7  28
BRANCH  10  30
ATOM     30  O   UNL     1     -58.942 -70.597  43.280  0.00  0.00    +0.000 OA
ATOM     31  H   UNL     1     -58.370 -71.271  43.704  0.00  0.00    +0.000 HD
ENDBRANCH  10  30
BRANCH  13  32
ATOM     32  O   UNL     1     -55.231 -70.058  40.538  0.00  0.00    +0.000 OA
ATOM     33  H   UNL     1     -55.451 -69.291  41.091  0.00  0.00    +0.000 HD
ENDBRANCH  13  32
BRANCH  19  34
ATOM     34  O   UNL     1     -62.314 -72.722  46.026  0.00  0.00    +0.000 OA
ATOM     35  H   UNL     1     -61.935 -73.003  46.884  0.00  0.00    +0.000 HD
ENDBRANCH  19  34
BRANCH  21  36
ATOM     36  O   UNL     1     -60.608 -74.691  46.457  0.00  0.00    +0.000 OA
ATOM     37  C   UNL     1     -59.461 -74.290  47.165  0.00  0.00    +0.000 C 
ENDBRANCH  21  36
BRANCH  20  38
ATOM     38  O   UNL     1     -55.950 -75.755  41.253  0.00  0.00    +0.000 OA
BRANCH  38  40
ATOM     39  O   UNL     1     -56.977 -77.513  40.119  0.00  0.00    +0.000 OA
ATOM     40  C   UNL     1     -56.181 -76.597  40.212  0.00  0.00    +0.000 C 
ATOM     41  C   UNL     1     -55.283 -76.415  39.045  0.00  0.00    +0.000 C 
ENDBRANCH  38  40
ENDBRANCH  20  38
BRANCH   6  42
ATOM     42  C   UNL     1     -62.558 -68.292  41.403  0.00  0.00    +0.000 C 
BRANCH  42  44
ATOM     43  O   UNL     1     -64.549 -69.624  40.595  0.00  0.00    +0.000 OA
ATOM     44  C   UNL     1     -63.752 -68.417  40.526  0.00  0.00    +0.000 C 
ATOM     45  C   UNL     1     -64.999 -68.526  41.276  0.00  0.00    +0.000 C 
ATOM     46  C   UNL     1     -63.638 -67.968  39.031  0.00  0.00    +0.000 C 
BRANCH  45  47
ATOM     47  C   UNL     1     -66.248 -67.964  40.858  0.00  0.00    +0.000 C 
ATOM     48  C   UNL     1     -66.445 -66.469  40.857  0.00  0.00    +0.000 C 
BRANCH  47  49
ATOM     49  C   UNL     1     -67.130 -68.711  40.037  0.00  0.00    +0.000 C 
ATOM     50  C   UNL     1     -67.904 -69.368  39.400  0.00  0.00    +0.000 C 
ATOM     51  C   UNL     1     -68.925 -70.262  38.691  0.00  0.00    +0.000 C 
ENDBRANCH  47  49
ENDBRANCH  45  47
ENDBRANCH  42  44
BRANCH  42  52
ATOM     52  O   UNL     1     -62.180 -67.089  41.985  0.00  0.00    +0.000 OA
ATOM     53  H   UNL     1     -62.800 -66.809  42.688  0.00  0.00    +0.000 HD
ENDBRANCH  42  52
ENDBRANCH   6  42
TORSDOF 12
ENDMDL
MODEL 8
REMARK VINA RESULT:      -6.7     35.049     37.889
REMARK  Name = 101808842_CandidaspongiolideB.pdbqt.pdb
REMARK  12 active torsions:
REMARK  status: ('A' for Active; 'I' for Inactive)
REMARK    1  A    between atoms: C_6  and  C_42
REMARK    2  A    between atoms: C_7  and  O_28
REMARK    3  A    between atoms: C_10  and  O_30
REMARK    4  A    between atoms: C_13  and  O_32
REMARK    5  A    between atoms: C_19  and  O_34
REMARK    6  A    between atoms: C_20  and  O_38
REMARK    7  A    between atoms: C_21  and  O_36
REMARK    8  A    between atoms: O_38  and  C_40
REMARK    9  A    between atoms: C_42  and  C_44
REMARK   10  A    between atoms: C_42  and  O_52
REMARK   11  A    between atoms: C_45  and  C_47
REMARK   12  A    between atoms: C_47  and  C_49
REMARK                            x       y       z     vdW  Elec       q    Type
REMARK                         _______ _______ _______ _____ _____    ______ ____
ROOT
ATOM      1  O   UNL     1     -37.056 -41.991  44.085  0.00  0.00    +0.000 OA
ATOM      2  O   UNL     1     -39.772 -41.854  50.396  0.00  0.00    +0.000 OA
ATOM      3  O   UNL     1     -36.440 -41.424  47.801  0.00  0.00    +0.000 OA
ATOM      4  O   UNL     1     -39.547 -40.026  49.006  0.00  0.00    +0.000 OA
ATOM      5  O   UNL     1     -41.542 -39.826  46.827  0.00  0.00    +0.000 OA
ATOM      6  C   UNL     1     -37.612 -42.978  49.102  0.00  0.00    +0.000 C 
ATOM      7  C   UNL     1     -37.862 -42.981  46.528  0.00  0.00    +0.000 C 
ATOM      8  C   UNL     1     -37.233 -42.367  47.797  0.00  0.00    +0.000 C 
ATOM      9  C   UNL     1     -38.705 -42.411  49.819  0.00  0.00    +0.000 C 
ATOM     10  C   UNL     1     -39.216 -42.315  46.215  0.00  0.00    +0.000 C 
ATOM     11  C   UNL     1     -39.310 -41.698  44.932  0.00  0.00    +0.000 C 
ATOM     12  C   UNL     1     -37.112 -42.595  45.290  0.00  0.00    +0.000 C 
ATOM     13  C   UNL     1     -38.404 -41.451  43.767  0.00  0.00    +0.000 C 
ATOM     14  C   UNL     1     -38.290 -39.950  43.462  0.00  0.00    +0.000 C 
ATOM     15  C   UNL     1     -38.750 -38.972  44.393  0.00  0.00    +0.000 C 
ATOM     16  C   UNL     1     -37.806 -39.333  42.154  0.00  0.00    +0.000 C 
ATOM     17  C   UNL     1     -40.168 -40.680  49.832  0.00  0.00    +0.000 C 
ATOM     18  C   UNL     1     -39.215 -38.141  45.274  0.00  0.00    +0.000 C 
ATOM     19  C   UNL     1     -41.529 -40.318  50.291  0.00  0.00    +0.000 C 
ATOM     20  C   UNL     1     -40.554 -37.606  45.180  0.00  0.00    +0.000 C 
ATOM     21  C   UNL     1     -42.343 -39.366  49.559  0.00  0.00    +0.000 C 
ATOM     22  C   UNL     1     -41.526 -37.512  46.268  0.00  0.00    +0.000 C 
ATOM     23  C   UNL     1     -41.870 -38.319  48.665  0.00  0.00    +0.000 C 
ATOM     24  C   UNL     1     -41.632 -38.660  47.227  0.00  0.00    +0.000 C 
ATOM     25  C   UNL     1     -38.372 -37.917  46.496  0.00  0.00    +0.000 C 
ATOM     26  C   UNL     1     -42.704 -36.548  46.145  0.00  0.00    +0.000 C 
ATOM     27  C   UNL     1     -41.401 -37.000  49.269  0.00  0.00    +0.000 C 
ENDROOT
BRANCH   7  28
ATOM     28  O   UNL     1     -38.034 -44.384  46.536  0.00  0.00    +0.000 OA
ATOM     29  H   UNL     1     -37.270 -44.752  47.016  0.00  0.00    +0.000 HD
ENDBRANCH   7  28
BRANCH  10  30
ATOM     30  O   UNL     1     -40.268 -42.325  47.094  0.00  0.00    +0.000 OA
ATOM     31  H   UNL     1     -40.005 -42.706  47.958  0.00  0.00    +0.000 HD
ENDBRANCH  10  30
BRANCH  13  32
ATOM     32  O   UNL     1     -38.926 -42.164  42.650  0.00  0.00    +0.000 OA
ATOM     33  H   UNL     1     -38.514 -41.764  41.867  0.00  0.00    +0.000 HD
ENDBRANCH  13  32
BRANCH  19  34
ATOM     34  O   UNL     1     -42.145 -40.968  51.344  0.00  0.00    +0.000 OA
ATOM     35  H   UNL     1     -43.077 -40.696  51.472  0.00  0.00    +0.000 HD
ENDBRANCH  19  34
BRANCH  21  36
ATOM     36  O   UNL     1     -43.635 -39.222  50.037  0.00  0.00    +0.000 OA
ATOM     37  C   UNL     1     -44.566 -39.780  49.144  0.00  0.00    +0.000 C 
ENDBRANCH  21  36
BRANCH  20  38
ATOM     38  O   UNL     1     -40.817 -36.864  44.004  0.00  0.00    +0.000 OA
BRANCH  38  40
ATOM     39  O   UNL     1     -42.076 -38.636  43.163  0.00  0.00    +0.000 OA
ATOM     40  C   UNL     1     -41.360 -37.658  43.045  0.00  0.00    +0.000 C 
ATOM     41  C   UNL     1     -40.968 -37.324  41.654  0.00  0.00    +0.000 C 
ENDBRANCH  38  40
ENDBRANCH  20  38
BRANCH   6  42
ATOM     42  C   UNL     1     -36.731 -43.965  49.684  0.00  0.00    +0.000 C 
BRANCH  42  44
ATOM     43  O   UNL     1     -34.500 -43.915  50.873  0.00  0.00    +0.000 OA
ATOM     44  C   UNL     1     -35.930 -43.686  50.905  0.00  0.00    +0.000 C 
ATOM     45  C   UNL     1     -34.942 -42.630  50.708  0.00  0.00    +0.000 C 
ATOM     46  C   UNL     1     -36.486 -44.149  52.293  0.00  0.00    +0.000 C 
BRANCH  45  47
ATOM     47  C   UNL     1     -34.565 -41.676  51.706  0.00  0.00    +0.000 C 
ATOM     48  C   UNL     1     -33.129 -41.572  52.153  0.00  0.00    +0.000 C 
BRANCH  47  49
ATOM     49  C   UNL     1     -35.382 -40.545  51.959  0.00  0.00    +0.000 C 
ATOM     50  C   UNL     1     -36.064 -39.571  52.108  0.00  0.00    +0.000 C 
ATOM     51  C   UNL     1     -36.903 -38.292  52.185  0.00  0.00    +0.000 C 
ENDBRANCH  47  49
ENDBRANCH  45  47
ENDBRANCH  42  44
BRANCH  42  52
ATOM     52  O   UNL     1     -36.711 -45.197  49.042  0.00  0.00    +0.000 OA
ATOM     53  H   UNL     1     -36.145 -45.187  48.244  0.00  0.00    +0.000 HD
ENDBRANCH  42  52
ENDBRANCH   6  42
TORSDOF 12
ENDMDL
MODEL 9
REMARK VINA RESULT:      -6.7     16.178     20.115
REMARK  Name = 101808842_CandidaspongiolideB.pdbqt.pdb
REMARK  12 active torsions:
REMARK  status: ('A' for Active; 'I' for Inactive)
REMARK    1  A    between atoms: C_6  and  C_42
REMARK    2  A    between atoms: C_7  and  O_28
REMARK    3  A    between atoms: C_10  and  O_30
REMARK    4  A    between atoms: C_13  and  O_32
REMARK    5  A    between atoms: C_19  and  O_34
REMARK    6  A    between atoms: C_20  and  O_38
REMARK    7  A    between atoms: C_21  and  O_36
REMARK    8  A    between atoms: O_38  and  C_40
REMARK    9  A    between atoms: C_42  and  C_44
REMARK   10  A    between atoms: C_42  and  O_52
REMARK   11  A    between atoms: C_45  and  C_47
REMARK   12  A    between atoms: C_47  and  C_49
REMARK                            x       y       z     vdW  Elec       q    Type
REMARK                         _______ _______ _______ _____ _____    ______ ____
ROOT
ATOM      1  O   UNL     1     -40.024 -62.504  35.411  0.00  0.00    +0.000 OA
ATOM      2  O   UNL     1     -46.493 -61.642  37.562  0.00  0.00    +0.000 OA
ATOM      3  O   UNL     1     -43.724 -62.899  34.600  0.00  0.00    +0.000 OA
ATOM      4  O   UNL     1     -45.261 -63.578  37.799  0.00  0.00    +0.000 OA
ATOM      5  O   UNL     1     -43.251 -63.553  39.973  0.00  0.00    +0.000 OA
ATOM      6  C   UNL     1     -44.959 -61.056  35.348  0.00  0.00    +0.000 C 
ATOM      7  C   UNL     1     -42.418 -61.197  35.809  0.00  0.00    +0.000 C 
ATOM      8  C   UNL     1     -43.691 -61.824  35.201  0.00  0.00    +0.000 C 
ATOM      9  C   UNL     1     -45.797 -61.346  36.462  0.00  0.00    +0.000 C 
ATOM     10  C   UNL     1     -42.260 -61.612  37.286  0.00  0.00    +0.000 C 
ATOM     11  C   UNL     1     -41.047 -62.294  37.600  0.00  0.00    +0.000 C 
ATOM     12  C   UNL     1     -41.171 -61.813  35.252  0.00  0.00    +0.000 C 
ATOM     13  C   UNL     1     -39.849 -62.797  36.858  0.00  0.00    +0.000 C 
ATOM     14  C   UNL     1     -39.673 -64.310  37.051  0.00  0.00    +0.000 C 
ATOM     15  C   UNL     1     -40.717 -65.109  37.606  0.00  0.00    +0.000 C 
ATOM     16  C   UNL     1     -38.395 -65.106  36.803  0.00  0.00    +0.000 C 
ATOM     17  C   UNL     1     -46.066 -62.757  38.215  0.00  0.00    +0.000 C 
ATOM     18  C   UNL     1     -41.698 -65.767  38.141  0.00  0.00    +0.000 C 
ATOM     19  C   UNL     1     -46.647 -62.815  39.577  0.00  0.00    +0.000 C 
ATOM     20  C   UNL     1     -41.745 -66.039  39.559  0.00  0.00    +0.000 C 
ATOM     21  C   UNL     1     -46.062 -63.644  40.612  0.00  0.00    +0.000 C 
ATOM     22  C   UNL     1     -42.901 -65.862  40.436  0.00  0.00    +0.000 C 
ATOM     23  C   UNL     1     -45.235 -64.826  40.420  0.00  0.00    +0.000 C 
ATOM     24  C   UNL     1     -43.759 -64.646  40.245  0.00  0.00    +0.000 C 
ATOM     25  C   UNL     1     -42.875 -66.057  37.254  0.00  0.00    +0.000 C 
ATOM     26  C   UNL     1     -42.946 -66.587  41.780  0.00  0.00    +0.000 C 
ATOM     27  C   UNL     1     -45.921 -66.162  40.155  0.00  0.00    +0.000 C 
ENDROOT
BRANCH   7  28
ATOM     28  O   UNL     1     -42.312 -59.791  35.715  0.00  0.00    +0.000 OA
ATOM     29  H   UNL     1     -42.329 -59.577  34.765  0.00  0.00    +0.000 HD
ENDBRANCH   7  28
BRANCH  10  30
ATOM     30  O   UNL     1     -43.205 -61.334  38.239  0.00  0.00    +0.000 OA
ATOM     31  H   UNL     1     -43.906 -62.019  38.255  0.00  0.00    +0.000 HD
ENDBRANCH  10  30
BRANCH  13  32
ATOM     32  O   UNL     1     -38.711 -62.083  37.331  0.00  0.00    +0.000 OA
ATOM     33  H   UNL     1     -38.864 -61.941  38.279  0.00  0.00    +0.000 HD
ENDBRANCH  13  32
BRANCH  19  34
ATOM     34  O   UNL     1     -47.678 -61.982  39.970  0.00  0.00    +0.000 OA
ATOM     35  H   UNL     1     -47.763 -61.183  39.409  0.00  0.00    +0.000 HD
ENDBRANCH  19  34
BRANCH  21  36
ATOM     36  O   UNL     1     -46.639 -63.501  41.863  0.00  0.00    +0.000 OA
ATOM     37  C   UNL     1     -45.727 -62.940  42.775  0.00  0.00    +0.000 C 
ENDBRANCH  21  36
BRANCH  20  38
ATOM     38  O   UNL     1     -40.661 -66.802  40.054  0.00  0.00    +0.000 OA
BRANCH  38  40
ATOM     39  O   UNL     1     -41.507 -68.910  39.532  0.00  0.00    +0.000 OA
ATOM     40  C   UNL     1     -40.653 -68.043  39.502  0.00  0.00    +0.000 C 
ATOM     41  C   UNL     1     -39.390 -68.421  38.822  0.00  0.00    +0.000 C 
ENDBRANCH  38  40
ENDBRANCH  20  38
BRANCH   6  42
ATOM     42  C   UNL     1     -45.388 -60.216  34.252  0.00  0.00    +0.000 C 
BRANCH  42  44
ATOM     43  O   UNL     1     -46.242 -60.121  31.874  0.00  0.00    +0.000 OA
ATOM     44  C   UNL     1     -46.313 -60.707  33.196  0.00  0.00    +0.000 C 
ATOM     45  C   UNL     1     -45.616 -61.321  32.071  0.00  0.00    +0.000 C 
ATOM     46  C   UNL     1     -47.814 -60.949  33.564  0.00  0.00    +0.000 C 
BRANCH  45  47
ATOM     47  C   UNL     1     -46.106 -62.443  31.329  0.00  0.00    +0.000 C 
ATOM     48  C   UNL     1     -46.334 -62.329  29.843  0.00  0.00    +0.000 C 
BRANCH  47  49
ATOM     49  C   UNL     1     -45.960 -63.758  31.839  0.00  0.00    +0.000 C 
ATOM     50  C   UNL     1     -45.885 -64.854  32.317  0.00  0.00    +0.000 C 
ATOM     51  C   UNL     1     -45.861 -66.215  33.019  0.00  0.00    +0.000 C 
ENDBRANCH  47  49
ENDBRANCH  45  47
ENDBRANCH  42  44
BRANCH  42  52
ATOM     52  O   UNL     1     -44.902 -58.915  34.274  0.00  0.00    +0.000 OA
ATOM     53  H   UNL     1     -43.923 -58.888  34.269  0.00  0.00    +0.000 HD
ENDBRANCH  42  52
ENDBRANCH   6  42
TORSDOF 12
ENDMDL
