MODEL 1
REMARK VINA RESULT:      -7.6      0.000      0.000
REMARK  Name = 102471178_CandidaspongiolideCore.pdbqt.pdb
REMARK  13 active torsions:
REMARK  status: ('A' for Active; 'I' for Inactive)
REMARK    1  A    between atoms: C_6  and  C_39
REMARK    2  A    between atoms: C_8  and  O_27
REMARK    3  A    between atoms: C_8  and  C_51
REMARK    4  A    between atoms: C_10  and  O_29
REMARK    5  A    between atoms: C_15  and  O_31
REMARK    6  A    between atoms: C_16  and  O_33
REMARK    7  A    between atoms: C_21  and  O_35
REMARK    8  A    between atoms: O_35  and  C_37
REMARK    9  A    between atoms: C_39  and  C_41
REMARK   10  A    between atoms: C_39  and  O_49
REMARK   11  A    between atoms: C_42  and  C_44
REMARK   12  A    between atoms: C_44  and  C_46
REMARK   13  A    between atoms: C_51  and  O_52
REMARK                            x       y       z     vdW  Elec       q    Type
REMARK                         _______ _______ _______ _____ _____    ______ ____
ROOT
ATOM      1  O   UNL     1     -58.890 -68.183  40.731  0.00  0.00    +0.000 OA
ATOM      2  O   UNL     1     -60.535 -69.749  40.387  0.00  0.00    +0.000 OA
ATOM      3  O   UNL     1     -65.119 -71.393  39.539  0.00  0.00    +0.000 OA
ATOM      4  O   UNL     1     -57.284 -68.925  39.327  0.00  0.00    +0.000 OA
ATOM      5  O   UNL     1     -58.395 -72.261  39.481  0.00  0.00    +0.000 OA
ATOM      6  C   UNL     1     -61.090 -67.480  40.930  0.00  0.00    +0.000 C 
ATOM      7  C   UNL     1     -62.368 -67.693  41.517  0.00  0.00    +0.000 C 
ATOM      8  C   UNL     1     -63.654 -67.777  42.215  0.00  0.00    +0.000 C 
ATOM      9  C   UNL     1     -60.167 -68.609  40.641  0.00  0.00    +0.000 C 
ATOM     10  C   UNL     1     -64.765 -68.260  41.308  0.00  0.00    +0.000 C 
ATOM     11  C   UNL     1     -64.631 -69.310  40.361  0.00  0.00    +0.000 C 
ATOM     12  C   UNL     1     -64.410 -70.399  39.432  0.00  0.00    +0.000 C 
ATOM     13  C   UNL     1     -57.955 -69.070  40.342  0.00  0.00    +0.000 C 
ATOM     14  C   UNL     1     -63.320 -70.316  38.413  0.00  0.00    +0.000 C 
ATOM     15  C   UNL     1     -57.546 -70.071  41.359  0.00  0.00    +0.000 C 
ATOM     16  C   UNL     1     -58.466 -70.856  42.157  0.00  0.00    +0.000 C 
ATOM     17  C   UNL     1     -59.034 -72.142  41.776  0.00  0.00    +0.000 C 
ATOM     18  C   UNL     1     -62.663 -71.499  37.995  0.00  0.00    +0.000 C 
ATOM     19  C   UNL     1     -60.653 -72.847  39.918  0.00  0.00    +0.000 C 
ATOM     20  C   UNL     1     -62.678 -68.995  38.012  0.00  0.00    +0.000 C 
ATOM     21  C   UNL     1     -60.899 -73.062  38.496  0.00  0.00    +0.000 C 
ATOM     22  C   UNL     1     -59.275 -72.427  40.329  0.00  0.00    +0.000 C 
ATOM     23  C   UNL     1     -62.045 -72.606  37.720  0.00  0.00    +0.000 C 
ATOM     24  C   UNL     1     -59.098 -73.303  42.764  0.00  0.00    +0.000 C 
ATOM     25  C   UNL     1     -61.838 -72.767  40.870  0.00  0.00    +0.000 C 
ATOM     26  C   UNL     1     -62.551 -73.365  36.521  0.00  0.00    +0.000 C 
ENDROOT
BRANCH   8  27
ATOM     27  O   UNL     1     -63.955 -66.444  42.635  0.00  0.00    +0.000 OA
ATOM     28  H   UNL     1     -63.266 -65.896  42.208  0.00  0.00    +0.000 HD
ENDBRANCH   8  27
BRANCH  10  29
ATOM     29  O   UNL     1     -66.005 -67.659  41.460  0.00  0.00    +0.000 OA
ATOM     30  H   UNL     1     -66.170 -67.381  42.380  0.00  0.00    +0.000 HD
ENDBRANCH  10  29
BRANCH  15  31
ATOM     31  O   UNL     1     -56.292 -70.647  41.228  0.00  0.00    +0.000 OA
ATOM     32  H   UNL     1     -55.599 -70.041  41.567  0.00  0.00    +0.000 HD
ENDBRANCH  15  31
BRANCH  16  33
ATOM     33  O   UNL     1     -58.409 -70.624  43.519  0.00  0.00    +0.000 OA
ATOM     34  C   UNL     1     -57.071 -70.693  43.947  0.00  0.00    +0.000 C 
ENDBRANCH  16  33
BRANCH  21  35
ATOM     35  O   UNL     1     -59.992 -73.956  37.873  0.00  0.00    +0.000 OA
BRANCH  35  37
ATOM     36  O   UNL     1     -61.070 -75.958  38.422  0.00  0.00    +0.000 OA
ATOM     37  C   UNL     1     -60.097 -75.231  38.340  0.00  0.00    +0.000 C 
ATOM     38  C   UNL     1     -58.813 -75.833  38.784  0.00  0.00    +0.000 C 
ENDBRANCH  35  37
ENDBRANCH  21  35
BRANCH   6  39
ATOM     39  C   UNL     1     -60.753 -66.130  40.539  0.00  0.00    +0.000 C 
BRANCH  39  41
ATOM     40  O   UNL     1     -61.462 -65.003  42.714  0.00  0.00    +0.000 OA
ATOM     41  C   UNL     1     -61.332 -64.971  41.274  0.00  0.00    +0.000 C 
ATOM     42  C   UNL     1     -60.372 -64.365  42.193  0.00  0.00    +0.000 C 
ATOM     43  C   UNL     1     -62.560 -64.210  40.656  0.00  0.00    +0.000 C 
BRANCH  42  44
ATOM     44  C   UNL     1     -60.257 -62.958  42.432  0.00  0.00    +0.000 C 
ATOM     45  C   UNL     1     -60.916 -62.336  43.641  0.00  0.00    +0.000 C 
BRANCH  44  46
ATOM     46  C   UNL     1     -59.194 -62.215  41.858  0.00  0.00    +0.000 C 
ATOM     47  C   UNL     1     -58.280 -61.628  41.350  0.00  0.00    +0.000 C 
ATOM     48  C   UNL     1     -57.097 -60.935  40.661  0.00  0.00    +0.000 C 
ENDBRANCH  44  46
ENDBRANCH  42  44
ENDBRANCH  39  41
BRANCH  39  49
ATOM     49  O   UNL     1     -59.939 -65.983  39.429  0.00  0.00    +0.000 OA
ATOM     50  H   UNL     1     -59.159 -66.570  39.419  0.00  0.00    +0.000 HD
ENDBRANCH  39  49
ENDBRANCH   6  39
BRANCH   8  51
ATOM     51  C   UNL     1     -63.574 -68.619  43.420  0.00  0.00    +0.000 C 
BRANCH  51  52
ATOM     52  O   UNL     1     -63.478 -69.350  44.531  0.00  0.00    +0.000 OA
ATOM     53  H   UNL     1     -64.345 -69.736  44.772  0.00  0.00    +0.000 HD
ENDBRANCH  51  52
ENDBRANCH   8  51
TORSDOF 13
ENDMDL
MODEL 2
REMARK VINA RESULT:      -7.1     15.481     18.038
REMARK  Name = 102471178_CandidaspongiolideCore.pdbqt.pdb
REMARK  13 active torsions:
REMARK  status: ('A' for Active; 'I' for Inactive)
REMARK    1  A    between atoms: C_6  and  C_39
REMARK    2  A    between atoms: C_8  and  O_27
REMARK    3  A    between atoms: C_8  and  C_51
REMARK    4  A    between atoms: C_10  and  O_29
REMARK    5  A    between atoms: C_15  and  O_31
REMARK    6  A    between atoms: C_16  and  O_33
REMARK    7  A    between atoms: C_21  and  O_35
REMARK    8  A    between atoms: O_35  and  C_37
REMARK    9  A    between atoms: C_39  and  C_41
REMARK   10  A    between atoms: C_39  and  O_49
REMARK   11  A    between atoms: C_42  and  C_44
REMARK   12  A    between atoms: C_44  and  C_46
REMARK   13  A    between atoms: C_51  and  O_52
REMARK                            x       y       z     vdW  Elec       q    Type
REMARK                         _______ _______ _______ _____ _____    ______ ____
ROOT
ATOM      1  O   UNL     1     -45.716 -63.217  37.933  0.00  0.00    +0.000 OA
ATOM      2  O   UNL     1     -44.881 -65.019  36.779  0.00  0.00    +0.000 OA
ATOM      3  O   UNL     1     -43.130 -69.605  36.190  0.00  0.00    +0.000 OA
ATOM      4  O   UNL     1     -47.463 -62.636  36.625  0.00  0.00    +0.000 OA
ATOM      5  O   UNL     1     -46.007 -63.984  33.718  0.00  0.00    +0.000 OA
ATOM      6  C   UNL     1     -44.723 -64.908  39.170  0.00  0.00    +0.000 C 
ATOM      7  C   UNL     1     -43.589 -65.745  39.362  0.00  0.00    +0.000 C 
ATOM      8  C   UNL     1     -42.389 -66.517  39.696  0.00  0.00    +0.000 C 
ATOM      9  C   UNL     1     -45.110 -64.417  37.821  0.00  0.00    +0.000 C 
ATOM     10  C   UNL     1     -42.546 -67.986  39.369  0.00  0.00    +0.000 C 
ATOM     11  C   UNL     1     -43.160 -68.486  38.190  0.00  0.00    +0.000 C 
ATOM     12  C   UNL     1     -43.788 -68.909  36.956  0.00  0.00    +0.000 C 
ATOM     13  C   UNL     1     -46.253 -62.731  36.798  0.00  0.00    +0.000 C 
ATOM     14  C   UNL     1     -45.175 -68.464  36.620  0.00  0.00    +0.000 C 
ATOM     15  C   UNL     1     -45.320 -62.020  35.889  0.00  0.00    +0.000 C 
ATOM     16  C   UNL     1     -44.027 -62.527  35.477  0.00  0.00    +0.000 C 
ATOM     17  C   UNL     1     -43.780 -63.384  34.325  0.00  0.00    +0.000 C 
ATOM     18  C   UNL     1     -45.539 -68.274  35.265  0.00  0.00    +0.000 C 
ATOM     19  C   UNL     1     -44.468 -65.790  33.768  0.00  0.00    +0.000 C 
ATOM     20  C   UNL     1     -46.134 -67.924  37.672  0.00  0.00    +0.000 C 
ATOM     21  C   UNL     1     -45.522 -66.733  33.412  0.00  0.00    +0.000 C 
ATOM     22  C   UNL     1     -44.842 -64.345  33.898  0.00  0.00    +0.000 C 
ATOM     23  C   UNL     1     -45.781 -68.035  34.013  0.00  0.00    +0.000 C 
ATOM     24  C   UNL     1     -42.618 -63.116  33.373  0.00  0.00    +0.000 C 
ATOM     25  C   UNL     1     -43.135 -66.326  34.273  0.00  0.00    +0.000 C 
ATOM     26  C   UNL     1     -46.394 -69.168  33.231  0.00  0.00    +0.000 C 
ENDROOT
BRANCH   8  27
ATOM     27  O   UNL     1     -42.221 -66.379  41.109  0.00  0.00    +0.000 OA
ATOM     28  H   UNL     1     -43.081 -66.659  41.483  0.00  0.00    +0.000 HD
ENDBRANCH   8  27
BRANCH  10  29
ATOM     29  O   UNL     1     -42.002 -68.890  40.268  0.00  0.00    +0.000 OA
ATOM     30  H   UNL     1     -41.044 -68.755  40.393  0.00  0.00    +0.000 HD
ENDBRANCH  10  29
BRANCH  15  31
ATOM     31  O   UNL     1     -45.857 -61.090  35.013  0.00  0.00    +0.000 OA
ATOM     32  H   UNL     1     -46.414 -60.444  35.498  0.00  0.00    +0.000 HD
ENDBRANCH  15  31
BRANCH  16  33
ATOM     33  O   UNL     1     -42.942 -61.774  35.886  0.00  0.00    +0.000 OA
ATOM     34  C   UNL     1     -42.330 -62.400  36.987  0.00  0.00    +0.000 C 
ENDBRANCH  16  33
BRANCH  21  35
ATOM     35  O   UNL     1     -46.247 -66.388  32.243  0.00  0.00    +0.000 OA
BRANCH  35  37
ATOM     36  O   UNL     1     -44.737 -67.296  30.703  0.00  0.00    +0.000 OA
ATOM     37  C   UNL     1     -45.484 -66.427  31.115  0.00  0.00    +0.000 C 
ATOM     38  C   UNL     1     -45.619 -65.235  30.238  0.00  0.00    +0.000 C 
ENDBRANCH  35  37
ENDBRANCH  21  35
BRANCH   6  39
ATOM     39  C   UNL     1     -45.543 -64.621  40.325  0.00  0.00    +0.000 C 
BRANCH  39  41
ATOM     40  O   UNL     1     -46.509 -62.401  41.126  0.00  0.00    +0.000 OA
ATOM     41  C   UNL     1     -45.398 -63.323  41.043  0.00  0.00    +0.000 C 
ATOM     42  C   UNL     1     -46.293 -63.226  42.193  0.00  0.00    +0.000 C 
ATOM     43  C   UNL     1     -44.058 -62.516  40.901  0.00  0.00    +0.000 C 
BRANCH  42  44
ATOM     44  C   UNL     1     -45.947 -62.615  43.440  0.00  0.00    +0.000 C 
ATOM     45  C   UNL     1     -46.624 -61.334  43.871  0.00  0.00    +0.000 C 
BRANCH  44  46
ATOM     46  C   UNL     1     -45.352 -63.378  44.476  0.00  0.00    +0.000 C 
ATOM     47  C   UNL     1     -44.884 -64.057  45.347  0.00  0.00    +0.000 C 
ATOM     48  C   UNL     1     -44.330 -64.978  46.441  0.00  0.00    +0.000 C 
ENDBRANCH  44  46
ENDBRANCH  42  44
ENDBRANCH  39  41
BRANCH  39  49
ATOM     49  O   UNL     1     -46.396 -65.624  40.754  0.00  0.00    +0.000 OA
ATOM     50  H   UNL     1     -46.474 -65.701  41.724  0.00  0.00    +0.000 HD
ENDBRANCH  39  49
ENDBRANCH   6  39
BRANCH   8  51
ATOM     51  C   UNL     1     -41.185 -65.973  39.047  0.00  0.00    +0.000 C 
BRANCH  51  52
ATOM     52  O   UNL     1     -40.114 -65.441  38.457  0.00  0.00    +0.000 OA
ATOM     53  H   UNL     1     -39.322 -65.529  39.024  0.00  0.00    +0.000 HD
ENDBRANCH  51  52
ENDBRANCH   8  51
TORSDOF 13
ENDMDL
MODEL 3
REMARK VINA RESULT:      -6.9     21.469     25.516
REMARK  Name = 102471178_CandidaspongiolideCore.pdbqt.pdb
REMARK  13 active torsions:
REMARK  status: ('A' for Active; 'I' for Inactive)
REMARK    1  A    between atoms: C_6  and  C_39
REMARK    2  A    between atoms: C_8  and  O_27
REMARK    3  A    between atoms: C_8  and  C_51
REMARK    4  A    between atoms: C_10  and  O_29
REMARK    5  A    between atoms: C_15  and  O_31
REMARK    6  A    between atoms: C_16  and  O_33
REMARK    7  A    between atoms: C_21  and  O_35
REMARK    8  A    between atoms: O_35  and  C_37
REMARK    9  A    between atoms: C_39  and  C_41
REMARK   10  A    between atoms: C_39  and  O_49
REMARK   11  A    between atoms: C_42  and  C_44
REMARK   12  A    between atoms: C_44  and  C_46
REMARK   13  A    between atoms: C_51  and  O_52
REMARK                            x       y       z     vdW  Elec       q    Type
REMARK                         _______ _______ _______ _____ _____    ______ ____
ROOT
ATOM      1  O   UNL     1     -44.115 -55.220  34.461  0.00  0.00    +0.000 OA
ATOM      2  O   UNL     1     -41.888 -55.490  33.967  0.00  0.00    +0.000 OA
ATOM      3  O   UNL     1     -37.277 -54.057  32.905  0.00  0.00    +0.000 OA
ATOM      4  O   UNL     1     -44.347 -56.635  36.205  0.00  0.00    +0.000 OA
ATOM      5  O   UNL     1     -41.683 -58.688  35.167  0.00  0.00    +0.000 OA
ATOM      6  C   UNL     1     -42.980 -53.383  33.618  0.00  0.00    +0.000 C 
ATOM      7  C   UNL     1     -42.139 -52.858  32.597  0.00  0.00    +0.000 C 
ATOM      8  C   UNL     1     -41.407 -52.234  31.492  0.00  0.00    +0.000 C 
ATOM      9  C   UNL     1     -42.903 -54.808  34.034  0.00  0.00    +0.000 C 
ATOM     10  C   UNL     1     -39.982 -51.893  31.870  0.00  0.00    +0.000 C 
ATOM     11  C   UNL     1     -39.130 -52.736  32.633  0.00  0.00    +0.000 C 
ATOM     12  C   UNL     1     -38.325 -53.661  33.403  0.00  0.00    +0.000 C 
ATOM     13  C   UNL     1     -44.149 -56.448  35.010  0.00  0.00    +0.000 C 
ATOM     14  C   UNL     1     -38.794 -54.143  34.737  0.00  0.00    +0.000 C 
ATOM     15  C   UNL     1     -44.251 -57.583  34.059  0.00  0.00    +0.000 C 
ATOM     16  C   UNL     1     -43.424 -57.747  32.882  0.00  0.00    +0.000 C 
ATOM     17  C   UNL     1     -42.131 -58.418  32.840  0.00  0.00    +0.000 C 
ATOM     18  C   UNL     1     -38.444 -55.445  35.173  0.00  0.00    +0.000 C 
ATOM     19  C   UNL     1     -39.856 -57.877  33.888  0.00  0.00    +0.000 C 
ATOM     20  C   UNL     1     -39.871 -53.419  35.533  0.00  0.00    +0.000 C 
ATOM     21  C   UNL     1     -39.027 -57.781  35.085  0.00  0.00    +0.000 C 
ATOM     22  C   UNL     1     -41.257 -58.380  34.052  0.00  0.00    +0.000 C 
ATOM     23  C   UNL     1     -38.162 -56.675  35.473  0.00  0.00    +0.000 C 
ATOM     24  C   UNL     1     -41.786 -59.403  31.727  0.00  0.00    +0.000 C 
ATOM     25  C   UNL     1     -39.386 -57.201  32.607  0.00  0.00    +0.000 C 
ATOM     26  C   UNL     1     -36.913 -56.885  36.290  0.00  0.00    +0.000 C 
ENDROOT
BRANCH   8  27
ATOM     27  O   UNL     1     -42.104 -51.021  31.202  0.00  0.00    +0.000 OA
ATOM     28  H   UNL     1     -42.651 -50.860  31.997  0.00  0.00    +0.000 HD
ENDBRANCH   8  27
BRANCH  10  29
ATOM     29  O   UNL     1     -39.474 -50.697  31.389  0.00  0.00    +0.000 OA
ATOM     30  H   UNL     1     -38.565 -50.530  31.702  0.00  0.00    +0.000 HD
ENDBRANCH  10  29
BRANCH  15  31
ATOM     31  O   UNL     1     -44.791 -58.771  34.529  0.00  0.00    +0.000 OA
ATOM     32  H   UNL     1     -44.321 -59.065  35.338  0.00  0.00    +0.000 HD
ENDBRANCH  15  31
BRANCH  16  33
ATOM     33  O   UNL     1     -44.102 -57.713  31.676  0.00  0.00    +0.000 OA
ATOM     34  C   UNL     1     -43.832 -56.496  31.026  0.00  0.00    +0.000 C 
ENDBRANCH  16  33
BRANCH  21  35
ATOM     35  O   UNL     1     -38.949 -58.978  35.841  0.00  0.00    +0.000 OA
BRANCH  35  37
ATOM     36  O   UNL     1     -37.219 -60.006  34.649  0.00  0.00    +0.000 OA
ATOM     37  C   UNL     1     -38.315 -59.985  35.178  0.00  0.00    +0.000 C 
ATOM     38  C   UNL     1     -39.071 -61.263  35.128  0.00  0.00    +0.000 C 
ENDBRANCH  35  37
ENDBRANCH  21  35
BRANCH   6  39
ATOM     39  C   UNL     1     -43.854 -52.458  34.302  0.00  0.00    +0.000 C 
BRANCH  39  41
ATOM     40  O   UNL     1     -46.257 -51.637  34.529  0.00  0.00    +0.000 OA
ATOM     41  C   UNL     1     -45.158 -52.071  33.695  0.00  0.00    +0.000 C 
ATOM     42  C   UNL     1     -45.489 -50.671  33.944  0.00  0.00    +0.000 C 
ATOM     43  C   UNL     1     -45.717 -52.906  32.488  0.00  0.00    +0.000 C 
BRANCH  42  44
ATOM     44  C   UNL     1     -46.125 -49.807  32.996  0.00  0.00    +0.000 C 
ATOM     45  C   UNL     1     -47.263 -48.911  33.429  0.00  0.00    +0.000 C 
BRANCH  44  46
ATOM     46  C   UNL     1     -45.454 -49.423  31.808  0.00  0.00    +0.000 C 
ATOM     47  C   UNL     1     -44.919 -49.061  30.798  0.00  0.00    +0.000 C 
ATOM     48  C   UNL     1     -44.275 -48.539  29.507  0.00  0.00    +0.000 C 
ENDBRANCH  44  46
ENDBRANCH  42  44
ENDBRANCH  39  41
BRANCH  39  49
ATOM     49  O   UNL     1     -43.387 -51.914  35.487  0.00  0.00    +0.000 OA
ATOM     50  H   UNL     1     -43.684 -52.382  36.291  0.00  0.00    +0.000 HD
ENDBRANCH  39  49
ENDBRANCH   6  39
BRANCH   8  51
ATOM     51  C   UNL     1     -41.430 -53.065  30.276  0.00  0.00    +0.000 C 
BRANCH  51  52
ATOM     52  O   UNL     1     -41.442 -53.853  29.201  0.00  0.00    +0.000 OA
ATOM     53  H   UNL     1     -40.532 -54.055  28.904  0.00  0.00    +0.000 HD
ENDBRANCH  51  52
ENDBRANCH   8  51
TORSDOF 13
ENDMDL
MODEL 4
REMARK VINA RESULT:      -6.8     15.489     18.309
REMARK  Name = 102471178_CandidaspongiolideCore.pdbqt.pdb
REMARK  13 active torsions:
REMARK  status: ('A' for Active; 'I' for Inactive)
REMARK    1  A    between atoms: C_6  and  C_39
REMARK    2  A    between atoms: C_8  and  O_27
REMARK    3  A    between atoms: C_8  and  C_51
REMARK    4  A    between atoms: C_10  and  O_29
REMARK    5  A    between atoms: C_15  and  O_31
REMARK    6  A    between atoms: C_16  and  O_33
REMARK    7  A    between atoms: C_21  and  O_35
REMARK    8  A    between atoms: O_35  and  C_37
REMARK    9  A    between atoms: C_39  and  C_41
REMARK   10  A    between atoms: C_39  and  O_49
REMARK   11  A    between atoms: C_42  and  C_44
REMARK   12  A    between atoms: C_44  and  C_46
REMARK   13  A    between atoms: C_51  and  O_52
REMARK                            x       y       z     vdW  Elec       q    Type
REMARK                         _______ _______ _______ _____ _____    ______ ____
ROOT
ATOM      1  O   UNL     1     -46.975 -61.649  37.771  0.00  0.00    +0.000 OA
ATOM      2  O   UNL     1     -45.674 -62.698  36.195  0.00  0.00    +0.000 OA
ATOM      3  O   UNL     1     -42.218 -65.809  34.517  0.00  0.00    +0.000 OA
ATOM      4  O   UNL     1     -49.020 -61.820  36.829  0.00  0.00    +0.000 OA
ATOM      5  O   UNL     1     -47.732 -61.982  33.557  0.00  0.00    +0.000 OA
ATOM      6  C   UNL     1     -45.107 -62.795  38.524  0.00  0.00    +0.000 C 
ATOM      7  C   UNL     1     -43.705 -63.012  38.407  0.00  0.00    +0.000 C 
ATOM      8  C   UNL     1     -42.247 -63.156  38.433  0.00  0.00    +0.000 C 
ATOM      9  C   UNL     1     -45.934 -62.398  37.354  0.00  0.00    +0.000 C 
ATOM     10  C   UNL     1     -41.793 -64.476  37.851  0.00  0.00    +0.000 C 
ATOM     11  C   UNL     1     -42.342 -65.071  36.683  0.00  0.00    +0.000 C 
ATOM     12  C   UNL     1     -42.948 -65.599  35.479  0.00  0.00    +0.000 C 
ATOM     13  C   UNL     1     -47.888 -61.351  36.828  0.00  0.00    +0.000 C 
ATOM     14  C   UNL     1     -44.424 -65.828  35.412  0.00  0.00    +0.000 C 
ATOM     15  C   UNL     1     -47.574 -60.186  35.964  0.00  0.00    +0.000 C 
ATOM     16  C   UNL     1     -46.303 -59.970  35.303  0.00  0.00    +0.000 C 
ATOM     17  C   UNL     1     -45.936 -60.472  33.986  0.00  0.00    +0.000 C 
ATOM     18  C   UNL     1     -45.098 -65.682  34.175  0.00  0.00    +0.000 C 
ATOM     19  C   UNL     1     -45.574 -62.837  33.064  0.00  0.00    +0.000 C 
ATOM     20  C   UNL     1     -45.290 -65.929  36.660  0.00  0.00    +0.000 C 
ATOM     21  C   UNL     1     -46.143 -64.120  32.668  0.00  0.00    +0.000 C 
ATOM     22  C   UNL     1     -46.519 -61.766  33.517  0.00  0.00    +0.000 C 
ATOM     23  C   UNL     1     -45.668 -65.447  33.033  0.00  0.00    +0.000 C 
ATOM     24  C   UNL     1     -45.234 -59.580  32.966  0.00  0.00    +0.000 C 
ATOM     25  C   UNL     1     -44.071 -62.731  33.286  0.00  0.00    +0.000 C 
ATOM     26  C   UNL     1     -45.852 -66.639  32.130  0.00  0.00    +0.000 C 
ENDROOT
BRANCH   8  27
ATOM     27  O   UNL     1     -41.879 -63.115  39.813  0.00  0.00    +0.000 OA
ATOM     28  H   UNL     1     -41.123 -62.494  39.844  0.00  0.00    +0.000 HD
ENDBRANCH   8  27
BRANCH  10  29
ATOM     29  O   UNL     1     -40.735 -65.110  38.483  0.00  0.00    +0.000 OA
ATOM     30  H   UNL     1     -40.954 -66.025  38.740  0.00  0.00    +0.000 HD
ENDBRANCH  10  29
BRANCH  15  31
ATOM     31  O   UNL     1     -48.634 -59.528  35.358  0.00  0.00    +0.000 OA
ATOM     32  H   UNL     1     -48.578 -58.563  35.524  0.00  0.00    +0.000 HD
ENDBRANCH  15  31
BRANCH  16  33
ATOM     33  O   UNL     1     -45.611 -58.844  35.711  0.00  0.00    +0.000 OA
ATOM     34  C   UNL     1     -44.420 -59.236  36.348  0.00  0.00    +0.000 C 
ENDBRANCH  16  33
BRANCH  21  35
ATOM     35  O   UNL     1     -47.164 -64.029  31.687  0.00  0.00    +0.000 OA
BRANCH  35  37
ATOM     36  O   UNL     1     -48.969 -64.722  33.003  0.00  0.00    +0.000 OA
ATOM     37  C   UNL     1     -48.272 -64.754  32.005  0.00  0.00    +0.000 C 
ATOM     38  C   UNL     1     -48.713 -65.703  30.950  0.00  0.00    +0.000 C 
ENDBRANCH  35  37
ENDBRANCH  21  35
BRANCH   6  39
ATOM     39  C   UNL     1     -45.717 -63.062  39.806  0.00  0.00    +0.000 C 
BRANCH  39  41
ATOM     40  O   UNL     1     -47.029 -61.413  41.241  0.00  0.00    +0.000 OA
ATOM     41  C   UNL     1     -45.767 -62.000  40.848  0.00  0.00    +0.000 C 
ATOM     42  C   UNL     1     -46.528 -62.415  42.024  0.00  0.00    +0.000 C 
ATOM     43  C   UNL     1     -44.650 -60.896  40.869  0.00  0.00    +0.000 C 
BRANCH  42  44
ATOM     44  C   UNL     1     -46.180 -62.086  43.372  0.00  0.00    +0.000 C 
ATOM     45  C   UNL     1     -46.869 -60.940  44.076  0.00  0.00    +0.000 C 
BRANCH  44  46
ATOM     46  C   UNL     1     -45.568 -63.049  44.214  0.00  0.00    +0.000 C 
ATOM     47  C   UNL     1     -45.070 -63.840  44.965  0.00  0.00    +0.000 C 
ATOM     48  C   UNL     1     -44.473 -64.826  45.978  0.00  0.00    +0.000 C 
ENDBRANCH  44  46
ENDBRANCH  42  44
ENDBRANCH  39  41
BRANCH  39  49
ATOM     49  O   UNL     1     -46.177 -64.350  40.025  0.00  0.00    +0.000 OA
ATOM     50  H   UNL     1     -45.701 -65.040  39.524  0.00  0.00    +0.000 HD
ENDBRANCH  39  49
ENDBRANCH   6  39
BRANCH   8  51
ATOM     51  C   UNL     1     -41.570 -62.037  37.756  0.00  0.00    +0.000 C 
BRANCH  51  52
ATOM     52  O   UNL     1     -40.958 -61.002  37.181  0.00  0.00    +0.000 OA
ATOM     53  H   UNL     1     -40.335 -61.304  36.489  0.00  0.00    +0.000 HD
ENDBRANCH  51  52
ENDBRANCH   8  51
TORSDOF 13
ENDMDL
MODEL 5
REMARK VINA RESULT:      -6.7      3.118      4.458
REMARK  Name = 102471178_CandidaspongiolideCore.pdbqt.pdb
REMARK  13 active torsions:
REMARK  status: ('A' for Active; 'I' for Inactive)
REMARK    1  A    between atoms: C_6  and  C_39
REMARK    2  A    between atoms: C_8  and  O_27
REMARK    3  A    between atoms: C_8  and  C_51
REMARK    4  A    between atoms: C_10  and  O_29
REMARK    5  A    between atoms: C_15  and  O_31
REMARK    6  A    between atoms: C_16  and  O_33
REMARK    7  A    between atoms: C_21  and  O_35
REMARK    8  A    between atoms: O_35  and  C_37
REMARK    9  A    between atoms: C_39  and  C_41
REMARK   10  A    between atoms: C_39  and  O_49
REMARK   11  A    between atoms: C_42  and  C_44
REMARK   12  A    between atoms: C_44  and  C_46
REMARK   13  A    between atoms: C_51  and  O_52
REMARK                            x       y       z     vdW  Elec       q    Type
REMARK                         _______ _______ _______ _____ _____    ______ ____
ROOT
ATOM      1  O   UNL     1     -62.135 -69.639  42.704  0.00  0.00    +0.000 OA
ATOM      2  O   UNL     1     -62.922 -71.390  41.442  0.00  0.00    +0.000 OA
ATOM      3  O   UNL     1     -66.332 -74.320  39.386  0.00  0.00    +0.000 OA
ATOM      4  O   UNL     1     -60.605 -68.748  41.304  0.00  0.00    +0.000 OA
ATOM      5  O   UNL     1     -60.043 -71.797  39.637  0.00  0.00    +0.000 OA
ATOM      6  C   UNL     1     -64.355 -70.245  42.987  0.00  0.00    +0.000 C 
ATOM      7  C   UNL     1     -65.290 -71.286  43.244  0.00  0.00    +0.000 C 
ATOM      8  C   UNL     1     -66.274 -72.290  43.659  0.00  0.00    +0.000 C 
ATOM      9  C   UNL     1     -63.077 -70.504  42.274  0.00  0.00    +0.000 C 
ATOM     10  C   UNL     1     -67.170 -72.717  42.517  0.00  0.00    +0.000 C 
ATOM     11  C   UNL     1     -66.721 -72.963  41.191  0.00  0.00    +0.000 C 
ATOM     12  C   UNL     1     -66.177 -73.205  39.872  0.00  0.00    +0.000 C 
ATOM     13  C   UNL     1     -60.972 -69.666  42.028  0.00  0.00    +0.000 C 
ATOM     14  C   UNL     1     -65.414 -72.136  39.159  0.00  0.00    +0.000 C 
ATOM     15  C   UNL     1     -60.003 -70.711  42.441  0.00  0.00    +0.000 C 
ATOM     16  C   UNL     1     -60.332 -72.109  42.630  0.00  0.00    +0.000 C 
ATOM     17  C   UNL     1     -60.306 -73.134  41.595  0.00  0.00    +0.000 C 
ATOM     18  C   UNL     1     -64.365 -72.495  38.278  0.00  0.00    +0.000 C 
ATOM     19  C   UNL     1     -61.693 -73.495  39.469  0.00  0.00    +0.000 C 
ATOM     20  C   UNL     1     -65.510 -70.668  39.550  0.00  0.00    +0.000 C 
ATOM     21  C   UNL     1     -62.031 -73.070  38.115  0.00  0.00    +0.000 C 
ATOM     22  C   UNL     1     -60.611 -72.745  40.184  0.00  0.00    +0.000 C 
ATOM     23  C   UNL     1     -63.362 -72.887  37.554  0.00  0.00    +0.000 C 
ATOM     24  C   UNL     1     -59.684 -74.504  41.851  0.00  0.00    +0.000 C 
ATOM     25  C   UNL     1     -62.624 -74.455  40.197  0.00  0.00    +0.000 C 
ATOM     26  C   UNL     1     -63.647 -73.093  36.089  0.00  0.00    +0.000 C 
ENDROOT
BRANCH   8  27
ATOM     27  O   UNL     1     -67.078 -71.655  44.656  0.00  0.00    +0.000 OA
ATOM     28  H   UNL     1     -66.907 -70.699  44.532  0.00  0.00    +0.000 HD
ENDBRANCH   8  27
BRANCH  10  29
ATOM     29  O   UNL     1     -68.508 -72.928  42.813  0.00  0.00    +0.000 OA
ATOM     30  H   UNL     1     -68.911 -72.162  43.263  0.00  0.00    +0.000 HD
ENDBRANCH  10  29
BRANCH  15  31
ATOM     31  O   UNL     1     -58.661 -70.487  42.177  0.00  0.00    +0.000 OA
ATOM     32  H   UNL     1     -58.111 -71.199  42.569  0.00  0.00    +0.000 HD
ENDBRANCH  15  31
BRANCH  16  33
ATOM     33  O   UNL     1     -60.178 -72.581  43.921  0.00  0.00    +0.000 OA
ATOM     34  C   UNL     1     -61.436 -72.644  44.547  0.00  0.00    +0.000 C 
ENDBRANCH  16  33
BRANCH  21  35
ATOM     35  O   UNL     1     -60.924 -72.999  37.231  0.00  0.00    +0.000 OA
BRANCH  35  37
ATOM     36  O   UNL     1     -60.859 -75.262  36.640  0.00  0.00    +0.000 OA
ATOM     37  C   UNL     1     -60.353 -74.213  36.997  0.00  0.00    +0.000 C 
ATOM     38  C   UNL     1     -58.878 -74.245  37.172  0.00  0.00    +0.000 C 
ENDBRANCH  35  37
ENDBRANCH  21  35
BRANCH   6  39
ATOM     39  C   UNL     1     -64.732 -68.903  43.368  0.00  0.00    +0.000 C 
BRANCH  39  41
ATOM     40  O   UNL     1     -65.337 -66.560  42.563  0.00  0.00    +0.000 OA
ATOM     41  C   UNL     1     -65.372 -67.994  42.377  0.00  0.00    +0.000 C 
ATOM     42  C   UNL     1     -64.404 -67.112  41.730  0.00  0.00    +0.000 C 
ATOM     43  C   UNL     1     -66.749 -68.405  41.743  0.00  0.00    +0.000 C 
BRANCH  42  44
ATOM     44  C   UNL     1     -64.448 -66.735  40.350  0.00  0.00    +0.000 C 
ATOM     45  C   UNL     1     -64.781 -65.313  39.962  0.00  0.00    +0.000 C 
BRANCH  44  46
ATOM     46  C   UNL     1     -63.758 -67.496  39.373  0.00  0.00    +0.000 C 
ATOM     47  C   UNL     1     -63.199 -68.179  38.562  0.00  0.00    +0.000 C 
ATOM     48  C   UNL     1     -62.531 -69.107  37.538  0.00  0.00    +0.000 C 
ENDBRANCH  44  46
ENDBRANCH  42  44
ENDBRANCH  39  41
BRANCH  39  49
ATOM     49  O   UNL     1     -64.406 -68.501  44.653  0.00  0.00    +0.000 OA
ATOM     50  H   UNL     1     -63.672 -67.859  44.702  0.00  0.00    +0.000 HD
ENDBRANCH  39  49
ENDBRANCH   6  39
BRANCH   8  51
ATOM     51  C   UNL     1     -65.637 -73.464  44.277  0.00  0.00    +0.000 C 
BRANCH  51  52
ATOM     52  O   UNL     1     -65.064 -74.508  44.878  0.00  0.00    +0.000 OA
ATOM     53  H   UNL     1     -64.177 -74.273  45.216  0.00  0.00    +0.000 HD
ENDBRANCH  51  52
ENDBRANCH   8  51
TORSDOF 13
ENDMDL
MODEL 6
REMARK VINA RESULT:      -6.6     34.521     37.064
REMARK  Name = 102471178_CandidaspongiolideCore.pdbqt.pdb
REMARK  13 active torsions:
REMARK  status: ('A' for Active; 'I' for Inactive)
REMARK    1  A    between atoms: C_6  and  C_39
REMARK    2  A    between atoms: C_8  and  O_27
REMARK    3  A    between atoms: C_8  and  C_51
REMARK    4  A    between atoms: C_10  and  O_29
REMARK    5  A    between atoms: C_15  and  O_31
REMARK    6  A    between atoms: C_16  and  O_33
REMARK    7  A    between atoms: C_21  and  O_35
REMARK    8  A    between atoms: O_35  and  C_37
REMARK    9  A    between atoms: C_39  and  C_41
REMARK   10  A    between atoms: C_39  and  O_49
REMARK   11  A    between atoms: C_42  and  C_44
REMARK   12  A    between atoms: C_44  and  C_46
REMARK   13  A    between atoms: C_51  and  O_52
REMARK                            x       y       z     vdW  Elec       q    Type
REMARK                         _______ _______ _______ _____ _____    ______ ____
ROOT
ATOM      1  O   UNL     1     -42.406 -41.121  50.667  0.00  0.00    +0.000 OA
ATOM      2  O   UNL     1     -43.543 -39.151  50.351  0.00  0.00    +0.000 OA
ATOM      3  O   UNL     1     -45.018 -35.113  47.909  0.00  0.00    +0.000 OA
ATOM      4  O   UNL     1     -44.038 -42.434  51.510  0.00  0.00    +0.000 OA
ATOM      5  O   UNL     1     -45.840 -39.711  52.824  0.00  0.00    +0.000 OA
ATOM      6  C   UNL     1     -41.744 -39.781  48.896  0.00  0.00    +0.000 C 
ATOM      7  C   UNL     1     -41.346 -38.489  48.453  0.00  0.00    +0.000 C 
ATOM      8  C   UNL     1     -40.784 -37.221  47.981  0.00  0.00    +0.000 C 
ATOM      9  C   UNL     1     -42.680 -39.961  50.037  0.00  0.00    +0.000 C 
ATOM     10  C   UNL     1     -41.756 -36.453  47.112  0.00  0.00    +0.000 C 
ATOM     11  C   UNL     1     -43.145 -36.323  47.381  0.00  0.00    +0.000 C 
ATOM     12  C   UNL     1     -44.545 -36.231  47.738  0.00  0.00    +0.000 C 
ATOM     13  C   UNL     1     -43.279 -41.479  51.627  0.00  0.00    +0.000 C 
ATOM     14  C   UNL     1     -45.360 -37.469  47.933  0.00  0.00    +0.000 C 
ATOM     15  C   UNL     1     -43.067 -40.865  52.961  0.00  0.00    +0.000 C 
ATOM     16  C   UNL     1     -42.851 -39.451  53.191  0.00  0.00    +0.000 C 
ATOM     17  C   UNL     1     -43.896 -38.457  53.400  0.00  0.00    +0.000 C 
ATOM     18  C   UNL     1     -46.422 -37.466  48.870  0.00  0.00    +0.000 C 
ATOM     19  C   UNL     1     -45.747 -37.533  51.887  0.00  0.00    +0.000 C 
ATOM     20  C   UNL     1     -44.928 -38.823  47.388  0.00  0.00    +0.000 C 
ATOM     21  C   UNL     1     -47.010 -37.750  51.190  0.00  0.00    +0.000 C 
ATOM     22  C   UNL     1     -45.221 -38.649  52.737  0.00  0.00    +0.000 C 
ATOM     23  C   UNL     1     -47.321 -37.423  49.805  0.00  0.00    +0.000 C 
ATOM     24  C   UNL     1     -43.783 -37.410  54.505  0.00  0.00    +0.000 C 
ATOM     25  C   UNL     1     -44.885 -36.338  51.502  0.00  0.00    +0.000 C 
ATOM     26  C   UNL     1     -48.716 -37.064  49.362  0.00  0.00    +0.000 C 
ENDROOT
BRANCH   8  27
ATOM     27  O   UNL     1     -39.646 -37.573  47.190  0.00  0.00    +0.000 OA
ATOM     28  H   UNL     1     -39.966 -38.298  46.616  0.00  0.00    +0.000 HD
ENDBRANCH   8  27
BRANCH  10  29
ATOM     29  O   UNL     1     -41.230 -35.795  46.011  0.00  0.00    +0.000 OA
ATOM     30  H   UNL     1     -41.892 -35.669  45.306  0.00  0.00    +0.000 HD
ENDBRANCH  10  29
BRANCH  15  31
ATOM     31  O   UNL     1     -43.562 -41.538  54.067  0.00  0.00    +0.000 OA
ATOM     32  H   UNL     1     -43.694 -42.488  53.859  0.00  0.00    +0.000 HD
ENDBRANCH  15  31
BRANCH  16  33
ATOM     33  O   UNL     1     -41.619 -39.122  53.725  0.00  0.00    +0.000 OA
ATOM     34  C   UNL     1     -40.780 -38.646  52.701  0.00  0.00    +0.000 C 
ENDBRANCH  16  33
BRANCH  21  35
ATOM     35  O   UNL     1     -48.076 -38.169  52.026  0.00  0.00    +0.000 OA
BRANCH  35  37
ATOM     36  O   UNL     1     -48.732 -36.063  52.805  0.00  0.00    +0.000 OA
ATOM     37  C   UNL     1     -48.425 -37.232  52.951  0.00  0.00    +0.000 C 
ATOM     38  C   UNL     1     -48.470 -37.732  54.349  0.00  0.00    +0.000 C 
ENDBRANCH  35  37
ENDBRANCH  21  35
BRANCH   6  39
ATOM     39  C   UNL     1     -41.274 -40.918  48.137  0.00  0.00    +0.000 C 
BRANCH  39  41
ATOM     40  O   UNL     1     -38.851 -40.160  48.374  0.00  0.00    +0.000 OA
ATOM     41  C   UNL     1     -39.835 -41.032  47.771  0.00  0.00    +0.000 C 
ATOM     42  C   UNL     1     -39.004 -41.407  48.912  0.00  0.00    +0.000 C 
ATOM     43  C   UNL     1     -39.446 -41.301  46.273  0.00  0.00    +0.000 C 
BRANCH  42  44
ATOM     44  C   UNL     1     -37.884 -42.296  48.842  0.00  0.00    +0.000 C 
ATOM     45  C   UNL     1     -36.635 -41.886  48.098  0.00  0.00    +0.000 C 
BRANCH  44  46
ATOM     46  C   UNL     1     -37.722 -43.327  49.802  0.00  0.00    +0.000 C 
ATOM     47  C   UNL     1     -37.557 -44.167  50.641  0.00  0.00    +0.000 C 
ATOM     48  C   UNL     1     -37.320 -45.191  51.758  0.00  0.00    +0.000 C 
ENDBRANCH  44  46
ENDBRANCH  42  44
ENDBRANCH  39  41
BRANCH  39  49
ATOM     49  O   UNL     1     -42.229 -41.833  47.723  0.00  0.00    +0.000 OA
ATOM     50  H   UNL     1     -43.151 -41.557  47.887  0.00  0.00    +0.000 HD
ENDBRANCH  39  49
ENDBRANCH   6  39
BRANCH   8  51
ATOM     51  C   UNL     1     -40.313 -36.378  49.092  0.00  0.00    +0.000 C 
BRANCH  51  52
ATOM     52  O   UNL     1     -39.858 -35.646  50.110  0.00  0.00    +0.000 OA
ATOM     53  H   UNL     1     -38.930 -35.875  50.319  0.00  0.00    +0.000 HD
ENDBRANCH  51  52
ENDBRANCH   8  51
TORSDOF 13
ENDMDL
MODEL 7
REMARK VINA RESULT:      -6.6     21.502     26.740
REMARK  Name = 102471178_CandidaspongiolideCore.pdbqt.pdb
REMARK  13 active torsions:
REMARK  status: ('A' for Active; 'I' for Inactive)
REMARK    1  A    between atoms: C_6  and  C_39
REMARK    2  A    between atoms: C_8  and  O_27
REMARK    3  A    between atoms: C_8  and  C_51
REMARK    4  A    between atoms: C_10  and  O_29
REMARK    5  A    between atoms: C_15  and  O_31
REMARK    6  A    between atoms: C_16  and  O_33
REMARK    7  A    between atoms: C_21  and  O_35
REMARK    8  A    between atoms: O_35  and  C_37
REMARK    9  A    between atoms: C_39  and  C_41
REMARK   10  A    between atoms: C_39  and  O_49
REMARK   11  A    between atoms: C_42  and  C_44
REMARK   12  A    between atoms: C_44  and  C_46
REMARK   13  A    between atoms: C_51  and  O_52
REMARK                            x       y       z     vdW  Elec       q    Type
REMARK                         _______ _______ _______ _____ _____    ______ ____
ROOT
ATOM      1  O   UNL     1     -41.596 -56.545  30.284  0.00  0.00    +0.000 OA
ATOM      2  O   UNL     1     -40.640 -55.285  31.950  0.00  0.00    +0.000 OA
ATOM      3  O   UNL     1     -40.437 -52.890  36.270  0.00  0.00    +0.000 OA
ATOM      4  O   UNL     1     -39.973 -58.069  29.907  0.00  0.00    +0.000 OA
ATOM      5  O   UNL     1     -37.410 -55.927  31.018  0.00  0.00    +0.000 OA
ATOM      6  C   UNL     1     -43.015 -55.602  31.855  0.00  0.00    +0.000 C 
ATOM      7  C   UNL     1     -43.428 -54.429  32.546  0.00  0.00    +0.000 C 
ATOM      8  C   UNL     1     -43.992 -53.227  33.167  0.00  0.00    +0.000 C 
ATOM      9  C   UNL     1     -41.612 -55.783  31.397  0.00  0.00    +0.000 C 
ATOM     10  C   UNL     1     -43.655 -53.132  34.639  0.00  0.00    +0.000 C 
ATOM     11  C   UNL     1     -42.385 -53.441  35.194  0.00  0.00    +0.000 C 
ATOM     12  C   UNL     1     -41.057 -53.764  35.673  0.00  0.00    +0.000 C 
ATOM     13  C   UNL     1     -40.375 -56.913  29.852  0.00  0.00    +0.000 C 
ATOM     14  C   UNL     1     -40.459 -55.106  35.401  0.00  0.00    +0.000 C 
ATOM     15  C   UNL     1     -39.654 -55.920  29.016  0.00  0.00    +0.000 C 
ATOM     16  C   UNL     1     -39.502 -54.519  29.351  0.00  0.00    +0.000 C 
ATOM     17  C   UNL     1     -38.427 -53.951  30.152  0.00  0.00    +0.000 C 
ATOM     18  C   UNL     1     -39.057 -55.226  35.237  0.00  0.00    +0.000 C 
ATOM     19  C   UNL     1     -37.770 -54.210  32.617  0.00  0.00    +0.000 C 
ATOM     20  C   UNL     1     -41.303 -56.308  35.002  0.00  0.00    +0.000 C 
ATOM     21  C   UNL     1     -37.228 -55.050  33.679  0.00  0.00    +0.000 C 
ATOM     22  C   UNL     1     -37.813 -54.782  31.232  0.00  0.00    +0.000 C 
ATOM     23  C   UNL     1     -37.780 -55.253  35.011  0.00  0.00    +0.000 C 
ATOM     24  C   UNL     1     -37.712 -52.672  29.726  0.00  0.00    +0.000 C 
ATOM     25  C   UNL     1     -38.526 -52.942  32.989  0.00  0.00    +0.000 C 
ATOM     26  C   UNL     1     -36.906 -55.557  36.201  0.00  0.00    +0.000 C 
ENDROOT
BRANCH   8  27
ATOM     27  O   UNL     1     -45.410 -53.351  33.031  0.00  0.00    +0.000 OA
ATOM     28  H   UNL     1     -45.732 -52.427  33.005  0.00  0.00    +0.000 HD
ENDBRANCH   8  27
BRANCH  10  29
ATOM     29  O   UNL     1     -44.650 -52.660  35.481  0.00  0.00    +0.000 OA
ATOM     30  H   UNL     1     -45.156 -53.383  35.896  0.00  0.00    +0.000 HD
ENDBRANCH  10  29
BRANCH  15  31
ATOM     31  O   UNL     1     -38.683 -56.394  28.148  0.00  0.00    +0.000 OA
ATOM     32  H   UNL     1     -38.957 -57.254  27.763  0.00  0.00    +0.000 HD
ENDBRANCH  15  31
BRANCH  16  33
ATOM     33  O   UNL     1     -40.104 -53.636  28.473  0.00  0.00    +0.000 OA
ATOM     34  C   UNL     1     -41.299 -53.157  29.041  0.00  0.00    +0.000 C 
ENDBRANCH  16  33
BRANCH  21  35
ATOM     35  O   UNL     1     -35.938 -55.576  33.410  0.00  0.00    +0.000 OA
BRANCH  35  37
ATOM     36  O   UNL     1     -34.847 -53.630  32.706  0.00  0.00    +0.000 OA
ATOM     37  C   UNL     1     -34.967 -54.622  33.403  0.00  0.00    +0.000 C 
ATOM     38  C   UNL     1     -33.912 -54.807  34.433  0.00  0.00    +0.000 C 
ENDBRANCH  35  37
ENDBRANCH  21  35
BRANCH   6  39
ATOM     39  C   UNL     1     -43.990 -56.656  31.691  0.00  0.00    +0.000 C 
BRANCH  39  41
ATOM     40  O   UNL     1     -44.462 -59.125  32.119  0.00  0.00    +0.000 OA
ATOM     41  C   UNL     1     -43.960 -57.850  32.581  0.00  0.00    +0.000 C 
ATOM     42  C   UNL     1     -43.114 -58.914  32.049  0.00  0.00    +0.000 C 
ATOM     43  C   UNL     1     -44.302 -57.675  34.104  0.00  0.00    +0.000 C 
BRANCH  42  44
ATOM     44  C   UNL     1     -42.274 -59.756  32.846  0.00  0.00    +0.000 C 
ATOM     45  C   UNL     1     -42.615 -61.217  33.026  0.00  0.00    +0.000 C 
BRANCH  44  46
ATOM     46  C   UNL     1     -40.922 -59.403  33.088  0.00  0.00    +0.000 C 
ATOM     47  C   UNL     1     -39.778 -59.080  33.250  0.00  0.00    +0.000 C 
ATOM     48  C   UNL     1     -38.322 -58.622  33.401  0.00  0.00    +0.000 C 
ENDBRANCH  44  46
ENDBRANCH  42  44
ENDBRANCH  39  41
BRANCH  39  49
ATOM     49  O   UNL     1     -44.883 -56.526  30.641  0.00  0.00    +0.000 OA
ATOM     50  H   UNL     1     -45.226 -57.372  30.295  0.00  0.00    +0.000 HD
ENDBRANCH  39  49
ENDBRANCH   6  39
BRANCH   8  51
ATOM     51  C   UNL     1     -43.581 -52.000  32.466  0.00  0.00    +0.000 C 
BRANCH  51  52
ATOM     52  O   UNL     1     -43.246 -50.869  31.844  0.00  0.00    +0.000 OA
ATOM     53  H   UNL     1     -44.024 -50.465  31.409  0.00  0.00    +0.000 HD
ENDBRANCH  51  52
ENDBRANCH   8  51
TORSDOF 13
ENDMDL
MODEL 8
REMARK VINA RESULT:      -6.5     15.695     18.912
REMARK  Name = 102471178_CandidaspongiolideCore.pdbqt.pdb
REMARK  13 active torsions:
REMARK  status: ('A' for Active; 'I' for Inactive)
REMARK    1  A    between atoms: C_6  and  C_39
REMARK    2  A    between atoms: C_8  and  O_27
REMARK    3  A    between atoms: C_8  and  C_51
REMARK    4  A    between atoms: C_10  and  O_29
REMARK    5  A    between atoms: C_15  and  O_31
REMARK    6  A    between atoms: C_16  and  O_33
REMARK    7  A    between atoms: C_21  and  O_35
REMARK    8  A    between atoms: O_35  and  C_37
REMARK    9  A    between atoms: C_39  and  C_41
REMARK   10  A    between atoms: C_39  and  O_49
REMARK   11  A    between atoms: C_42  and  C_44
REMARK   12  A    between atoms: C_44  and  C_46
REMARK   13  A    between atoms: C_51  and  O_52
REMARK                            x       y       z     vdW  Elec       q    Type
REMARK                         _______ _______ _______ _____ _____    ______ ____
ROOT
ATOM      1  O   UNL     1     -42.673 -62.732  37.344  0.00  0.00    +0.000 OA
ATOM      2  O   UNL     1     -42.906 -64.941  36.758  0.00  0.00    +0.000 OA
ATOM      3  O   UNL     1     -44.183 -69.679  37.364  0.00  0.00    +0.000 OA
ATOM      4  O   UNL     1     -43.475 -61.707  35.499  0.00  0.00    +0.000 OA
ATOM      5  O   UNL     1     -42.657 -64.402  33.388  0.00  0.00    +0.000 OA
ATOM      6  C   UNL     1     -43.114 -64.245  39.044  0.00  0.00    +0.000 C 
ATOM      7  C   UNL     1     -42.760 -65.464  39.686  0.00  0.00    +0.000 C 
ATOM      8  C   UNL     1     -42.338 -66.627  40.472  0.00  0.00    +0.000 C 
ATOM      9  C   UNL     1     -42.899 -64.040  37.587  0.00  0.00    +0.000 C 
ATOM     10  C   UNL     1     -43.286 -67.796  40.317  0.00  0.00    +0.000 C 
ATOM     11  C   UNL     1     -43.869 -68.200  39.087  0.00  0.00    +0.000 C 
ATOM     12  C   UNL     1     -44.408 -68.551  37.790  0.00  0.00    +0.000 C 
ATOM     13  C   UNL     1     -42.613 -62.387  36.044  0.00  0.00    +0.000 C 
ATOM     14  C   UNL     1     -45.172 -67.546  36.990  0.00  0.00    +0.000 C 
ATOM     15  C   UNL     1     -41.305 -62.595  35.375  0.00  0.00    +0.000 C 
ATOM     16  C   UNL     1     -40.527 -63.815  35.451  0.00  0.00    +0.000 C 
ATOM     17  C   UNL     1     -40.655 -64.959  34.558  0.00  0.00    +0.000 C 
ATOM     18  C   UNL     1     -45.118 -67.592  35.575  0.00  0.00    +0.000 C 
ATOM     19  C   UNL     1     -42.541 -66.646  34.152  0.00  0.00    +0.000 C 
ATOM     20  C   UNL     1     -45.775 -66.296  37.614  0.00  0.00    +0.000 C 
ATOM     21  C   UNL     1     -43.873 -66.923  33.624  0.00  0.00    +0.000 C 
ATOM     22  C   UNL     1     -41.991 -65.265  33.962  0.00  0.00    +0.000 C 
ATOM     23  C   UNL     1     -44.955 -67.635  34.288  0.00  0.00    +0.000 C 
ATOM     24  C   UNL     1     -39.425 -65.652  33.979  0.00  0.00    +0.000 C 
ATOM     25  C   UNL     1     -41.903 -67.644  35.108  0.00  0.00    +0.000 C 
ATOM     26  C   UNL     1     -45.983 -68.424  33.520  0.00  0.00    +0.000 C 
ENDROOT
BRANCH   8  27
ATOM     27  O   UNL     1     -42.360 -66.200  41.836  0.00  0.00    +0.000 OA
ATOM     28  H   UNL     1     -43.037 -65.494  41.857  0.00  0.00    +0.000 HD
ENDBRANCH   8  27
BRANCH  10  29
ATOM     29  O   UNL     1     -43.551 -68.543  41.454  0.00  0.00    +0.000 OA
ATOM     30  H   UNL     1     -43.036 -69.371  41.480  0.00  0.00    +0.000 HD
ENDBRANCH  10  29
BRANCH  15  31
ATOM     31  O   UNL     1     -41.023 -61.824  34.258  0.00  0.00    +0.000 OA
ATOM     32  H   UNL     1     -40.449 -62.320  33.636  0.00  0.00    +0.000 HD
ENDBRANCH  15  31
BRANCH  16  33
ATOM     33  O   UNL     1     -39.294 -63.689  36.065  0.00  0.00    +0.000 OA
ATOM     34  C   UNL     1     -39.375 -64.188  37.378  0.00  0.00    +0.000 C 
ENDBRANCH  16  33
BRANCH  21  35
ATOM     35  O   UNL     1     -44.038 -66.597  32.253  0.00  0.00    +0.000 OA
BRANCH  35  37
ATOM     36  O   UNL     1     -43.219 -68.589  31.341  0.00  0.00    +0.000 OA
ATOM     37  C   UNL     1     -43.287 -67.376  31.428  0.00  0.00    +0.000 C 
ATOM     38  C   UNL     1     -42.449 -66.622  30.460  0.00  0.00    +0.000 C 
ENDBRANCH  35  37
ENDBRANCH  21  35
BRANCH   6  39
ATOM     39  C   UNL     1     -43.777 -63.240  39.843  0.00  0.00    +0.000 C 
BRANCH  39  41
ATOM     40  O   UNL     1     -45.910 -61.856  40.039  0.00  0.00    +0.000 OA
ATOM     41  C   UNL     1     -45.262 -63.133  39.833  0.00  0.00    +0.000 C 
ATOM     42  C   UNL     1     -45.747 -62.282  38.750  0.00  0.00    +0.000 C 
ATOM     43  C   UNL     1     -46.115 -64.266  40.510  0.00  0.00    +0.000 C 
BRANCH  42  44
ATOM     44  C   UNL     1     -46.930 -62.537  37.986  0.00  0.00    +0.000 C 
ATOM     45  C   UNL     1     -48.236 -61.878  38.366  0.00  0.00    +0.000 C 
BRANCH  44  46
ATOM     46  C   UNL     1     -46.839 -63.001  36.650  0.00  0.00    +0.000 C 
ATOM     47  C   UNL     1     -46.714 -63.404  35.527  0.00  0.00    +0.000 C 
ATOM     48  C   UNL     1     -46.491 -63.946  34.110  0.00  0.00    +0.000 C 
ENDBRANCH  44  46
ENDBRANCH  42  44
ENDBRANCH  39  41
BRANCH  39  49
ATOM     49  O   UNL     1     -42.967 -62.363  40.545  0.00  0.00    +0.000 OA
ATOM     50  H   UNL     1     -43.285 -62.148  41.442  0.00  0.00    +0.000 HD
ENDBRANCH  39  49
ENDBRANCH   6  39
BRANCH   8  51
ATOM     51  C   UNL     1     -40.960 -67.038  40.154  0.00  0.00    +0.000 C 
BRANCH  51  52
ATOM     52  O   UNL     1     -39.706 -67.371  39.847  0.00  0.00    +0.000 OA
ATOM     53  H   UNL     1     -39.508 -67.162  38.911  0.00  0.00    +0.000 HD
ENDBRANCH  51  52
ENDBRANCH   8  51
TORSDOF 13
ENDMDL
MODEL 9
REMARK VINA RESULT:      -6.3     15.598     19.409
REMARK  Name = 102471178_CandidaspongiolideCore.pdbqt.pdb
REMARK  13 active torsions:
REMARK  status: ('A' for Active; 'I' for Inactive)
REMARK    1  A    between atoms: C_6  and  C_39
REMARK    2  A    between atoms: C_8  and  O_27
REMARK    3  A    between atoms: C_8  and  C_51
REMARK    4  A    between atoms: C_10  and  O_29
REMARK    5  A    between atoms: C_15  and  O_31
REMARK    6  A    between atoms: C_16  and  O_33
REMARK    7  A    between atoms: C_21  and  O_35
REMARK    8  A    between atoms: O_35  and  C_37
REMARK    9  A    between atoms: C_39  and  C_41
REMARK   10  A    between atoms: C_39  and  O_49
REMARK   11  A    between atoms: C_42  and  C_44
REMARK   12  A    between atoms: C_44  and  C_46
REMARK   13  A    between atoms: C_51  and  O_52
REMARK                            x       y       z     vdW  Elec       q    Type
REMARK                         _______ _______ _______ _____ _____    ______ ____
ROOT
ATOM      1  O   UNL     1     -45.633 -66.522  32.229  0.00  0.00    +0.000 OA
ATOM      2  O   UNL     1     -45.401 -64.838  33.774  0.00  0.00    +0.000 OA
ATOM      3  O   UNL     1     -45.696 -60.225  35.525  0.00  0.00    +0.000 OA
ATOM      4  O   UNL     1     -46.595 -68.134  33.485  0.00  0.00    +0.000 OA
ATOM      5  O   UNL     1     -45.209 -66.920  36.483  0.00  0.00    +0.000 OA
ATOM      6  C   UNL     1     -45.786 -64.341  31.460  0.00  0.00    +0.000 C 
ATOM      7  C   UNL     1     -45.202 -63.045  31.405  0.00  0.00    +0.000 C 
ATOM      8  C   UNL     1     -44.565 -61.743  31.190  0.00  0.00    +0.000 C 
ATOM      9  C   UNL     1     -45.592 -65.236  32.631  0.00  0.00    +0.000 C 
ATOM     10  C   UNL     1     -45.252 -60.637  31.961  0.00  0.00    +0.000 C 
ATOM     11  C   UNL     1     -45.720 -60.759  33.297  0.00  0.00    +0.000 C 
ATOM     12  C   UNL     1     -46.154 -60.966  34.662  0.00  0.00    +0.000 C 
ATOM     13  C   UNL     1     -45.623 -67.438  33.216  0.00  0.00    +0.000 C 
ATOM     14  C   UNL     1     -47.092 -62.079  34.999  0.00  0.00    +0.000 C 
ATOM     15  C   UNL     1     -44.288 -67.795  33.758  0.00  0.00    +0.000 C 
ATOM     16  C   UNL     1     -43.279 -66.835  34.158  0.00  0.00    +0.000 C 
ATOM     17  C   UNL     1     -43.156 -66.236  35.481  0.00  0.00    +0.000 C 
ATOM     18  C   UNL     1     -47.005 -62.708  36.265  0.00  0.00    +0.000 C 
ATOM     19  C   UNL     1     -44.651 -64.636  36.812  0.00  0.00    +0.000 C 
ATOM     20  C   UNL     1     -47.948 -62.769  33.946  0.00  0.00    +0.000 C 
ATOM     21  C   UNL     1     -45.889 -64.413  37.551  0.00  0.00    +0.000 C 
ATOM     22  C   UNL     1     -44.391 -66.018  36.294  0.00  0.00    +0.000 C 
ATOM     23  C   UNL     1     -46.815 -63.298  37.405  0.00  0.00    +0.000 C 
ATOM     24  C   UNL     1     -41.801 -66.116  36.172  0.00  0.00    +0.000 C 
ATOM     25  C   UNL     1     -43.840 -63.434  36.348  0.00  0.00    +0.000 C 
ATOM     26  C   UNL     1     -47.647 -62.794  38.555  0.00  0.00    +0.000 C 
ENDROOT
BRANCH   8  27
ATOM     27  O   UNL     1     -44.697 -61.474  29.792  0.00  0.00    +0.000 OA
ATOM     28  H   UNL     1     -43.996 -62.014  29.375  0.00  0.00    +0.000 HD
ENDBRANCH   8  27
BRANCH  10  29
ATOM     29  O   UNL     1     -45.380 -59.413  31.323  0.00  0.00    +0.000 OA
ATOM     30  H   UNL     1     -46.099 -59.413  30.664  0.00  0.00    +0.000 HD
ENDBRANCH  10  29
BRANCH  15  31
ATOM     31  O   UNL     1     -44.149 -69.033  34.366  0.00  0.00    +0.000 OA
ATOM     32  H   UNL     1     -43.349 -69.048  34.934  0.00  0.00    +0.000 HD
ENDBRANCH  15  31
BRANCH  16  33
ATOM     33  O   UNL     1     -42.108 -66.871  33.423  0.00  0.00    +0.000 OA
ATOM     34  C   UNL     1     -42.099 -65.800  32.511  0.00  0.00    +0.000 C 
ENDBRANCH  16  33
BRANCH  21  35
ATOM     35  O   UNL     1     -46.094 -65.305  38.634  0.00  0.00    +0.000 OA
BRANCH  35  37
ATOM     36  O   UNL     1     -44.855 -64.148  40.246  0.00  0.00    +0.000 OA
ATOM     37  C   UNL     1     -45.181 -65.148  39.632  0.00  0.00    +0.000 C 
ATOM     38  C   UNL     1     -44.508 -66.403  40.056  0.00  0.00    +0.000 C 
ENDBRANCH  35  37
ENDBRANCH  21  35
BRANCH   6  39
ATOM     39  C   UNL     1     -46.653 -64.727  30.370  0.00  0.00    +0.000 C 
BRANCH  39  41
ATOM     40  O   UNL     1     -44.864 -64.430  28.577  0.00  0.00    +0.000 OA
ATOM     41  C   UNL     1     -46.258 -64.444  28.962  0.00  0.00    +0.000 C 
ATOM     42  C   UNL     1     -45.572 -65.575  28.343  0.00  0.00    +0.000 C 
ATOM     43  C   UNL     1     -47.032 -63.339  28.158  0.00  0.00    +0.000 C 
BRANCH  42  44
ATOM     44  C   UNL     1     -45.740 -65.979  26.980  0.00  0.00    +0.000 C 
ATOM     45  C   UNL     1     -46.814 -66.976  26.610  0.00  0.00    +0.000 C 
BRANCH  44  46
ATOM     46  C   UNL     1     -45.267 -65.160  25.924  0.00  0.00    +0.000 C 
ATOM     47  C   UNL     1     -44.859 -64.432  25.062  0.00  0.00    +0.000 C 
ATOM     48  C   UNL     1     -44.315 -63.456  24.012  0.00  0.00    +0.000 C 
ENDBRANCH  44  46
ENDBRANCH  42  44
ENDBRANCH  39  41
BRANCH  39  49
ATOM     49  O   UNL     1     -47.870 -65.295  30.708  0.00  0.00    +0.000 OA
ATOM     50  H   UNL     1     -48.197 -65.052  31.595  0.00  0.00    +0.000 HD
ENDBRANCH  39  49
ENDBRANCH   6  39
BRANCH   8  51
ATOM     51  C   UNL     1     -43.128 -61.772  31.506  0.00  0.00    +0.000 C 
BRANCH  51  52
ATOM     52  O   UNL     1     -41.817 -61.781  31.753  0.00  0.00    +0.000 OA
ATOM     53  H   UNL     1     -41.643 -61.839  32.714  0.00  0.00    +0.000 HD
ENDBRANCH  51  52
ENDBRANCH   8  51
TORSDOF 13
ENDMDL
