MODEL 1
REMARK VINA RESULT:      -6.5      0.000      0.000
REMARK  Name = 10281_Thymoquinone.pdbqt.pdb
REMARK  1 active torsions:
REMARK  status: ('A' for Active; 'I' for Inactive)
REMARK    1  A    between atoms: C_3  and  C_10
REMARK                            x       y       z     vdW  Elec       q    Type
REMARK                         _______ _______ _______ _____ _____    ______ ____
ROOT
ATOM      1  O   UNL     1     -47.924 -59.294  42.674  0.00  0.00    +0.000 OA
ATOM      2  O   UNL     1     -45.274 -63.589  44.538  0.00  0.00    +0.000 OA
ATOM      3  C   UNL     1     -47.541 -60.774  44.549  0.00  0.00    +0.000 C 
ATOM      4  C   UNL     1     -47.356 -60.256  43.152  0.00  0.00    +0.000 C 
ATOM      5  C   UNL     1     -46.790 -61.825  44.766  0.00  0.00    +0.000 C 
ATOM      6  C   UNL     1     -45.643 -62.092  42.601  0.00  0.00    +0.000 C 
ATOM      7  C   UNL     1     -45.821 -62.633  44.023  0.00  0.00    +0.000 C 
ATOM      8  C   UNL     1     -46.394 -61.045  42.392  0.00  0.00    +0.000 C 
ATOM      9  C   UNL     1     -44.739 -62.649  41.550  0.00  0.00    +0.000 C 
ENDROOT
BRANCH   3  10
ATOM     10  C   UNL     1     -48.446 -60.136  45.446  0.00  0.00    +0.000 C 
ATOM     11  C   UNL     1     -49.813 -59.702  44.977  0.00  0.00    +0.000 C 
ATOM     12  C   UNL     1     -48.256 -60.252  46.939  0.00  0.00    +0.000 C 
ENDBRANCH   3  10
TORSDOF 1
ENDMDL
MODEL 2
REMARK VINA RESULT:      -6.1      1.052      4.785
REMARK  Name = 10281_Thymoquinone.pdbqt.pdb
REMARK  1 active torsions:
REMARK  status: ('A' for Active; 'I' for Inactive)
REMARK    1  A    between atoms: C_3  and  C_10
REMARK                            x       y       z     vdW  Elec       q    Type
REMARK                         _______ _______ _______ _____ _____    ______ ____
ROOT
ATOM      1  O   UNL     1     -45.222 -62.913  44.220  0.00  0.00    +0.000 OA
ATOM      2  O   UNL     1     -49.225 -59.388  43.517  0.00  0.00    +0.000 OA
ATOM      3  C   UNL     1     -46.580 -61.688  42.636  0.00  0.00    +0.000 C 
ATOM      4  C   UNL     1     -46.117 -62.123  43.997  0.00  0.00    +0.000 C 
ATOM      5  C   UNL     1     -47.564 -60.828  42.725  0.00  0.00    +0.000 C 
ATOM      6  C   UNL     1     -47.852 -60.626  45.163  0.00  0.00    +0.000 C 
ATOM      7  C   UNL     1     -48.336 -60.174  43.783  0.00  0.00    +0.000 C 
ATOM      8  C   UNL     1     -46.872 -61.483  45.068  0.00  0.00    +0.000 C 
ATOM      9  C   UNL     1     -48.393 -60.176  46.481  0.00  0.00    +0.000 C 
ENDROOT
BRANCH   3  10
ATOM     10  C   UNL     1     -45.965 -62.208  41.460  0.00  0.00    +0.000 C 
ATOM     11  C   UNL     1     -44.670 -61.625  40.950  0.00  0.00    +0.000 C 
ATOM     12  C   UNL     1     -46.331 -63.577  40.944  0.00  0.00    +0.000 C 
ENDBRANCH   3  10
TORSDOF 1
ENDMDL
MODEL 3
REMARK VINA RESULT:      -6.1     10.634     12.826
REMARK  Name = 10281_Thymoquinone.pdbqt.pdb
REMARK  1 active torsions:
REMARK  status: ('A' for Active; 'I' for Inactive)
REMARK    1  A    between atoms: C_3  and  C_10
REMARK                            x       y       z     vdW  Elec       q    Type
REMARK                         _______ _______ _______ _____ _____    ______ ____
ROOT
ATOM      1  O   UNL     1     -59.257 -60.307  43.118  0.00  0.00    +0.000 OA
ATOM      2  O   UNL     1     -59.764 -64.928  40.409  0.00  0.00    +0.000 OA
ATOM      3  C   UNL     1     -58.206 -61.908  41.640  0.00  0.00    +0.000 C 
ATOM      4  C   UNL     1     -59.311 -61.343  42.485  0.00  0.00    +0.000 C 
ATOM      5  C   UNL     1     -58.567 -63.037  41.083  0.00  0.00    +0.000 C 
ATOM      6  C   UNL     1     -60.869 -63.308  41.921  0.00  0.00    +0.000 C 
ATOM      7  C   UNL     1     -59.751 -63.899  41.057  0.00  0.00    +0.000 C 
ATOM      8  C   UNL     1     -60.502 -62.184  42.473  0.00  0.00    +0.000 C 
ATOM      9  C   UNL     1     -62.224 -63.899  42.139  0.00  0.00    +0.000 C 
ENDROOT
BRANCH   3  10
ATOM     10  C   UNL     1     -56.957 -61.229  41.528  0.00  0.00    +0.000 C 
ATOM     11  C   UNL     1     -55.938 -61.308  42.638  0.00  0.00    +0.000 C 
ATOM     12  C   UNL     1     -56.446 -60.782  40.180  0.00  0.00    +0.000 C 
ENDBRANCH   3  10
TORSDOF 1
ENDMDL
MODEL 4
REMARK VINA RESULT:      -5.8     11.890     13.928
REMARK  Name = 10281_Thymoquinone.pdbqt.pdb
REMARK  1 active torsions:
REMARK  status: ('A' for Active; 'I' for Inactive)
REMARK    1  A    between atoms: C_3  and  C_10
REMARK                            x       y       z     vdW  Elec       q    Type
REMARK                         _______ _______ _______ _____ _____    ______ ____
ROOT
ATOM      1  O   UNL     1     -59.861 -64.703  40.233  0.00  0.00    +0.000 OA
ATOM      2  O   UNL     1     -59.657 -60.185  43.146  0.00  0.00    +0.000 OA
ATOM      3  C   UNL     1     -61.089 -63.104  41.570  0.00  0.00    +0.000 C 
ATOM      4  C   UNL     1     -59.878 -63.688  40.902  0.00  0.00    +0.000 C 
ATOM      5  C   UNL     1     -60.787 -62.007  42.218  0.00  0.00    +0.000 C 
ATOM      6  C   UNL     1     -58.371 -61.801  41.782  0.00  0.00    +0.000 C 
ATOM      7  C   UNL     1     -59.596 -61.194  42.471  0.00  0.00    +0.000 C 
ATOM      8  C   UNL     1     -58.679 -62.894  41.138  0.00  0.00    +0.000 C 
ATOM      9  C   UNL     1     -56.980 -61.256  41.809  0.00  0.00    +0.000 C 
ENDROOT
BRANCH   3  10
ATOM     10  C   UNL     1     -62.359 -63.741  41.457  0.00  0.00    +0.000 C 
ATOM     11  C   UNL     1     -63.182 -63.597  40.200  0.00  0.00    +0.000 C 
ATOM     12  C   UNL     1     -62.727 -64.886  42.369  0.00  0.00    +0.000 C 
ENDBRANCH   3  10
TORSDOF 1
ENDMDL
MODEL 5
REMARK VINA RESULT:      -5.8     12.239     14.038
REMARK  Name = 10281_Thymoquinone.pdbqt.pdb
REMARK  1 active torsions:
REMARK  status: ('A' for Active; 'I' for Inactive)
REMARK    1  A    between atoms: C_3  and  C_10
REMARK                            x       y       z     vdW  Elec       q    Type
REMARK                         _______ _______ _______ _____ _____    ______ ____
ROOT
ATOM      1  O   UNL     1     -61.812 -64.873  42.967  0.00  0.00    +0.000 OA
ATOM      2  O   UNL     1     -57.868 -62.004  40.696  0.00  0.00    +0.000 OA
ATOM      3  C   UNL     1     -60.062 -64.812  41.298  0.00  0.00    +0.000 C 
ATOM      4  C   UNL     1     -60.909 -64.275  42.415  0.00  0.00    +0.000 C 
ATOM      5  C   UNL     1     -59.173 -63.930  40.914  0.00  0.00    +0.000 C 
ATOM      6  C   UNL     1     -59.650 -62.034  42.414  0.00  0.00    +0.000 C 
ATOM      7  C   UNL     1     -58.778 -62.567  41.273  0.00  0.00    +0.000 C 
ATOM      8  C   UNL     1     -60.533 -62.918  42.792  0.00  0.00    +0.000 C 
ATOM      9  C   UNL     1     -59.546 -60.687  43.051  0.00  0.00    +0.000 C 
ENDROOT
BRANCH   3  10
ATOM     10  C   UNL     1     -60.280 -66.125  40.788  0.00  0.00    +0.000 C 
ATOM     11  C   UNL     1     -61.402 -66.394  39.815  0.00  0.00    +0.000 C 
ATOM     12  C   UNL     1     -59.188 -67.165  40.853  0.00  0.00    +0.000 C 
ENDBRANCH   3  10
TORSDOF 1
ENDMDL
MODEL 6
REMARK VINA RESULT:      -5.4     14.044     15.966
REMARK  Name = 10281_Thymoquinone.pdbqt.pdb
REMARK  1 active torsions:
REMARK  status: ('A' for Active; 'I' for Inactive)
REMARK    1  A    between atoms: C_3  and  C_10
REMARK                            x       y       z     vdW  Elec       q    Type
REMARK                         _______ _______ _______ _____ _____    ______ ____
ROOT
ATOM      1  O   UNL     1     -64.075 -64.614  40.960  0.00  0.00    +0.000 OA
ATOM      2  O   UNL     1     -58.805 -63.572  40.668  0.00  0.00    +0.000 OA
ATOM      3  C   UNL     1     -62.014 -64.949  39.738  0.00  0.00    +0.000 C 
ATOM      4  C   UNL     1     -62.882 -64.414  40.840  0.00  0.00    +0.000 C 
ATOM      5  C   UNL     1     -60.772 -64.559  39.884  0.00  0.00    +0.000 C 
ATOM      6  C   UNL     1     -60.896 -63.210  41.942  0.00  0.00    +0.000 C 
ATOM      7  C   UNL     1     -59.998 -63.747  40.824  0.00  0.00    +0.000 C 
ATOM      8  C   UNL     1     -62.132 -63.602  41.791  0.00  0.00    +0.000 C 
ATOM      9  C   UNL     1     -60.467 -62.347  43.084  0.00  0.00    +0.000 C 
ENDROOT
BRANCH   3  10
ATOM     10  C   UNL     1     -62.568 -65.764  38.708  0.00  0.00    +0.000 C 
ATOM     11  C   UNL     1     -62.688 -67.257  38.892  0.00  0.00    +0.000 C 
ATOM     12  C   UNL     1     -63.416 -65.154  37.620  0.00  0.00    +0.000 C 
ENDBRANCH   3  10
TORSDOF 1
ENDMDL
MODEL 7
REMARK VINA RESULT:      -5.2      1.689      4.994
REMARK  Name = 10281_Thymoquinone.pdbqt.pdb
REMARK  1 active torsions:
REMARK  status: ('A' for Active; 'I' for Inactive)
REMARK    1  A    between atoms: C_3  and  C_10
REMARK                            x       y       z     vdW  Elec       q    Type
REMARK                         _______ _______ _______ _____ _____    ______ ____
ROOT
ATOM      1  O   UNL     1     -44.680 -64.129  42.332  0.00  0.00    +0.000 OA
ATOM      2  O   UNL     1     -47.628 -59.810  43.595  0.00  0.00    +0.000 OA
ATOM      3  C   UNL     1     -45.527 -61.981  41.611  0.00  0.00    +0.000 C 
ATOM      4  C   UNL     1     -45.332 -63.130  42.559  0.00  0.00    +0.000 C 
ATOM      5  C   UNL     1     -46.282 -61.053  42.144  0.00  0.00    +0.000 C 
ATOM      6  C   UNL     1     -46.776 -62.004  44.363  0.00  0.00    +0.000 C 
ATOM      7  C   UNL     1     -46.986 -60.826  43.408  0.00  0.00    +0.000 C 
ATOM      8  C   UNL     1     -46.024 -62.926  43.826  0.00  0.00    +0.000 C 
ATOM      9  C   UNL     1     -47.334 -62.134  45.743  0.00  0.00    +0.000 C 
ENDROOT
BRANCH   3  10
ATOM     10  C   UNL     1     -44.930 -61.998  40.317  0.00  0.00    +0.000 C 
ATOM     11  C   UNL     1     -45.722 -62.444  39.112  0.00  0.00    +0.000 C 
ATOM     12  C   UNL     1     -43.682 -61.198  40.038  0.00  0.00    +0.000 C 
ENDBRANCH   3  10
TORSDOF 1
ENDMDL
MODEL 8
REMARK VINA RESULT:      -4.9     14.295     16.373
REMARK  Name = 10281_Thymoquinone.pdbqt.pdb
REMARK  1 active torsions:
REMARK  status: ('A' for Active; 'I' for Inactive)
REMARK    1  A    between atoms: C_3  and  C_10
REMARK                            x       y       z     vdW  Elec       q    Type
REMARK                         _______ _______ _______ _____ _____    ______ ____
ROOT
ATOM      1  O   UNL     1     -47.819 -64.976  28.952  0.00  0.00    +0.000 OA
ATOM      2  O   UNL     1     -45.744 -69.761  27.631  0.00  0.00    +0.000 OA
ATOM      3  C   UNL     1     -47.288 -67.220  29.685  0.00  0.00    +0.000 C 
ATOM      4  C   UNL     1     -47.363 -66.077  28.714  0.00  0.00    +0.000 C 
ATOM      5  C   UNL     1     -46.745 -68.275  29.131  0.00  0.00    +0.000 C 
ATOM      6  C   UNL     1     -46.274 -67.473  26.850  0.00  0.00    +0.000 C 
ATOM      7  C   UNL     1     -46.191 -68.648  27.828  0.00  0.00    +0.000 C 
ATOM      8  C   UNL     1     -46.816 -66.424  27.407  0.00  0.00    +0.000 C 
ATOM      9  C   UNL     1     -45.809 -67.470  25.430  0.00  0.00    +0.000 C 
ENDROOT
BRANCH   3  10
ATOM     10  C   UNL     1     -47.777 -67.075  31.016  0.00  0.00    +0.000 C 
ATOM     11  C   UNL     1     -48.973 -67.867  31.485  0.00  0.00    +0.000 C 
ATOM     12  C   UNL     1     -46.903 -66.481  32.094  0.00  0.00    +0.000 C 
ENDBRANCH   3  10
TORSDOF 1
ENDMDL
MODEL 9
REMARK VINA RESULT:      -4.7     27.138     29.405
REMARK  Name = 10281_Thymoquinone.pdbqt.pdb
REMARK  1 active torsions:
REMARK  status: ('A' for Active; 'I' for Inactive)
REMARK    1  A    between atoms: C_3  and  C_10
REMARK                            x       y       z     vdW  Elec       q    Type
REMARK                         _______ _______ _______ _____ _____    ______ ____
ROOT
ATOM      1  O   UNL     1     -47.621 -45.165  68.211  0.00  0.00    +0.000 OA
ATOM      2  O   UNL     1     -44.617 -48.282  71.405  0.00  0.00    +0.000 OA
ATOM      3  C   UNL     1     -47.335 -47.347  69.215  0.00  0.00    +0.000 C 
ATOM      4  C   UNL     1     -46.984 -45.917  68.922  0.00  0.00    +0.000 C 
ATOM      5  C   UNL     1     -46.455 -47.895  70.015  0.00  0.00    +0.000 C 
ATOM      6  C   UNL     1     -44.881 -46.038  70.395  0.00  0.00    +0.000 C 
ATOM      7  C   UNL     1     -45.224 -47.498  70.702  0.00  0.00    +0.000 C 
ATOM      8  C   UNL     1     -45.762 -45.498  69.597  0.00  0.00    +0.000 C 
ATOM      9  C   UNL     1     -43.703 -45.278  70.914  0.00  0.00    +0.000 C 
ENDROOT
BRANCH   3  10
ATOM     10  C   UNL     1     -48.497 -47.942  68.643  0.00  0.00    +0.000 C 
ATOM     11  C   UNL     1     -48.540 -48.282  67.173  0.00  0.00    +0.000 C 
ATOM     12  C   UNL     1     -49.521 -48.623  69.517  0.00  0.00    +0.000 C 
ENDBRANCH   3  10
TORSDOF 1
ENDMDL
