MODEL 1
REMARK VINA RESULT:      -6.0      0.000      0.000
REMARK  Name = 10288191_Binimetinib.pdbqt.pdb
REMARK  6 active torsions:
REMARK  status: ('A' for Active; 'I' for Inactive)
REMARK    1  A    between atoms: C_6  and  N_21
REMARK    2  A    between atoms: C_7  and  C_14
REMARK    3  A    between atoms: N_13  and  O_16
REMARK    4  A    between atoms: O_16  and  C_17
REMARK    5  A    between atoms: C_18  and  O_19
REMARK    6  A    between atoms: N_21  and  C_25
REMARK                            x       y       z     vdW  Elec       q    Type
REMARK                         _______ _______ _______ _____ _____    ______ ____
ROOT
ATOM      1  F   UNL     1     -65.907 -43.002  37.127  0.00  0.00    +0.000 F 
ATOM      2  N   UNL     1     -64.098 -38.938  36.327  0.00  0.00    +0.000 N 
ATOM      3  N   UNL     1     -65.722 -40.354  35.850  0.00  0.00    +0.000 NA
ATOM      4  C   UNL     1     -63.857 -40.016  37.129  0.00  0.00    +0.000 A 
ATOM      5  C   UNL     1     -64.891 -40.893  36.816  0.00  0.00    +0.000 A 
ATOM      6  C   UNL     1     -63.979 -42.488  38.449  0.00  0.00    +0.000 A 
ATOM      7  C   UNL     1     -62.936 -41.563  38.721  0.00  0.00    +0.000 A 
ATOM      8  C   UNL     1     -62.866 -40.321  38.064  0.00  0.00    +0.000 A 
ATOM      9  C   UNL     1     -64.947 -42.134  37.480  0.00  0.00    +0.000 A 
ATOM     10  C   UNL     1     -65.213 -39.168  35.579  0.00  0.00    +0.000 A 
ATOM     11  C   UNL     1     -63.321 -37.743  36.289  0.00  0.00    +0.000 C 
ENDROOT
BRANCH   7  14
ATOM     12  O   UNL     1     -61.684 -43.045  40.064  0.00  0.00    +0.000 OA
ATOM     13  N   UNL     1     -61.079 -40.823  40.134  0.00  0.00    +0.000 N 
ATOM     14  C   UNL     1     -61.846 -41.884  39.697  0.00  0.00    +0.000 C 
ATOM     15  H   UNL     1     -61.426 -39.872  40.123  0.00  0.00    +0.000 HD
BRANCH  13  16
ATOM     16  O   UNL     1     -60.269 -41.127  41.250  0.00  0.00    +0.000 OA
BRANCH  16  17
ATOM     17  C   UNL     1     -59.023 -40.810  40.903  0.00  0.00    +0.000 C 
ATOM     18  C   UNL     1     -57.589 -40.437  40.514  0.00  0.00    +0.000 C 
BRANCH  18  19
ATOM     19  O   UNL     1     -56.344 -40.108  40.184  0.00  0.00    +0.000 OA
ATOM     20  H   UNL     1     -56.088 -40.554  39.359  0.00  0.00    +0.000 HD
ENDBRANCH  18  19
ENDBRANCH  16  17
ENDBRANCH  13  16
ENDBRANCH   7  14
BRANCH   6  21
ATOM     21  N   UNL     1     -64.053 -43.714  39.158  0.00  0.00    +0.000 N 
ATOM     22  H   UNL     1     -63.134 -44.165  39.288  0.00  0.00    +0.000 HD
BRANCH  21  25
ATOM     23 BR   UNL     1     -68.330 -45.866  42.934  0.00  0.00    +0.000 Br
ATOM     24  F   UNL     1     -65.515 -45.981  38.581  0.00  0.00    +0.000 F 
ATOM     25  C   UNL     1     -65.007 -44.207  40.073  0.00  0.00    +0.000 A 
ATOM     26  C   UNL     1     -65.757 -45.348  39.741  0.00  0.00    +0.000 A 
ATOM     27  C   UNL     1     -65.306 -43.570  41.278  0.00  0.00    +0.000 A 
ATOM     28  C   UNL     1     -66.744 -45.853  40.581  0.00  0.00    +0.000 A 
ATOM     29  C   UNL     1     -66.291 -44.061  42.135  0.00  0.00    +0.000 A 
ATOM     30  C   UNL     1     -67.002 -45.200  41.779  0.00  0.00    +0.000 A 
ENDBRANCH  21  25
ENDBRANCH   6  21
TORSDOF 6
ENDMDL
MODEL 2
REMARK VINA RESULT:      -5.8     30.037     32.322
REMARK  Name = 10288191_Binimetinib.pdbqt.pdb
REMARK  6 active torsions:
REMARK  status: ('A' for Active; 'I' for Inactive)
REMARK    1  A    between atoms: C_6  and  N_21
REMARK    2  A    between atoms: C_7  and  C_14
REMARK    3  A    between atoms: N_13  and  O_16
REMARK    4  A    between atoms: O_16  and  C_17
REMARK    5  A    between atoms: C_18  and  O_19
REMARK    6  A    between atoms: N_21  and  C_25
REMARK                            x       y       z     vdW  Elec       q    Type
REMARK                         _______ _______ _______ _____ _____    ______ ____
ROOT
ATOM      1  F   UNL     1     -68.075 -73.359  30.046  0.00  0.00    +0.000 F 
ATOM      2  N   UNL     1     -69.526 -74.179  25.845  0.00  0.00    +0.000 N 
ATOM      3  N   UNL     1     -69.657 -74.734  27.977  0.00  0.00    +0.000 NA
ATOM      4  C   UNL     1     -68.682 -73.311  26.476  0.00  0.00    +0.000 A 
ATOM      5  C   UNL     1     -68.783 -73.674  27.816  0.00  0.00    +0.000 A 
ATOM      6  C   UNL     1     -67.181 -71.896  28.376  0.00  0.00    +0.000 A 
ATOM      7  C   UNL     1     -67.103 -71.575  26.995  0.00  0.00    +0.000 A 
ATOM      8  C   UNL     1     -67.852 -72.279  26.034  0.00  0.00    +0.000 A 
ATOM      9  C   UNL     1     -68.025 -72.963  28.766  0.00  0.00    +0.000 A 
ATOM     10  C   UNL     1     -70.090 -75.013  26.762  0.00  0.00    +0.000 A 
ATOM     11  C   UNL     1     -69.795 -74.202  24.445  0.00  0.00    +0.000 C 
ENDROOT
BRANCH   7  14
ATOM     12  O   UNL     1     -66.671 -69.411  26.161  0.00  0.00    +0.000 OA
ATOM     13  N   UNL     1     -64.849 -70.791  26.449  0.00  0.00    +0.000 N 
ATOM     14  C   UNL     1     -66.196 -70.492  26.498  0.00  0.00    +0.000 C 
ATOM     15  H   UNL     1     -64.516 -71.744  26.376  0.00  0.00    +0.000 HD
BRANCH  13  16
ATOM     16  O   UNL     1     -64.085 -69.857  25.717  0.00  0.00    +0.000 OA
BRANCH  16  17
ATOM     17  C   UNL     1     -62.907 -70.434  25.491  0.00  0.00    +0.000 C 
ATOM     18  C   UNL     1     -61.544 -71.087  25.233  0.00  0.00    +0.000 C 
BRANCH  18  19
ATOM     19  O   UNL     1     -60.360 -71.646  25.011  0.00  0.00    +0.000 OA
ATOM     20  H   UNL     1     -59.871 -71.738  25.847  0.00  0.00    +0.000 HD
ENDBRANCH  18  19
ENDBRANCH  16  17
ENDBRANCH  13  16
ENDBRANCH   7  14
BRANCH   6  21
ATOM     21  N   UNL     1     -66.451 -71.142  29.330  0.00  0.00    +0.000 N 
ATOM     22  H   UNL     1     -67.030 -70.451  29.832  0.00  0.00    +0.000 HD
BRANCH  21  25
ATOM     23 BR   UNL     1     -61.206 -72.167  32.268  0.00  0.00    +0.000 Br
ATOM     24  F   UNL     1     -65.222 -69.204  30.861  0.00  0.00    +0.000 F 
ATOM     25  C   UNL     1     -65.259 -71.425  30.029  0.00  0.00    +0.000 A 
ATOM     26  C   UNL     1     -64.640 -70.412  30.779  0.00  0.00    +0.000 A 
ATOM     27  C   UNL     1     -64.607 -72.658  29.955  0.00  0.00    +0.000 A 
ATOM     28  C   UNL     1     -63.439 -70.618  31.450  0.00  0.00    +0.000 A 
ATOM     29  C   UNL     1     -63.403 -72.886  30.621  0.00  0.00    +0.000 A 
ATOM     30  C   UNL     1     -62.829 -71.862  31.365  0.00  0.00    +0.000 A 
ENDBRANCH  21  25
ENDBRANCH   6  21
TORSDOF 6
ENDMDL
MODEL 3
REMARK VINA RESULT:      -5.8     31.929     35.117
REMARK  Name = 10288191_Binimetinib.pdbqt.pdb
REMARK  6 active torsions:
REMARK  status: ('A' for Active; 'I' for Inactive)
REMARK    1  A    between atoms: C_6  and  N_21
REMARK    2  A    between atoms: C_7  and  C_14
REMARK    3  A    between atoms: N_13  and  O_16
REMARK    4  A    between atoms: O_16  and  C_17
REMARK    5  A    between atoms: C_18  and  O_19
REMARK    6  A    between atoms: N_21  and  C_25
REMARK                            x       y       z     vdW  Elec       q    Type
REMARK                         _______ _______ _______ _____ _____    ______ ____
ROOT
ATOM      1  F   UNL     1     -56.286 -74.260  49.891  0.00  0.00    +0.000 F 
ATOM      2  N   UNL     1     -59.357 -75.424  52.997  0.00  0.00    +0.000 N 
ATOM      3  N   UNL     1     -57.279 -74.788  52.613  0.00  0.00    +0.000 NA
ATOM      4  C   UNL     1     -59.296 -75.256  51.644  0.00  0.00    +0.000 A 
ATOM      5  C   UNL     1     -57.982 -74.852  51.424  0.00  0.00    +0.000 A 
ATOM      6  C   UNL     1     -58.469 -74.717  49.019  0.00  0.00    +0.000 A 
ATOM      7  C   UNL     1     -59.793 -75.146  49.295  0.00  0.00    +0.000 A 
ATOM      8  C   UNL     1     -60.218 -75.419  50.608  0.00  0.00    +0.000 A 
ATOM      9  C   UNL     1     -57.571 -74.585  50.104  0.00  0.00    +0.000 A 
ATOM     10  C   UNL     1     -58.144 -75.139  53.546  0.00  0.00    +0.000 A 
ATOM     11  C   UNL     1     -60.514 -75.816  53.732  0.00  0.00    +0.000 C 
ENDROOT
BRANCH   7  14
ATOM     12  O   UNL     1     -60.687 -76.339  47.466  0.00  0.00    +0.000 OA
ATOM     13  N   UNL     1     -61.780 -74.403  48.072  0.00  0.00    +0.000 N 
ATOM     14  C   UNL     1     -60.789 -75.356  48.195  0.00  0.00    +0.000 C 
ATOM     15  H   UNL     1     -61.658 -73.457  48.411  0.00  0.00    +0.000 HD
BRANCH  13  16
ATOM     16  O   UNL     1     -62.508 -74.492  46.865  0.00  0.00    +0.000 OA
BRANCH  16  17
ATOM     17  C   UNL     1     -62.207 -73.399  46.167  0.00  0.00    +0.000 C 
ATOM     18  C   UNL     1     -61.868 -72.146  45.353  0.00  0.00    +0.000 C 
BRANCH  18  19
ATOM     19  O   UNL     1     -61.581 -71.061  44.641  0.00  0.00    +0.000 OA
ATOM     20  H   UNL     1     -60.949 -70.502  45.124  0.00  0.00    +0.000 HD
ENDBRANCH  18  19
ENDBRANCH  16  17
ENDBRANCH  13  16
ENDBRANCH   7  14
BRANCH   6  21
ATOM     21  N   UNL     1     -58.078 -74.404  47.691  0.00  0.00    +0.000 N 
ATOM     22  H   UNL     1     -57.836 -73.409  47.562  0.00  0.00    +0.000 HD
BRANCH  21  25
ATOM     23 BR   UNL     1     -55.973 -77.917  43.172  0.00  0.00    +0.000 Br
ATOM     24  F   UNL     1     -58.941 -74.120  45.087  0.00  0.00    +0.000 F 
ATOM     25  C   UNL     1     -57.540 -75.207  46.663  0.00  0.00    +0.000 A 
ATOM     26  C   UNL     1     -58.018 -75.060  45.350  0.00  0.00    +0.000 A 
ATOM     27  C   UNL     1     -56.597 -76.210  46.895  0.00  0.00    +0.000 A 
ATOM     28  C   UNL     1     -57.561 -75.855  44.305  0.00  0.00    +0.000 A 
ATOM     29  C   UNL     1     -56.124 -77.016  45.860  0.00  0.00    +0.000 A 
ATOM     30  C   UNL     1     -56.611 -76.831  44.571  0.00  0.00    +0.000 A 
ENDBRANCH  21  25
ENDBRANCH   6  21
TORSDOF 6
ENDMDL
MODEL 4
REMARK VINA RESULT:      -5.7     24.038     27.069
REMARK  Name = 10288191_Binimetinib.pdbqt.pdb
REMARK  6 active torsions:
REMARK  status: ('A' for Active; 'I' for Inactive)
REMARK    1  A    between atoms: C_6  and  N_21
REMARK    2  A    between atoms: C_7  and  C_14
REMARK    3  A    between atoms: N_13  and  O_16
REMARK    4  A    between atoms: O_16  and  C_17
REMARK    5  A    between atoms: C_18  and  O_19
REMARK    6  A    between atoms: N_21  and  C_25
REMARK                            x       y       z     vdW  Elec       q    Type
REMARK                         _______ _______ _______ _____ _____    ______ ____
ROOT
ATOM      1  F   UNL     1     -59.289 -68.020  41.598  0.00  0.00    +0.000 F 
ATOM      2  N   UNL     1     -61.228 -64.245  40.045  0.00  0.00    +0.000 N 
ATOM      3  N   UNL     1     -59.412 -65.162  40.898  0.00  0.00    +0.000 NA
ATOM      4  C   UNL     1     -61.552 -65.561  40.201  0.00  0.00    +0.000 A 
ATOM      5  C   UNL     1     -60.395 -66.121  40.734  0.00  0.00    +0.000 A 
ATOM      6  C   UNL     1     -61.518 -68.307  40.774  0.00  0.00    +0.000 A 
ATOM      7  C   UNL     1     -62.678 -67.684  40.242  0.00  0.00    +0.000 A 
ATOM      8  C   UNL     1     -62.706 -66.307  39.952  0.00  0.00    +0.000 A 
ATOM      9  C   UNL     1     -60.384 -67.499  41.023  0.00  0.00    +0.000 A 
ATOM     10  C   UNL     1     -59.950 -64.037  40.467  0.00  0.00    +0.000 A 
ATOM     11  C   UNL     1     -62.083 -63.240  39.504  0.00  0.00    +0.000 C 
ENDROOT
BRANCH   7  14
ATOM     12  O   UNL     1     -63.891 -69.489  39.326  0.00  0.00    +0.000 OA
ATOM     13  N   UNL     1     -65.092 -67.954  40.554  0.00  0.00    +0.000 N 
ATOM     14  C   UNL     1     -63.936 -68.461  39.997  0.00  0.00    +0.000 C 
ATOM     15  H   UNL     1     -65.191 -66.972  40.779  0.00  0.00    +0.000 HD
BRANCH  13  16
ATOM     16  O   UNL     1     -66.272 -68.553  40.063  0.00  0.00    +0.000 OA
BRANCH  16  17
ATOM     17  C   UNL     1     -67.011 -68.850  41.130  0.00  0.00    +0.000 C 
ATOM     18  C   UNL     1     -67.852 -69.190  42.366  0.00  0.00    +0.000 C 
BRANCH  18  19
ATOM     19  O   UNL     1     -68.573 -69.482  43.442  0.00  0.00    +0.000 OA
ATOM     20  H   UNL     1     -69.147 -70.246  43.263  0.00  0.00    +0.000 HD
ENDBRANCH  18  19
ENDBRANCH  16  17
ENDBRANCH  13  16
ENDBRANCH   7  14
BRANCH   6  21
ATOM     21  N   UNL     1     -61.501 -69.705  41.016  0.00  0.00    +0.000 N 
ATOM     22  H   UNL     1     -61.242 -70.258  40.184  0.00  0.00    +0.000 HD
BRANCH  21  25
ATOM     23 BR   UNL     1     -60.695 -73.083  46.028  0.00  0.00    +0.000 Br
ATOM     24  F   UNL     1     -59.205 -71.170  41.445  0.00  0.00    +0.000 F 
ATOM     25  C   UNL     1     -61.331 -70.443  42.205  0.00  0.00    +0.000 A 
ATOM     26  C   UNL     1     -60.163 -71.203  42.385  0.00  0.00    +0.000 A 
ATOM     27  C   UNL     1     -62.309 -70.524  43.199  0.00  0.00    +0.000 A 
ATOM     28  C   UNL     1     -59.960 -71.988  43.515  0.00  0.00    +0.000 A 
ATOM     29  C   UNL     1     -62.124 -71.305  44.339  0.00  0.00    +0.000 A 
ATOM     30  C   UNL     1     -60.949 -72.030  44.488  0.00  0.00    +0.000 A 
ENDBRANCH  21  25
ENDBRANCH   6  21
TORSDOF 6
ENDMDL
MODEL 5
REMARK VINA RESULT:      -5.7     23.866     27.103
REMARK  Name = 10288191_Binimetinib.pdbqt.pdb
REMARK  6 active torsions:
REMARK  status: ('A' for Active; 'I' for Inactive)
REMARK    1  A    between atoms: C_6  and  N_21
REMARK    2  A    between atoms: C_7  and  C_14
REMARK    3  A    between atoms: N_13  and  O_16
REMARK    4  A    between atoms: O_16  and  C_17
REMARK    5  A    between atoms: C_18  and  O_19
REMARK    6  A    between atoms: N_21  and  C_25
REMARK                            x       y       z     vdW  Elec       q    Type
REMARK                         _______ _______ _______ _____ _____    ______ ____
ROOT
ATOM      1  F   UNL     1     -65.840 -71.573  41.741  0.00  0.00    +0.000 F 
ATOM      2  N   UNL     1     -61.398 -70.794  41.432  0.00  0.00    +0.000 N 
ATOM      3  N   UNL     1     -62.999 -72.312  41.497  0.00  0.00    +0.000 NA
ATOM      4  C   UNL     1     -62.552 -70.069  41.517  0.00  0.00    +0.000 A 
ATOM      5  C   UNL     1     -63.546 -71.043  41.552  0.00  0.00    +0.000 A 
ATOM      6  C   UNL     1     -65.232 -69.259  41.685  0.00  0.00    +0.000 A 
ATOM      7  C   UNL     1     -64.179 -68.306  41.661  0.00  0.00    +0.000 A 
ATOM      8  C   UNL     1     -62.831 -68.703  41.577  0.00  0.00    +0.000 A 
ATOM      9  C   UNL     1     -64.890 -70.631  41.640  0.00  0.00    +0.000 A 
ATOM     10  C   UNL     1     -61.695 -72.123  41.422  0.00  0.00    +0.000 A 
ATOM     11  C   UNL     1     -60.083 -70.250  41.345  0.00  0.00    +0.000 C 
ENDROOT
BRANCH   7  14
ATOM     12  O   UNL     1     -65.017 -66.389  42.752  0.00  0.00    +0.000 OA
ATOM     13  N   UNL     1     -64.053 -66.065  40.684  0.00  0.00    +0.000 N 
ATOM     14  C   UNL     1     -64.456 -66.837  41.755  0.00  0.00    +0.000 C 
ATOM     15  H   UNL     1     -63.934 -66.456  39.758  0.00  0.00    +0.000 HD
BRANCH  13  16
ATOM     16  O   UNL     1     -64.584 -64.757  40.693  0.00  0.00    +0.000 OA
BRANCH  16  17
ATOM     17  C   UNL     1     -63.589 -63.948  40.333  0.00  0.00    +0.000 C 
ATOM     18  C   UNL     1     -62.446 -63.021  39.906  0.00  0.00    +0.000 C 
BRANCH  18  19
ATOM     19  O   UNL     1     -61.456 -62.220  39.527  0.00  0.00    +0.000 OA
ATOM     20  H   UNL     1     -61.485 -61.390  40.034  0.00  0.00    +0.000 HD
ENDBRANCH  18  19
ENDBRANCH  16  17
ENDBRANCH  13  16
ENDBRANCH   7  14
BRANCH   6  21
ATOM     21  N   UNL     1     -66.584 -68.832  41.725  0.00  0.00    +0.000 N 
ATOM     22  H   UNL     1     -66.700 -67.885  42.117  0.00  0.00    +0.000 HD
BRANCH  21  25
ATOM     23 BR   UNL     1     -71.484 -70.683  38.602  0.00  0.00    +0.000 Br
ATOM     24  F   UNL     1     -69.017 -69.282  42.943  0.00  0.00    +0.000 F 
ATOM     25  C   UNL     1     -67.707 -69.221  40.966  0.00  0.00    +0.000 A 
ATOM     26  C   UNL     1     -68.928 -69.470  41.616  0.00  0.00    +0.000 A 
ATOM     27  C   UNL     1     -67.655 -69.449  39.589  0.00  0.00    +0.000 A 
ATOM     28  C   UNL     1     -70.057 -69.901  40.927  0.00  0.00    +0.000 A 
ATOM     29  C   UNL     1     -68.776 -69.881  38.880  0.00  0.00    +0.000 A 
ATOM     30  C   UNL     1     -69.969 -70.103  39.557  0.00  0.00    +0.000 A 
ENDBRANCH  21  25
ENDBRANCH   6  21
TORSDOF 6
ENDMDL
MODEL 6
REMARK VINA RESULT:      -5.7     43.284     45.224
REMARK  Name = 10288191_Binimetinib.pdbqt.pdb
REMARK  6 active torsions:
REMARK  status: ('A' for Active; 'I' for Inactive)
REMARK    1  A    between atoms: C_6  and  N_21
REMARK    2  A    between atoms: C_7  and  C_14
REMARK    3  A    between atoms: N_13  and  O_16
REMARK    4  A    between atoms: O_16  and  C_17
REMARK    5  A    between atoms: C_18  and  O_19
REMARK    6  A    between atoms: N_21  and  C_25
REMARK                            x       y       z     vdW  Elec       q    Type
REMARK                         _______ _______ _______ _____ _____    ______ ____
ROOT
ATOM      1  F   UNL     1     -33.652 -66.834  65.963  0.00  0.00    +0.000 F 
ATOM      2  N   UNL     1     -35.895 -63.636  68.238  0.00  0.00    +0.000 N 
ATOM      3  N   UNL     1     -35.433 -65.787  68.062  0.00  0.00    +0.000 NA
ATOM      4  C   UNL     1     -35.031 -63.715  67.184  0.00  0.00    +0.000 A 
ATOM      5  C   UNL     1     -34.750 -65.075  67.093  0.00  0.00    +0.000 A 
ATOM      6  C   UNL     1     -33.271 -64.601  65.188  0.00  0.00    +0.000 A 
ATOM      7  C   UNL     1     -33.603 -63.226  65.314  0.00  0.00    +0.000 A 
ATOM      8  C   UNL     1     -34.485 -62.771  66.312  0.00  0.00    +0.000 A 
ATOM      9  C   UNL     1     -33.868 -65.515  66.088  0.00  0.00    +0.000 A 
ATOM     10  C   UNL     1     -36.116 -64.883  68.739  0.00  0.00    +0.000 A 
ATOM     11  C   UNL     1     -36.467 -62.436  68.752  0.00  0.00    +0.000 C 
ENDROOT
BRANCH   7  14
ATOM     12  O   UNL     1     -31.849 -62.196  64.118  0.00  0.00    +0.000 OA
ATOM     13  N   UNL     1     -33.956 -61.310  63.831  0.00  0.00    +0.000 N 
ATOM     14  C   UNL     1     -33.051 -62.203  64.369  0.00  0.00    +0.000 C 
ATOM     15  H   UNL     1     -34.829 -61.091  64.293  0.00  0.00    +0.000 HD
BRANCH  13  16
ATOM     16  O   UNL     1     -33.354 -60.209  63.184  0.00  0.00    +0.000 OA
BRANCH  16  17
ATOM     17  C   UNL     1     -33.444 -59.185  64.031  0.00  0.00    +0.000 C 
ATOM     18  C   UNL     1     -33.537 -58.013  65.013  0.00  0.00    +0.000 C 
BRANCH  18  19
ATOM     19  O   UNL     1     -33.612 -57.000  65.870  0.00  0.00    +0.000 OA
ATOM     20  H   UNL     1     -32.928 -57.090  66.555  0.00  0.00    +0.000 HD
ENDBRANCH  18  19
ENDBRANCH  16  17
ENDBRANCH  13  16
ENDBRANCH   7  14
BRANCH   6  21
ATOM     21  N   UNL     1     -32.344 -65.028  64.203  0.00  0.00    +0.000 N 
ATOM     22  H   UNL     1     -31.528 -65.521  64.598  0.00  0.00    +0.000 HD
BRANCH  21  25
ATOM     23 BR   UNL     1     -32.937 -66.043  58.219  0.00  0.00    +0.000 Br
ATOM     24  F   UNL     1     -30.245 -64.705  62.444  0.00  0.00    +0.000 F 
ATOM     25  C   UNL     1     -32.506 -65.310  62.830  0.00  0.00    +0.000 A 
ATOM     26  C   UNL     1     -31.427 -65.111  61.952  0.00  0.00    +0.000 A 
ATOM     27  C   UNL     1     -33.721 -65.713  62.273  0.00  0.00    +0.000 A 
ATOM     28  C   UNL     1     -31.540 -65.326  60.583  0.00  0.00    +0.000 A 
ATOM     29  C   UNL     1     -33.855 -65.935  60.903  0.00  0.00    +0.000 A 
ATOM     30  C   UNL     1     -32.761 -65.741  60.068  0.00  0.00    +0.000 A 
ENDBRANCH  21  25
ENDBRANCH   6  21
TORSDOF 6
ENDMDL
MODEL 7
REMARK VINA RESULT:      -5.7      1.877      2.185
REMARK  Name = 10288191_Binimetinib.pdbqt.pdb
REMARK  6 active torsions:
REMARK  status: ('A' for Active; 'I' for Inactive)
REMARK    1  A    between atoms: C_6  and  N_21
REMARK    2  A    between atoms: C_7  and  C_14
REMARK    3  A    between atoms: N_13  and  O_16
REMARK    4  A    between atoms: O_16  and  C_17
REMARK    5  A    between atoms: C_18  and  O_19
REMARK    6  A    between atoms: N_21  and  C_25
REMARK                            x       y       z     vdW  Elec       q    Type
REMARK                         _______ _______ _______ _____ _____    ______ ____
ROOT
ATOM      1  F   UNL     1     -65.083 -40.731  37.497  0.00  0.00    +0.000 F 
ATOM      2  N   UNL     1     -61.557 -38.860  35.376  0.00  0.00    +0.000 N 
ATOM      3  N   UNL     1     -63.727 -39.262  35.335  0.00  0.00    +0.000 NA
ATOM      4  C   UNL     1     -61.804 -39.524  36.543  0.00  0.00    +0.000 A 
ATOM      5  C   UNL     1     -63.174 -39.763  36.499  0.00  0.00    +0.000 A 
ATOM      6  C   UNL     1     -63.009 -40.876  38.684  0.00  0.00    +0.000 A 
ATOM      7  C   UNL     1     -61.612 -40.620  38.673  0.00  0.00    +0.000 A 
ATOM      8  C   UNL     1     -60.998 -39.943  37.604  0.00  0.00    +0.000 A 
ATOM      9  C   UNL     1     -63.774 -40.445  37.575  0.00  0.00    +0.000 A 
ATOM     10  C   UNL     1     -62.719 -38.719  34.679  0.00  0.00    +0.000 A 
ATOM     11  C   UNL     1     -60.287 -38.369  34.955  0.00  0.00    +0.000 C 
ENDROOT
BRANCH   7  14
ATOM     12  O   UNL     1     -61.053 -42.070  40.449  0.00  0.00    +0.000 OA
ATOM     13  N   UNL     1     -59.572 -40.362  40.002  0.00  0.00    +0.000 N 
ATOM     14  C   UNL     1     -60.727 -41.088  39.787  0.00  0.00    +0.000 C 
ATOM     15  H   UNL     1     -59.490 -39.393  39.721  0.00  0.00    +0.000 HD
BRANCH  13  16
ATOM     16  O   UNL     1     -58.929 -40.663  41.222  0.00  0.00    +0.000 OA
BRANCH  16  17
ATOM     17  C   UNL     1     -57.705 -41.083  40.904  0.00  0.00    +0.000 C 
ATOM     18  C   UNL     1     -56.294 -41.564  40.552  0.00  0.00    +0.000 C 
BRANCH  18  19
ATOM     19  O   UNL     1     -55.068 -41.981  40.254  0.00  0.00    +0.000 OA
ATOM     20  H   UNL     1     -54.442 -41.238  40.296  0.00  0.00    +0.000 HD
ENDBRANCH  18  19
ENDBRANCH  16  17
ENDBRANCH  13  16
ENDBRANCH   7  14
BRANCH   6  21
ATOM     21  N   UNL     1     -63.611 -41.521  39.795  0.00  0.00    +0.000 N 
ATOM     22  H   UNL     1     -63.686 -40.914  40.626  0.00  0.00    +0.000 HD
BRANCH  21  25
ATOM     23 BR   UNL     1     -67.389 -46.307  39.897  0.00  0.00    +0.000 Br
ATOM     24  F   UNL     1     -62.852 -44.010  38.882  0.00  0.00    +0.000 F 
ATOM     25  C   UNL     1     -64.497 -42.616  39.871  0.00  0.00    +0.000 A 
ATOM     26  C   UNL     1     -64.094 -43.867  39.373  0.00  0.00    +0.000 A 
ATOM     27  C   UNL     1     -65.804 -42.507  40.352  0.00  0.00    +0.000 A 
ATOM     28  C   UNL     1     -64.940 -44.971  39.376  0.00  0.00    +0.000 A 
ATOM     29  C   UNL     1     -66.667 -43.603  40.365  0.00  0.00    +0.000 A 
ATOM     30  C   UNL     1     -66.227 -44.827  39.877  0.00  0.00    +0.000 A 
ENDBRANCH  21  25
ENDBRANCH   6  21
TORSDOF 6
ENDMDL
MODEL 8
REMARK VINA RESULT:      -5.6     25.323     28.492
REMARK  Name = 10288191_Binimetinib.pdbqt.pdb
REMARK  6 active torsions:
REMARK  status: ('A' for Active; 'I' for Inactive)
REMARK    1  A    between atoms: C_6  and  N_21
REMARK    2  A    between atoms: C_7  and  C_14
REMARK    3  A    between atoms: N_13  and  O_16
REMARK    4  A    between atoms: O_16  and  C_17
REMARK    5  A    between atoms: C_18  and  O_19
REMARK    6  A    between atoms: N_21  and  C_25
REMARK                            x       y       z     vdW  Elec       q    Type
REMARK                         _______ _______ _______ _____ _____    ______ ____
ROOT
ATOM      1  F   UNL     1     -64.634 -72.724  43.348  0.00  0.00    +0.000 F 
ATOM      2  N   UNL     1     -67.455 -70.715  40.443  0.00  0.00    +0.000 N 
ATOM      3  N   UNL     1     -67.004 -72.533  41.609  0.00  0.00    +0.000 NA
ATOM      4  C   UNL     1     -66.317 -70.406  41.130  0.00  0.00    +0.000 A 
ATOM      5  C   UNL     1     -66.053 -71.561  41.860  0.00  0.00    +0.000 A 
ATOM      6  C   UNL     1     -64.068 -70.462  42.806  0.00  0.00    +0.000 A 
ATOM      7  C   UNL     1     -64.374 -69.314  42.028  0.00  0.00    +0.000 A 
ATOM      8  C   UNL     1     -65.499 -69.275  41.185  0.00  0.00    +0.000 A 
ATOM      9  C   UNL     1     -64.921 -71.586  42.697  0.00  0.00    +0.000 A 
ATOM     10  C   UNL     1     -67.840 -71.985  40.748  0.00  0.00    +0.000 A 
ATOM     11  C   UNL     1     -68.152 -69.840  39.558  0.00  0.00    +0.000 C 
ENDROOT
BRANCH   7  14
ATOM     12  O   UNL     1     -62.294 -68.221  41.812  0.00  0.00    +0.000 OA
ATOM     13  N   UNL     1     -64.105 -66.901  42.348  0.00  0.00    +0.000 N 
ATOM     14  C   UNL     1     -63.493 -68.102  42.050  0.00  0.00    +0.000 C 
ATOM     15  H   UNL     1     -64.967 -66.857  42.877  0.00  0.00    +0.000 HD
BRANCH  13  16
ATOM     16  O   UNL     1     -63.200 -65.856  42.633  0.00  0.00    +0.000 OA
BRANCH  16  17
ATOM     17  C   UNL     1     -63.382 -64.937  41.687  0.00  0.00    +0.000 C 
ATOM     18  C   UNL     1     -63.593 -63.889  40.589  0.00  0.00    +0.000 C 
BRANCH  18  19
ATOM     19  O   UNL     1     -63.779 -62.987  39.631  0.00  0.00    +0.000 OA
ATOM     20  H   UNL     1     -64.386 -63.335  38.956  0.00  0.00    +0.000 HD
ENDBRANCH  18  19
ENDBRANCH  16  17
ENDBRANCH  13  16
ENDBRANCH   7  14
BRANCH   6  21
ATOM     21  N   UNL     1     -62.953 -70.459  43.683  0.00  0.00    +0.000 N 
ATOM     22  H   UNL     1     -63.189 -70.148  44.638  0.00  0.00    +0.000 HD
BRANCH  21  25
ATOM     23 BR   UNL     1     -57.674 -73.508  43.782  0.00  0.00    +0.000 Br
ATOM     24  F   UNL     1     -62.228 -72.070  45.800  0.00  0.00    +0.000 F 
ATOM     25  C   UNL     1     -61.742 -71.181  43.655  0.00  0.00    +0.000 A 
ATOM     26  C   UNL     1     -61.385 -71.973  44.759  0.00  0.00    +0.000 A 
ATOM     27  C   UNL     1     -60.826 -71.093  42.605  0.00  0.00    +0.000 A 
ATOM     28  C   UNL     1     -60.183 -72.671  44.809  0.00  0.00    +0.000 A 
ATOM     29  C   UNL     1     -59.616 -71.786  42.635  0.00  0.00    +0.000 A 
ATOM     30  C   UNL     1     -59.305 -72.571  43.739  0.00  0.00    +0.000 A 
ENDBRANCH  21  25
ENDBRANCH   6  21
TORSDOF 6
ENDMDL
MODEL 9
REMARK VINA RESULT:      -5.6     31.052     32.237
REMARK  Name = 10288191_Binimetinib.pdbqt.pdb
REMARK  6 active torsions:
REMARK  status: ('A' for Active; 'I' for Inactive)
REMARK    1  A    between atoms: C_6  and  N_21
REMARK    2  A    between atoms: C_7  and  C_14
REMARK    3  A    between atoms: N_13  and  O_16
REMARK    4  A    between atoms: O_16  and  C_17
REMARK    5  A    between atoms: C_18  and  O_19
REMARK    6  A    between atoms: N_21  and  C_25
REMARK                            x       y       z     vdW  Elec       q    Type
REMARK                         _______ _______ _______ _____ _____    ______ ____
ROOT
ATOM      1  F   UNL     1     -45.691 -69.748  29.447  0.00  0.00    +0.000 F 
ATOM      2  N   UNL     1     -44.814 -68.166  25.304  0.00  0.00    +0.000 N 
ATOM      3  N   UNL     1     -44.662 -69.877  26.690  0.00  0.00    +0.000 NA
ATOM      4  C   UNL     1     -45.418 -67.733  26.449  0.00  0.00    +0.000 A 
ATOM      5  C   UNL     1     -45.315 -68.825  27.306  0.00  0.00    +0.000 A 
ATOM      6  C   UNL     1     -46.487 -67.528  29.034  0.00  0.00    +0.000 A 
ATOM      7  C   UNL     1     -46.553 -66.439  28.126  0.00  0.00    +0.000 A 
ATOM      8  C   UNL     1     -46.019 -66.531  26.827  0.00  0.00    +0.000 A 
ATOM      9  C   UNL     1     -45.851 -68.717  28.603  0.00  0.00    +0.000 A 
ATOM     10  C   UNL     1     -44.375 -69.444  25.477  0.00  0.00    +0.000 A 
ATOM     11  C   UNL     1     -44.679 -67.412  24.102  0.00  0.00    +0.000 C 
ENDROOT
BRANCH   7  14
ATOM     12  O   UNL     1     -48.235 -65.122  29.129  0.00  0.00    +0.000 OA
ATOM     13  N   UNL     1     -46.471 -63.992  28.170  0.00  0.00    +0.000 N 
ATOM     14  C   UNL     1     -47.166 -65.131  28.523  0.00  0.00    +0.000 C 
ATOM     15  H   UNL     1     -45.820 -63.982  27.394  0.00  0.00    +0.000 HD
BRANCH  13  16
ATOM     16  O   UNL     1     -47.217 -62.802  28.310  0.00  0.00    +0.000 OA
BRANCH  16  17
ATOM     17  C   UNL     1     -46.605 -61.887  27.562  0.00  0.00    +0.000 C 
ATOM     18  C   UNL     1     -45.897 -60.827  26.711  0.00  0.00    +0.000 C 
BRANCH  18  19
ATOM     19  O   UNL     1     -45.281 -59.903  25.981  0.00  0.00    +0.000 OA
ATOM     20  H   UNL     1     -45.526 -59.014  26.289  0.00  0.00    +0.000 HD
ENDBRANCH  18  19
ENDBRANCH  16  17
ENDBRANCH  13  16
ENDBRANCH   7  14
BRANCH   6  21
ATOM     21  N   UNL     1     -47.073 -67.426  30.322  0.00  0.00    +0.000 N 
ATOM     22  H   UNL     1     -48.104 -67.451  30.303  0.00  0.00    +0.000 HD
BRANCH  21  25
ATOM     23 BR   UNL     1     -45.114 -68.731  35.947  0.00  0.00    +0.000 Br
ATOM     24  F   UNL     1     -48.382 -69.224  31.952  0.00  0.00    +0.000 F 
ATOM     25  C   UNL     1     -46.570 -67.734  31.603  0.00  0.00    +0.000 A 
ATOM     26  C   UNL     1     -47.272 -68.633  32.423  0.00  0.00    +0.000 A 
ATOM     27  C   UNL     1     -45.432 -67.128  32.141  0.00  0.00    +0.000 A 
ATOM     28  C   UNL     1     -46.850 -68.940  33.713  0.00  0.00    +0.000 A 
ATOM     29  C   UNL     1     -44.993 -67.423  33.431  0.00  0.00    +0.000 A 
ATOM     30  C   UNL     1     -45.706 -68.329  34.207  0.00  0.00    +0.000 A 
ENDBRANCH  21  25
ENDBRANCH   6  21
TORSDOF 6
ENDMDL
