MODEL 1
REMARK VINA RESULT:      -8.2      0.000      0.000
REMARK  Name = 10639_Physcion.pdbqt.pdb
REMARK  3 active torsions:
REMARK  status: ('A' for Active; 'I' for Inactive)
REMARK    1  A    between atoms: C_10  and  O_18
REMARK    2  A    between atoms: C_12  and  O_20
REMARK    3  A    between atoms: C_15  and  O_22
REMARK                            x       y       z     vdW  Elec       q    Type
REMARK                         _______ _______ _______ _____ _____    ______ ____
ROOT
ATOM      1  O   UNL     1     -62.135 -62.521  44.057  0.00  0.00    +0.000 OA
ATOM      2  O   UNL     1     -59.879 -65.368  40.161  0.00  0.00    +0.000 OA
ATOM      3  C   UNL     1     -59.798 -63.477  41.532  0.00  0.00    +0.000 A 
ATOM      4  C   UNL     1     -60.395 -62.739  42.551  0.00  0.00    +0.000 A 
ATOM      5  C   UNL     1     -62.281 -64.471  42.690  0.00  0.00    +0.000 A 
ATOM      6  C   UNL     1     -61.661 -65.190  41.668  0.00  0.00    +0.000 A 
ATOM      7  C   UNL     1     -61.655 -63.209  43.164  0.00  0.00    +0.000 C 
ATOM      8  C   UNL     1     -60.407 -64.723  41.056  0.00  0.00    +0.000 C 
ATOM      9  C   UNL     1     -58.608 -63.047  40.941  0.00  0.00    +0.000 A 
ATOM     10  C   UNL     1     -59.778 -61.553  42.974  0.00  0.00    +0.000 A 
ATOM     11  C   UNL     1     -58.008 -61.869  41.372  0.00  0.00    +0.000 A 
ATOM     12  C   UNL     1     -63.473 -64.975  43.226  0.00  0.00    +0.000 A 
ATOM     13  C   UNL     1     -62.212 -66.383  41.188  0.00  0.00    +0.000 A 
ATOM     14  C   UNL     1     -58.589 -61.117  42.389  0.00  0.00    +0.000 A 
ATOM     15  C   UNL     1     -63.396 -66.878  41.725  0.00  0.00    +0.000 A 
ATOM     16  C   UNL     1     -64.022 -66.166  42.746  0.00  0.00    +0.000 A 
ATOM     17  C   UNL     1     -56.731 -61.410  40.736  0.00  0.00    +0.000 C 
ENDROOT
BRANCH  10  18
ATOM     18  O   UNL     1     -60.288 -60.760  43.967  0.00  0.00    +0.000 OA
ATOM     19  H   UNL     1     -60.374 -59.839  43.627  0.00  0.00    +0.000 HD
ENDBRANCH  10  18
BRANCH  12  20
ATOM     20  O   UNL     1     -64.136 -64.327  44.227  0.00  0.00    +0.000 OA
ATOM     21  H   UNL     1     -64.552 -64.975  44.824  0.00  0.00    +0.000 HD
ENDBRANCH  12  20
BRANCH  15  22
ATOM     22  O   UNL     1     -63.854 -68.054  41.186  0.00  0.00    +0.000 OA
ATOM     23  C   UNL     1     -64.155 -68.003  39.818  0.00  0.00    +0.000 C 
ENDBRANCH  15  22
TORSDOF 3
ENDMDL
MODEL 2
REMARK VINA RESULT:      -8.1      1.101      5.700
REMARK  Name = 10639_Physcion.pdbqt.pdb
REMARK  3 active torsions:
REMARK  status: ('A' for Active; 'I' for Inactive)
REMARK    1  A    between atoms: C_10  and  O_18
REMARK    2  A    between atoms: C_12  and  O_20
REMARK    3  A    between atoms: C_15  and  O_22
REMARK                            x       y       z     vdW  Elec       q    Type
REMARK                         _______ _______ _______ _____ _____    ______ ____
ROOT
ATOM      1  O   UNL     1     -62.498 -62.744  44.128  0.00  0.00    +0.000 OA
ATOM      2  O   UNL     1     -59.860 -65.240  40.231  0.00  0.00    +0.000 OA
ATOM      3  C   UNL     1     -61.703 -65.208  41.668  0.00  0.00    +0.000 A 
ATOM      4  C   UNL     1     -62.385 -64.549  42.687  0.00  0.00    +0.000 A 
ATOM      5  C   UNL     1     -60.593 -62.715  42.691  0.00  0.00    +0.000 A 
ATOM      6  C   UNL     1     -59.930 -63.397  41.670  0.00  0.00    +0.000 A 
ATOM      7  C   UNL     1     -61.855 -63.281  43.233  0.00  0.00    +0.000 C 
ATOM      8  C   UNL     1     -60.456 -64.658  41.126  0.00  0.00    +0.000 C 
ATOM      9  C   UNL     1     -62.189 -66.406  41.140  0.00  0.00    +0.000 A 
ATOM     10  C   UNL     1     -63.574 -65.110  43.175  0.00  0.00    +0.000 A 
ATOM     11  C   UNL     1     -63.369 -66.950  41.636  0.00  0.00    +0.000 A 
ATOM     12  C   UNL     1     -60.033 -61.520  43.161  0.00  0.00    +0.000 A 
ATOM     13  C   UNL     1     -58.738 -62.903  41.128  0.00  0.00    +0.000 A 
ATOM     14  C   UNL     1     -64.066 -66.307  42.653  0.00  0.00    +0.000 A 
ATOM     15  C   UNL     1     -58.188 -61.715  41.600  0.00  0.00    +0.000 A 
ATOM     16  C   UNL     1     -58.844 -61.028  42.619  0.00  0.00    +0.000 A 
ATOM     17  C   UNL     1     -63.890 -68.236  41.067  0.00  0.00    +0.000 C 
ENDROOT
BRANCH  10  18
ATOM     18  O   UNL     1     -64.314 -64.537  44.174  0.00  0.00    +0.000 OA
ATOM     19  H   UNL     1     -65.153 -65.046  44.281  0.00  0.00    +0.000 HD
ENDBRANCH  10  18
BRANCH  12  20
ATOM     20  O   UNL     1     -60.625 -60.798  44.157  0.00  0.00    +0.000 OA
ATOM     21  H   UNL     1     -61.577 -60.997  44.192  0.00  0.00    +0.000 HD
ENDBRANCH  12  20
BRANCH  15  22
ATOM     22  O   UNL     1     -57.018 -61.316  41.003  0.00  0.00    +0.000 OA
ATOM     23  C   UNL     1     -56.433 -62.264  40.152  0.00  0.00    +0.000 C 
ENDBRANCH  15  22
TORSDOF 3
ENDMDL
MODEL 3
REMARK VINA RESULT:      -7.5      2.030      5.880
REMARK  Name = 10639_Physcion.pdbqt.pdb
REMARK  3 active torsions:
REMARK  status: ('A' for Active; 'I' for Inactive)
REMARK    1  A    between atoms: C_10  and  O_18
REMARK    2  A    between atoms: C_12  and  O_20
REMARK    3  A    between atoms: C_15  and  O_22
REMARK                            x       y       z     vdW  Elec       q    Type
REMARK                         _______ _______ _______ _____ _____    ______ ____
ROOT
ATOM      1  O   UNL     1     -64.488 -66.073  42.328  0.00  0.00    +0.000 OA
ATOM      2  O   UNL     1     -61.197 -63.480  39.037  0.00  0.00    +0.000 OA
ATOM      3  C   UNL     1     -62.916 -65.043  39.291  0.00  0.00    +0.000 A 
ATOM      4  C   UNL     1     -63.772 -65.717  40.158  0.00  0.00    +0.000 A 
ATOM      5  C   UNL     1     -62.733 -64.467  42.141  0.00  0.00    +0.000 A 
ATOM      6  C   UNL     1     -61.887 -63.807  41.249  0.00  0.00    +0.000 A 
ATOM      7  C   UNL     1     -63.710 -65.452  41.612  0.00  0.00    +0.000 C 
ATOM      8  C   UNL     1     -61.947 -64.069  39.803  0.00  0.00    +0.000 C 
ATOM      9  C   UNL     1     -62.960 -65.281  37.915  0.00  0.00    +0.000 A 
ATOM     10  C   UNL     1     -64.682 -66.640  39.625  0.00  0.00    +0.000 A 
ATOM     11  C   UNL     1     -63.869 -66.200  37.402  0.00  0.00    +0.000 A 
ATOM     12  C   UNL     1     -62.620 -64.168  43.505  0.00  0.00    +0.000 A 
ATOM     13  C   UNL     1     -60.950 -62.871  41.701  0.00  0.00    +0.000 A 
ATOM     14  C   UNL     1     -64.733 -66.882  38.252  0.00  0.00    +0.000 A 
ATOM     15  C   UNL     1     -60.844 -62.579  43.057  0.00  0.00    +0.000 A 
ATOM     16  C   UNL     1     -61.684 -63.233  43.955  0.00  0.00    +0.000 A 
ATOM     17  C   UNL     1     -63.915 -66.453  35.925  0.00  0.00    +0.000 C 
ENDROOT
BRANCH  10  18
ATOM     18  O   UNL     1     -65.563 -67.350  40.396  0.00  0.00    +0.000 OA
ATOM     19  H   UNL     1     -66.480 -67.164  40.085  0.00  0.00    +0.000 HD
ENDBRANCH  10  18
BRANCH  12  20
ATOM     20  O   UNL     1     -63.412 -64.773  44.437  0.00  0.00    +0.000 OA
ATOM     21  H   UNL     1     -63.888 -64.100  44.956  0.00  0.00    +0.000 HD
ENDBRANCH  12  20
BRANCH  15  22
ATOM     22  O   UNL     1     -59.895 -61.647  43.398  0.00  0.00    +0.000 OA
ATOM     23  C   UNL     1     -59.613 -60.697  42.406  0.00  0.00    +0.000 C 
ENDBRANCH  15  22
TORSDOF 3
ENDMDL
MODEL 4
REMARK VINA RESULT:      -7.3      2.406      4.141
REMARK  Name = 10639_Physcion.pdbqt.pdb
REMARK  3 active torsions:
REMARK  status: ('A' for Active; 'I' for Inactive)
REMARK    1  A    between atoms: C_10  and  O_18
REMARK    2  A    between atoms: C_12  and  O_20
REMARK    3  A    between atoms: C_15  and  O_22
REMARK                            x       y       z     vdW  Elec       q    Type
REMARK                         _______ _______ _______ _____ _____    ______ ____
ROOT
ATOM      1  O   UNL     1     -62.819 -64.579  38.844  0.00  0.00    +0.000 OA
ATOM      2  O   UNL     1     -64.078 -65.698  43.898  0.00  0.00    +0.000 OA
ATOM      3  C   UNL     1     -62.762 -64.462  42.413  0.00  0.00    +0.000 A 
ATOM      4  C   UNL     1     -62.440 -64.176  41.089  0.00  0.00    +0.000 A 
ATOM      5  C   UNL     1     -64.194 -65.874  40.303  0.00  0.00    +0.000 A 
ATOM      6  C   UNL     1     -64.497 -66.140  41.639  0.00  0.00    +0.000 A 
ATOM      7  C   UNL     1     -63.143 -64.871  39.989  0.00  0.00    +0.000 C 
ATOM      8  C   UNL     1     -63.798 -65.450  42.733  0.00  0.00    +0.000 C 
ATOM      9  C   UNL     1     -62.108 -63.815  43.464  0.00  0.00    +0.000 A 
ATOM     10  C   UNL     1     -61.443 -63.225  40.828  0.00  0.00    +0.000 A 
ATOM     11  C   UNL     1     -61.122 -62.874  43.189  0.00  0.00    +0.000 A 
ATOM     12  C   UNL     1     -64.900 -66.569  39.312  0.00  0.00    +0.000 A 
ATOM     13  C   UNL     1     -65.478 -67.076  41.983  0.00  0.00    +0.000 A 
ATOM     14  C   UNL     1     -60.785 -62.575  41.873  0.00  0.00    +0.000 A 
ATOM     15  C   UNL     1     -66.175 -67.763  40.994  0.00  0.00    +0.000 A 
ATOM     16  C   UNL     1     -65.879 -67.502  39.658  0.00  0.00    +0.000 A 
ATOM     17  C   UNL     1     -60.421 -62.182  44.319  0.00  0.00    +0.000 C 
ENDROOT
BRANCH  10  18
ATOM     18  O   UNL     1     -61.057 -62.877  39.562  0.00  0.00    +0.000 OA
ATOM     19  H   UNL     1     -61.809 -63.035  38.944  0.00  0.00    +0.000 HD
ENDBRANCH  10  18
BRANCH  12  20
ATOM     20  O   UNL     1     -64.659 -66.361  37.985  0.00  0.00    +0.000 OA
ATOM     21  H   UNL     1     -63.924 -65.732  37.875  0.00  0.00    +0.000 HD
ENDBRANCH  12  20
BRANCH  15  22
ATOM     22  O   UNL     1     -67.117 -68.658  41.435  0.00  0.00    +0.000 OA
ATOM     23  C   UNL     1     -67.765 -69.384  40.425  0.00  0.00    +0.000 C 
ENDBRANCH  15  22
TORSDOF 3
ENDMDL
MODEL 5
REMARK VINA RESULT:      -6.6     17.460     20.818
REMARK  Name = 10639_Physcion.pdbqt.pdb
REMARK  3 active torsions:
REMARK  status: ('A' for Active; 'I' for Inactive)
REMARK    1  A    between atoms: C_10  and  O_18
REMARK    2  A    between atoms: C_12  and  O_20
REMARK    3  A    between atoms: C_15  and  O_22
REMARK                            x       y       z     vdW  Elec       q    Type
REMARK                         _______ _______ _______ _____ _____    ______ ____
ROOT
ATOM      1  O   UNL     1     -46.416 -69.322  27.794  0.00  0.00    +0.000 OA
ATOM      2  O   UNL     1     -46.682 -64.006  28.019  0.00  0.00    +0.000 OA
ATOM      3  C   UNL     1     -46.052 -65.908  26.814  0.00  0.00    +0.000 A 
ATOM      4  C   UNL     1     -45.986 -67.298  26.763  0.00  0.00    +0.000 A 
ATOM      5  C   UNL     1     -47.083 -67.425  29.078  0.00  0.00    +0.000 A 
ATOM      6  C   UNL     1     -47.136 -66.031  29.101  0.00  0.00    +0.000 A 
ATOM      7  C   UNL     1     -46.499 -68.104  27.892  0.00  0.00    +0.000 C 
ATOM      8  C   UNL     1     -46.626 -65.228  27.979  0.00  0.00    +0.000 C 
ATOM      9  C   UNL     1     -45.572 -65.131  25.756  0.00  0.00    +0.000 A 
ATOM     10  C   UNL     1     -45.429 -67.906  25.630  0.00  0.00    +0.000 A 
ATOM     11  C   UNL     1     -45.022 -65.749  24.639  0.00  0.00    +0.000 A 
ATOM     12  C   UNL     1     -47.587 -68.125  30.182  0.00  0.00    +0.000 A 
ATOM     13  C   UNL     1     -47.677 -65.347  30.195  0.00  0.00    +0.000 A 
ATOM     14  C   UNL     1     -44.948 -67.136  24.570  0.00  0.00    +0.000 A 
ATOM     15  C   UNL     1     -48.176 -66.049  31.288  0.00  0.00    +0.000 A 
ATOM     16  C   UNL     1     -48.127 -67.442  31.273  0.00  0.00    +0.000 A 
ATOM     17  C   UNL     1     -44.508 -64.913  23.505  0.00  0.00    +0.000 C 
ENDROOT
BRANCH  10  18
ATOM     18  O   UNL     1     -45.320 -69.263  25.488  0.00  0.00    +0.000 OA
ATOM     19  H   UNL     1     -44.480 -69.468  25.014  0.00  0.00    +0.000 HD
ENDBRANCH  10  18
BRANCH  12  20
ATOM     20  O   UNL     1     -47.569 -69.489  30.231  0.00  0.00    +0.000 OA
ATOM     21  H   UNL     1     -48.423 -69.821  30.561  0.00  0.00    +0.000 HD
ENDBRANCH  12  20
BRANCH  15  22
ATOM     22  O   UNL     1     -48.684 -65.287  32.310  0.00  0.00    +0.000 OA
ATOM     23  C   UNL     1     -47.880 -64.209  32.704  0.00  0.00    +0.000 C 
ENDBRANCH  15  22
TORSDOF 3
ENDMDL
MODEL 6
REMARK VINA RESULT:      -6.6      1.572      6.047
REMARK  Name = 10639_Physcion.pdbqt.pdb
REMARK  3 active torsions:
REMARK  status: ('A' for Active; 'I' for Inactive)
REMARK    1  A    between atoms: C_10  and  O_18
REMARK    2  A    between atoms: C_12  and  O_20
REMARK    3  A    between atoms: C_15  and  O_22
REMARK                            x       y       z     vdW  Elec       q    Type
REMARK                         _______ _______ _______ _____ _____    ______ ____
ROOT
ATOM      1  O   UNL     1     -64.744 -65.877  43.040  0.00  0.00    +0.000 OA
ATOM      2  O   UNL     1     -60.273 -66.107  40.153  0.00  0.00    +0.000 OA
ATOM      3  C   UNL     1     -62.342 -67.060  40.677  0.00  0.00    +0.000 A 
ATOM      4  C   UNL     1     -63.507 -66.992  41.436  0.00  0.00    +0.000 A 
ATOM      5  C   UNL     1     -62.645 -64.852  42.555  0.00  0.00    +0.000 A 
ATOM      6  C   UNL     1     -61.487 -64.945  41.781  0.00  0.00    +0.000 A 
ATOM      7  C   UNL     1     -63.699 -65.887  42.400  0.00  0.00    +0.000 C 
ATOM      8  C   UNL     1     -61.295 -66.043  40.822  0.00  0.00    +0.000 C 
ATOM      9  C   UNL     1     -62.144 -68.096  39.762  0.00  0.00    +0.000 A 
ATOM     10  C   UNL     1     -64.482 -67.985  41.265  0.00  0.00    +0.000 A 
ATOM     11  C   UNL     1     -63.121 -69.073  39.604  0.00  0.00    +0.000 A 
ATOM     12  C   UNL     1     -62.760 -63.779  43.448  0.00  0.00    +0.000 A 
ATOM     13  C   UNL     1     -60.467 -63.994  41.892  0.00  0.00    +0.000 A 
ATOM     14  C   UNL     1     -64.291 -69.023  40.352  0.00  0.00    +0.000 A 
ATOM     15  C   UNL     1     -60.588 -62.931  42.781  0.00  0.00    +0.000 A 
ATOM     16  C   UNL     1     -61.740 -62.830  43.558  0.00  0.00    +0.000 A 
ATOM     17  C   UNL     1     -62.906 -70.185  38.620  0.00  0.00    +0.000 C 
ENDROOT
BRANCH  10  18
ATOM     18  O   UNL     1     -65.659 -68.004  41.964  0.00  0.00    +0.000 OA
ATOM     19  H   UNL     1     -65.866 -67.088  42.264  0.00  0.00    +0.000 HD
ENDBRANCH  10  18
BRANCH  12  20
ATOM     20  O   UNL     1     -63.862 -63.622  44.237  0.00  0.00    +0.000 OA
ATOM     21  H   UNL     1     -64.162 -62.696  44.210  0.00  0.00    +0.000 HD
ENDBRANCH  12  20
BRANCH  15  22
ATOM     22  O   UNL     1     -59.533 -62.053  42.815  0.00  0.00    +0.000 OA
ATOM     23  C   UNL     1     -59.869 -60.734  43.153  0.00  0.00    +0.000 C 
ENDBRANCH  15  22
TORSDOF 3
ENDMDL
MODEL 7
REMARK VINA RESULT:      -6.5     13.749     15.700
REMARK  Name = 10639_Physcion.pdbqt.pdb
REMARK  3 active torsions:
REMARK  status: ('A' for Active; 'I' for Inactive)
REMARK    1  A    between atoms: C_10  and  O_18
REMARK    2  A    between atoms: C_12  and  O_20
REMARK    3  A    between atoms: C_15  and  O_22
REMARK                            x       y       z     vdW  Elec       q    Type
REMARK                         _______ _______ _______ _____ _____    ______ ____
ROOT
ATOM      1  O   UNL     1     -44.398 -64.464  42.026  0.00  0.00    +0.000 OA
ATOM      2  O   UNL     1     -48.309 -60.945  41.186  0.00  0.00    +0.000 OA
ATOM      3  C   UNL     1     -46.780 -62.460  40.275  0.00  0.00    +0.000 A 
ATOM      4  C   UNL     1     -45.758 -63.378  40.504  0.00  0.00    +0.000 A 
ATOM      5  C   UNL     1     -45.933 -62.932  43.023  0.00  0.00    +0.000 A 
ATOM      6  C   UNL     1     -46.955 -62.018  42.764  0.00  0.00    +0.000 A 
ATOM      7  C   UNL     1     -45.300 -63.646  41.884  0.00  0.00    +0.000 C 
ATOM      8  C   UNL     1     -47.412 -61.750  41.393  0.00  0.00    +0.000 C 
ATOM      9  C   UNL     1     -47.225 -62.194  38.978  0.00  0.00    +0.000 A 
ATOM     10  C   UNL     1     -45.183 -64.033  39.406  0.00  0.00    +0.000 A 
ATOM     11  C   UNL     1     -46.644 -62.853  37.900  0.00  0.00    +0.000 A 
ATOM     12  C   UNL     1     -45.549 -63.137  44.355  0.00  0.00    +0.000 A 
ATOM     13  C   UNL     1     -47.581 -61.322  43.804  0.00  0.00    +0.000 A 
ATOM     14  C   UNL     1     -45.622 -63.773  38.108  0.00  0.00    +0.000 A 
ATOM     15  C   UNL     1     -47.195 -61.531  45.125  0.00  0.00    +0.000 A 
ATOM     16  C   UNL     1     -46.175 -62.442  45.392  0.00  0.00    +0.000 A 
ATOM     17  C   UNL     1     -47.124 -62.566  36.509  0.00  0.00    +0.000 C 
ENDROOT
BRANCH  10  18
ATOM     18  O   UNL     1     -44.174 -64.951  39.530  0.00  0.00    +0.000 OA
ATOM     19  H   UNL     1     -44.341 -65.501  40.331  0.00  0.00    +0.000 HD
ENDBRANCH  10  18
BRANCH  12  20
ATOM     20  O   UNL     1     -44.558 -64.015  44.685  0.00  0.00    +0.000 OA
ATOM     21  H   UNL     1     -43.698 -63.559  44.692  0.00  0.00    +0.000 HD
ENDBRANCH  12  20
BRANCH  15  22
ATOM     22  O   UNL     1     -47.870 -60.801  46.070  0.00  0.00    +0.000 OA
ATOM     23  C   UNL     1     -49.030 -60.162  45.611  0.00  0.00    +0.000 C 
ENDBRANCH  15  22
TORSDOF 3
ENDMDL
MODEL 8
REMARK VINA RESULT:      -6.5      2.308      7.077
REMARK  Name = 10639_Physcion.pdbqt.pdb
REMARK  3 active torsions:
REMARK  status: ('A' for Active; 'I' for Inactive)
REMARK    1  A    between atoms: C_10  and  O_18
REMARK    2  A    between atoms: C_12  and  O_20
REMARK    3  A    between atoms: C_15  and  O_22
REMARK                            x       y       z     vdW  Elec       q    Type
REMARK                         _______ _______ _______ _____ _____    ______ ____
ROOT
ATOM      1  O   UNL     1     -60.666 -68.018  40.332  0.00  0.00    +0.000 OA
ATOM      2  O   UNL     1     -64.709 -64.549  40.282  0.00  0.00    +0.000 OA
ATOM      3  C   UNL     1     -64.012 -66.779  40.188  0.00  0.00    +0.000 A 
ATOM      4  C   UNL     1     -62.949 -67.678  40.202  0.00  0.00    +0.000 A 
ATOM      5  C   UNL     1     -61.307 -65.722  40.433  0.00  0.00    +0.000 A 
ATOM      6  C   UNL     1     -62.392 -64.844  40.417  0.00  0.00    +0.000 A 
ATOM      7  C   UNL     1     -61.561 -67.182  40.325  0.00  0.00    +0.000 C 
ATOM      8  C   UNL     1     -63.772 -65.335  40.295  0.00  0.00    +0.000 C 
ATOM      9  C   UNL     1     -65.329 -67.230  40.073  0.00  0.00    +0.000 A 
ATOM     10  C   UNL     1     -63.224 -69.049  40.098  0.00  0.00    +0.000 A 
ATOM     11  C   UNL     1     -65.585 -68.593  39.970  0.00  0.00    +0.000 A 
ATOM     12  C   UNL     1     -60.020 -65.182  40.552  0.00  0.00    +0.000 A 
ATOM     13  C   UNL     1     -62.202 -63.461  40.516  0.00  0.00    +0.000 A 
ATOM     14  C   UNL     1     -64.537 -69.507  39.982  0.00  0.00    +0.000 A 
ATOM     15  C   UNL     1     -60.920 -62.932  40.634  0.00  0.00    +0.000 A 
ATOM     16  C   UNL     1     -59.832 -63.802  40.652  0.00  0.00    +0.000 A 
ATOM     17  C   UNL     1     -67.000 -69.075  39.847  0.00  0.00    +0.000 C 
ENDROOT
BRANCH  10  18
ATOM     18  O   UNL     1     -62.248 -70.008  40.102  0.00  0.00    +0.000 OA
ATOM     19  H   UNL     1     -62.657 -70.878  40.324  0.00  0.00    +0.000 HD
ENDBRANCH  10  18
BRANCH  12  20
ATOM     20  O   UNL     1     -58.912 -65.978  40.576  0.00  0.00    +0.000 OA
ATOM     21  H   UNL     1     -58.666 -66.234  39.668  0.00  0.00    +0.000 HD
ENDBRANCH  12  20
BRANCH  15  22
ATOM     22  O   UNL     1     -60.841 -61.565  40.726  0.00  0.00    +0.000 OA
ATOM     23  C   UNL     1     -59.732 -61.081  41.433  0.00  0.00    +0.000 C 
ENDBRANCH  15  22
TORSDOF 3
ENDMDL
MODEL 9
REMARK VINA RESULT:      -6.4      2.689      3.885
REMARK  Name = 10639_Physcion.pdbqt.pdb
REMARK  3 active torsions:
REMARK  status: ('A' for Active; 'I' for Inactive)
REMARK    1  A    between atoms: C_10  and  O_18
REMARK    2  A    between atoms: C_12  and  O_20
REMARK    3  A    between atoms: C_15  and  O_22
REMARK                            x       y       z     vdW  Elec       q    Type
REMARK                         _______ _______ _______ _____ _____    ______ ____
ROOT
ATOM      1  O   UNL     1     -64.757 -65.043  39.797  0.00  0.00    +0.000 OA
ATOM      2  O   UNL     1     -60.569 -67.774  41.636  0.00  0.00    +0.000 OA
ATOM      3  C   UNL     1     -61.429 -65.730  40.896  0.00  0.00    +0.000 A 
ATOM      4  C   UNL     1     -62.529 -65.024  40.415  0.00  0.00    +0.000 A 
ATOM      5  C   UNL     1     -63.944 -67.159  40.541  0.00  0.00    +0.000 A 
ATOM      6  C   UNL     1     -62.825 -67.842  41.021  0.00  0.00    +0.000 A 
ATOM      7  C   UNL     1     -63.823 -65.713  40.221  0.00  0.00    +0.000 C 
ATOM      8  C   UNL     1     -61.538 -67.158  41.214  0.00  0.00    +0.000 C 
ATOM      9  C   UNL     1     -60.199 -65.095  41.085  0.00  0.00    +0.000 A 
ATOM     10  C   UNL     1     -62.380 -63.661  40.124  0.00  0.00    +0.000 A 
ATOM     11  C   UNL     1     -60.068 -63.743  40.791  0.00  0.00    +0.000 A 
ATOM     12  C   UNL     1     -65.138 -67.875  40.381  0.00  0.00    +0.000 A 
ATOM     13  C   UNL     1     -62.891 -69.203  41.335  0.00  0.00    +0.000 A 
ATOM     14  C   UNL     1     -61.154 -63.020  40.311  0.00  0.00    +0.000 A 
ATOM     15  C   UNL     1     -64.080 -69.908  41.174  0.00  0.00    +0.000 A 
ATOM     16  C   UNL     1     -65.202 -69.234  40.696  0.00  0.00    +0.000 A 
ATOM     17  C   UNL     1     -58.747 -63.064  40.995  0.00  0.00    +0.000 C 
ENDROOT
BRANCH  10  18
ATOM     18  O   UNL     1     -63.401 -62.884  39.648  0.00  0.00    +0.000 OA
ATOM     19  H   UNL     1     -63.335 -62.836  38.665  0.00  0.00    +0.000 HD
ENDBRANCH  10  18
BRANCH  12  20
ATOM     20  O   UNL     1     -66.272 -67.275  39.917  0.00  0.00    +0.000 OA
ATOM     21  H   UNL     1     -66.078 -66.360  39.646  0.00  0.00    +0.000 HD
ENDBRANCH  12  20
BRANCH  15  22
ATOM     22  O   UNL     1     -64.040 -71.238  41.510  0.00  0.00    +0.000 OA
ATOM     23  C   UNL     1     -63.182 -71.557  42.571  0.00  0.00    +0.000 C 
ENDBRANCH  15  22
TORSDOF 3
ENDMDL
