MODEL 1
REMARK VINA RESULT:      -7.2      0.000      0.000
REMARK  Name = 10940649_MilnamideD.pdbqt.pdb
REMARK  7 active torsions:
REMARK  status: ('A' for Active; 'I' for Inactive)
REMARK    1  A    between atoms: C_3  and  C_8
REMARK    2  A    between atoms: C_22  and  C_25
REMARK    3  A    between atoms: C_22  and  C_38
REMARK    4  A    between atoms: N_24  and  C_27
REMARK    5  A    between atoms: C_27  and  C_28
REMARK    6  A    between atoms: C_32  and  C_35
REMARK    7  A    between atoms: C_35  and  O_36
REMARK                            x       y       z     vdW  Elec       q    Type
REMARK                         _______ _______ _______ _____ _____    ______ ____
ROOT
ATOM      1  O   UNL     1     -30.967 -49.731  51.447  0.00  0.00    +0.000 OA
ATOM      2  N   UNL     1     -31.401 -50.098  53.645  0.00  0.00    +0.000 N 
ATOM      3  C   UNL     1     -31.356 -49.293  52.523  0.00  0.00    +0.000 C 
ATOM      4  H   UNL     1     -31.635 -49.667  54.547  0.00  0.00    +0.000 HD
ATOM      5  C   UNL     1     -31.074 -51.476  53.672  0.00  0.00    +0.000 C 
ENDROOT
BRANCH   3   9
ATOM      6  N   UNL     1     -30.939 -46.908  53.397  0.00  0.00    +0.000 NA
ATOM      7  N   UNL     1     -33.501 -43.952  53.102  0.00  0.00    +0.000 N 
ATOM      8  C   UNL     1     -33.307 -47.609  52.381  0.00  0.00    +0.000 C 
ATOM      9  C   UNL     1     -31.806 -47.874  52.702  0.00  0.00    +0.000 C 
ATOM     10  C   UNL     1     -33.731 -46.114  52.534  0.00  0.00    +0.000 A 
ATOM     11  C   UNL     1     -32.890 -45.157  53.065  0.00  0.00    +0.000 A 
ATOM     12  C   UNL     1     -34.207 -48.363  53.404  0.00  0.00    +0.000 C 
ATOM     13  C   UNL     1     -33.590 -47.947  50.888  0.00  0.00    +0.000 C 
ATOM     14  C   UNL     1     -34.956 -45.414  52.243  0.00  0.00    +0.000 A 
ATOM     15  C   UNL     1     -31.633 -45.647  53.431  0.00  0.00    +0.000 C 
ATOM     16  C   UNL     1     -34.778 -44.064  52.605  0.00  0.00    +0.000 A 
ATOM     17  C   UNL     1     -29.696 -46.701  52.670  0.00  0.00    +0.000 C 
ATOM     18  C   UNL     1     -36.200 -45.807  51.708  0.00  0.00    +0.000 A 
ATOM     19  C   UNL     1     -32.903 -42.762  53.602  0.00  0.00    +0.000 C 
ATOM     20  C   UNL     1     -35.793 -43.108  52.447  0.00  0.00    +0.000 A 
ATOM     21  C   UNL     1     -37.213 -44.861  51.549  0.00  0.00    +0.000 A 
ATOM     22  C   UNL     1     -37.009 -43.536  51.911  0.00  0.00    +0.000 A 
ENDBRANCH   3   9
BRANCH   5  25
ATOM     23  O   UNL     1     -31.801 -52.624  51.782  0.00  0.00    +0.000 OA
ATOM     24  N   UNL     1     -29.473 -52.283  52.006  0.00  0.00    +0.000 N 
ATOM     25  C   UNL     1     -30.829 -52.208  52.406  0.00  0.00    +0.000 C 
ATOM     26  C   UNL     1     -28.344 -51.806  52.812  0.00  0.00    +0.000 C 
BRANCH  24  27
ATOM     27  C   UNL     1     -29.129 -52.818  50.751  0.00  0.00    +0.000 C 
ATOM     28  C   UNL     1     -28.967 -51.973  49.601  0.00  0.00    +0.000 C 
ATOM     29  C   UNL     1     -28.819 -51.215  48.554  0.00  0.00    +0.000 C 
ATOM     30  C   UNL     1     -27.406 -51.111  48.021  0.00  0.00    +0.000 C 
BRANCH  27  31
ATOM     31  C   UNL     1     -28.898 -54.244  50.567  0.00  0.00    +0.000 C 
ATOM     32  C   UNL     1     -30.066 -55.206  50.473  0.00  0.00    +0.000 C 
ATOM     33  C   UNL     1     -27.633 -54.711  49.871  0.00  0.00    +0.000 C 
ENDBRANCH  27  31
BRANCH  29  35
ATOM     34  O   UNL     1     -30.055 -50.053  46.839  0.00  0.00    +0.000 OA
ATOM     35  C   UNL     1     -29.999 -50.524  47.966  0.00  0.00    +0.000 C 
BRANCH  35  36
ATOM     36  O   UNL     1     -31.065 -50.437  48.789  0.00  0.00    +0.000 OA
ATOM     37  H   UNL     1     -31.181 -49.480  48.960  0.00  0.00    +0.000 HD
ENDBRANCH  35  36
ENDBRANCH  29  35
ENDBRANCH  24  27
ENDBRANCH   5  25
BRANCH   5  38
ATOM     38  C   UNL     1     -31.208 -52.355  54.905  0.00  0.00    +0.000 C 
ATOM     39  C   UNL     1     -30.302 -51.721  56.009  0.00  0.00    +0.000 C 
ATOM     40  C   UNL     1     -32.686 -52.280  55.386  0.00  0.00    +0.000 C 
ATOM     41  C   UNL     1     -30.770 -53.821  54.671  0.00  0.00    +0.000 C 
ENDBRANCH   5  38
TORSDOF 7
ENDMDL
MODEL 2
REMARK VINA RESULT:      -7.1     24.121     26.877
REMARK  Name = 10940649_MilnamideD.pdbqt.pdb
REMARK  7 active torsions:
REMARK  status: ('A' for Active; 'I' for Inactive)
REMARK    1  A    between atoms: C_3  and  C_8
REMARK    2  A    between atoms: C_22  and  C_25
REMARK    3  A    between atoms: C_22  and  C_38
REMARK    4  A    between atoms: N_24  and  C_27
REMARK    5  A    between atoms: C_27  and  C_28
REMARK    6  A    between atoms: C_32  and  C_35
REMARK    7  A    between atoms: C_35  and  O_36
REMARK                            x       y       z     vdW  Elec       q    Type
REMARK                         _______ _______ _______ _____ _____    ______ ____
ROOT
ATOM      1  O   UNL     1     -46.968 -63.556  34.532  0.00  0.00    +0.000 OA
ATOM      2  N   UNL     1     -45.329 -62.000  34.743  0.00  0.00    +0.000 N 
ATOM      3  C   UNL     1     -46.047 -63.092  35.193  0.00  0.00    +0.000 C 
ATOM      4  H   UNL     1     -44.635 -61.579  35.371  0.00  0.00    +0.000 HD
ATOM      5  C   UNL     1     -45.524 -61.354  33.498  0.00  0.00    +0.000 C 
ENDROOT
BRANCH   3   9
ATOM      6  N   UNL     1     -45.103 -65.033  36.595  0.00  0.00    +0.000 NA
ATOM      7  N   UNL     1     -44.675 -64.956  40.494  0.00  0.00    +0.000 N 
ATOM      8  C   UNL     1     -46.080 -62.839  37.761  0.00  0.00    +0.000 C 
ATOM      9  C   UNL     1     -45.635 -63.662  36.516  0.00  0.00    +0.000 C 
ATOM     10  C   UNL     1     -45.597 -63.436  39.120  0.00  0.00    +0.000 A 
ATOM     11  C   UNL     1     -44.977 -64.666  39.209  0.00  0.00    +0.000 A 
ATOM     12  C   UNL     1     -47.634 -62.852  37.874  0.00  0.00    +0.000 C 
ATOM     13  C   UNL     1     -45.442 -61.421  37.705  0.00  0.00    +0.000 C 
ATOM     14  C   UNL     1     -45.680 -62.961  40.478  0.00  0.00    +0.000 A 
ATOM     15  C   UNL     1     -44.812 -65.308  37.978  0.00  0.00    +0.000 C 
ATOM     16  C   UNL     1     -45.091 -63.932  41.311  0.00  0.00    +0.000 A 
ATOM     17  C   UNL     1     -43.857 -65.156  35.856  0.00  0.00    +0.000 C 
ATOM     18  C   UNL     1     -46.207 -61.796  41.072  0.00  0.00    +0.000 A 
ATOM     19  C   UNL     1     -44.037 -66.156  40.919  0.00  0.00    +0.000 C 
ATOM     20  C   UNL     1     -45.011 -63.772  42.703  0.00  0.00    +0.000 A 
ATOM     21  C   UNL     1     -46.130 -61.632  42.456  0.00  0.00    +0.000 A 
ATOM     22  C   UNL     1     -45.540 -62.604  43.254  0.00  0.00    +0.000 A 
ENDBRANCH   3   9
BRANCH   5  25
ATOM     23  O   UNL     1     -47.566 -61.504  32.391  0.00  0.00    +0.000 OA
ATOM     24  N   UNL     1     -45.836 -62.937  31.657  0.00  0.00    +0.000 N 
ATOM     25  C   UNL     1     -46.426 -61.949  32.483  0.00  0.00    +0.000 C 
ATOM     26  C   UNL     1     -44.479 -63.464  31.838  0.00  0.00    +0.000 C 
BRANCH  24  27
ATOM     27  C   UNL     1     -46.543 -63.465  30.563  0.00  0.00    +0.000 C 
ATOM     28  C   UNL     1     -46.450 -62.869  29.258  0.00  0.00    +0.000 C 
ATOM     29  C   UNL     1     -46.370 -62.335  28.075  0.00  0.00    +0.000 C 
ATOM     30  C   UNL     1     -45.673 -63.177  27.027  0.00  0.00    +0.000 C 
BRANCH  27  31
ATOM     31  C   UNL     1     -47.380 -64.649  30.693  0.00  0.00    +0.000 C 
ATOM     32  C   UNL     1     -47.866 -65.386  29.461  0.00  0.00    +0.000 C 
ATOM     33  C   UNL     1     -47.278 -65.501  31.944  0.00  0.00    +0.000 C 
ENDBRANCH  27  31
BRANCH  29  35
ATOM     34  O   UNL     1     -47.858 -60.478  28.469  0.00  0.00    +0.000 OA
ATOM     35  C   UNL     1     -46.947 -60.985  27.830  0.00  0.00    +0.000 C 
BRANCH  35  36
ATOM     36  O   UNL     1     -46.382 -60.310  26.807  0.00  0.00    +0.000 OA
ATOM     37  H   UNL     1     -46.757 -60.710  25.996  0.00  0.00    +0.000 HD
ENDBRANCH  35  36
ENDBRANCH  29  35
ENDBRANCH  24  27
ENDBRANCH   5  25
BRANCH   5  38
ATOM     38  C   UNL     1     -44.667 -60.202  32.997  0.00  0.00    +0.000 C 
ATOM     39  C   UNL     1     -45.021 -58.962  33.878  0.00  0.00    +0.000 C 
ATOM     40  C   UNL     1     -43.177 -60.572  33.252  0.00  0.00    +0.000 C 
ATOM     41  C   UNL     1     -44.909 -59.852  31.509  0.00  0.00    +0.000 C 
ENDBRANCH   5  38
TORSDOF 7
ENDMDL
MODEL 3
REMARK VINA RESULT:      -6.9     20.229     23.396
REMARK  Name = 10940649_MilnamideD.pdbqt.pdb
REMARK  7 active torsions:
REMARK  status: ('A' for Active; 'I' for Inactive)
REMARK    1  A    between atoms: C_3  and  C_8
REMARK    2  A    between atoms: C_22  and  C_25
REMARK    3  A    between atoms: C_22  and  C_38
REMARK    4  A    between atoms: N_24  and  C_27
REMARK    5  A    between atoms: C_27  and  C_28
REMARK    6  A    between atoms: C_32  and  C_35
REMARK    7  A    between atoms: C_35  and  O_36
REMARK                            x       y       z     vdW  Elec       q    Type
REMARK                         _______ _______ _______ _____ _____    ______ ____
ROOT
ATOM      1  O   UNL     1     -41.726 -55.687  33.590  0.00  0.00    +0.000 OA
ATOM      2  N   UNL     1     -43.761 -55.023  32.836  0.00  0.00    +0.000 N 
ATOM      3  C   UNL     1     -42.900 -55.961  33.372  0.00  0.00    +0.000 C 
ATOM      4  H   UNL     1     -44.707 -55.322  32.573  0.00  0.00    +0.000 HD
ATOM      5  C   UNL     1     -43.422 -53.679  32.544  0.00  0.00    +0.000 C 
ENDROOT
BRANCH   3   9
ATOM      6  N   UNL     1     -44.357 -57.965  32.676  0.00  0.00    +0.000 NA
ATOM      7  N   UNL     1     -45.028 -61.112  34.920  0.00  0.00    +0.000 N 
ATOM      8  C   UNL     1     -43.337 -57.791  35.137  0.00  0.00    +0.000 C 
ATOM      9  C   UNL     1     -43.481 -57.311  33.663  0.00  0.00    +0.000 C 
ATOM     10  C   UNL     1     -43.914 -59.219  35.396  0.00  0.00    +0.000 A 
ATOM     11  C   UNL     1     -44.630 -59.912  34.441  0.00  0.00    +0.000 A 
ATOM     12  C   UNL     1     -44.173 -56.871  36.076  0.00  0.00    +0.000 C 
ATOM     13  C   UNL     1     -41.829 -57.903  35.505  0.00  0.00    +0.000 C 
ATOM     14  C   UNL     1     -43.898 -60.082  36.550  0.00  0.00    +0.000 A 
ATOM     15  C   UNL     1     -44.773 -59.227  33.231  0.00  0.00    +0.000 C 
ATOM     16  C   UNL     1     -44.599 -61.258  36.218  0.00  0.00    +0.000 A 
ATOM     17  C   UNL     1     -43.638 -58.249  31.443  0.00  0.00    +0.000 C 
ATOM     18  C   UNL     1     -43.355 -59.967  37.846  0.00  0.00    +0.000 A 
ATOM     19  C   UNL     1     -45.792 -62.059  34.183  0.00  0.00    +0.000 C 
ATOM     20  C   UNL     1     -44.767 -62.310  37.132  0.00  0.00    +0.000 A 
ATOM     21  C   UNL     1     -43.519 -61.009  38.758  0.00  0.00    +0.000 A 
ATOM     22  C   UNL     1     -44.212 -62.160  38.404  0.00  0.00    +0.000 A 
ENDBRANCH   3   9
BRANCH   5  25
ATOM     23  O   UNL     1     -42.034 -52.686  34.127  0.00  0.00    +0.000 OA
ATOM     24  N   UNL     1     -41.066 -53.241  32.044  0.00  0.00    +0.000 N 
ATOM     25  C   UNL     1     -42.119 -53.127  32.984  0.00  0.00    +0.000 C 
ATOM     26  C   UNL     1     -41.231 -53.737  30.673  0.00  0.00    +0.000 C 
BRANCH  24  27
ATOM     27  C   UNL     1     -39.751 -52.893  32.401  0.00  0.00    +0.000 C 
ATOM     28  C   UNL     1     -38.962 -53.739  33.252  0.00  0.00    +0.000 C 
ATOM     29  C   UNL     1     -38.241 -54.500  34.023  0.00  0.00    +0.000 C 
ATOM     30  C   UNL     1     -37.051 -55.158  33.358  0.00  0.00    +0.000 C 
BRANCH  27  31
ATOM     31  C   UNL     1     -39.122 -51.676  31.907  0.00  0.00    +0.000 C 
ATOM     32  C   UNL     1     -39.959 -50.454  31.584  0.00  0.00    +0.000 C 
ATOM     33  C   UNL     1     -37.680 -51.379  32.274  0.00  0.00    +0.000 C 
ENDBRANCH  27  31
BRANCH  29  35
ATOM     34  O   UNL     1     -37.864 -55.057  36.340  0.00  0.00    +0.000 OA
ATOM     35  C   UNL     1     -38.613 -54.670  35.454  0.00  0.00    +0.000 C 
BRANCH  35  36
ATOM     36  O   UNL     1     -39.895 -54.361  35.741  0.00  0.00    +0.000 OA
ATOM     37  H   UNL     1     -39.994 -54.537  36.700  0.00  0.00    +0.000 HD
ENDBRANCH  35  36
ENDBRANCH  29  35
ENDBRANCH  24  27
ENDBRANCH   5  25
BRANCH   5  38
ATOM     38  C   UNL     1     -44.413 -52.648  32.027  0.00  0.00    +0.000 C 
ATOM     39  C   UNL     1     -45.057 -53.250  30.738  0.00  0.00    +0.000 C 
ATOM     40  C   UNL     1     -45.530 -52.482  33.097  0.00  0.00    +0.000 C 
ATOM     41  C   UNL     1     -43.765 -51.285  31.681  0.00  0.00    +0.000 C 
ENDBRANCH   5  38
TORSDOF 7
ENDMDL
MODEL 4
REMARK VINA RESULT:      -6.4     24.108     26.910
REMARK  Name = 10940649_MilnamideD.pdbqt.pdb
REMARK  7 active torsions:
REMARK  status: ('A' for Active; 'I' for Inactive)
REMARK    1  A    between atoms: C_3  and  C_8
REMARK    2  A    between atoms: C_22  and  C_25
REMARK    3  A    between atoms: C_22  and  C_38
REMARK    4  A    between atoms: N_24  and  C_27
REMARK    5  A    between atoms: C_27  and  C_28
REMARK    6  A    between atoms: C_32  and  C_35
REMARK    7  A    between atoms: C_35  and  O_36
REMARK                            x       y       z     vdW  Elec       q    Type
REMARK                         _______ _______ _______ _____ _____    ______ ____
ROOT
ATOM      1  O   UNL     1     -46.583 -64.325  34.876  0.00  0.00    +0.000 OA
ATOM      2  N   UNL     1     -45.142 -62.572  34.935  0.00  0.00    +0.000 N 
ATOM      3  C   UNL     1     -45.752 -63.675  35.499  0.00  0.00    +0.000 C 
ATOM      4  H   UNL     1     -44.529 -61.996  35.524  0.00  0.00    +0.000 HD
ATOM      5  C   UNL     1     -45.349 -62.115  33.610  0.00  0.00    +0.000 C 
ENDROOT
BRANCH   3   9
ATOM      6  N   UNL     1     -44.595 -65.264  37.162  0.00  0.00    +0.000 NA
ATOM      7  N   UNL     1     -44.449 -64.701  41.041  0.00  0.00    +0.000 N 
ATOM      8  C   UNL     1     -46.000 -63.161  38.016  0.00  0.00    +0.000 C 
ATOM      9  C   UNL     1     -45.341 -64.022  36.898  0.00  0.00    +0.000 C 
ATOM     10  C   UNL     1     -45.517 -63.518  39.457  0.00  0.00    +0.000 A 
ATOM     11  C   UNL     1     -44.708 -64.605  39.718  0.00  0.00    +0.000 A 
ATOM     12  C   UNL     1     -47.534 -63.431  38.055  0.00  0.00    +0.000 C 
ATOM     13  C   UNL     1     -45.605 -61.668  37.827  0.00  0.00    +0.000 C 
ATOM     14  C   UNL     1     -45.770 -62.923  40.745  0.00  0.00    +0.000 A 
ATOM     15  C   UNL     1     -44.356 -65.337  38.579  0.00  0.00    +0.000 C 
ATOM     16  C   UNL     1     -45.084 -63.684  41.713  0.00  0.00    +0.000 A 
ATOM     17  C   UNL     1     -43.298 -65.248  36.503  0.00  0.00    +0.000 C 
ATOM     18  C   UNL     1     -46.521 -61.810  41.174  0.00  0.00    +0.000 A 
ATOM     19  C   UNL     1     -43.651 -65.720  41.633  0.00  0.00    +0.000 C 
ATOM     20  C   UNL     1     -45.126 -63.365  43.079  0.00  0.00    +0.000 A 
ATOM     21  C   UNL     1     -46.566 -61.490  42.531  0.00  0.00    +0.000 A 
ATOM     22  C   UNL     1     -45.878 -62.254  43.464  0.00  0.00    +0.000 A 
ENDBRANCH   3   9
BRANCH   5  25
ATOM     23  O   UNL     1     -47.287 -62.602  32.416  0.00  0.00    +0.000 OA
ATOM     24  N   UNL     1     -45.414 -63.994  32.042  0.00  0.00    +0.000 N 
ATOM     25  C   UNL     1     -46.129 -62.936  32.653  0.00  0.00    +0.000 C 
ATOM     26  C   UNL     1     -44.042 -64.376  32.394  0.00  0.00    +0.000 C 
BRANCH  24  27
ATOM     27  C   UNL     1     -45.999 -64.745  31.008  0.00  0.00    +0.000 C 
ATOM     28  C   UNL     1     -46.798 -65.905  31.291  0.00  0.00    +0.000 C 
ATOM     29  C   UNL     1     -47.523 -66.957  31.539  0.00  0.00    +0.000 C 
ATOM     30  C   UNL     1     -48.995 -66.824  31.212  0.00  0.00    +0.000 C 
BRANCH  27  31
ATOM     31  C   UNL     1     -45.843 -64.371  29.610  0.00  0.00    +0.000 C 
ATOM     32  C   UNL     1     -44.870 -65.116  28.717  0.00  0.00    +0.000 C 
ATOM     33  C   UNL     1     -47.001 -63.716  28.878  0.00  0.00    +0.000 C 
ENDBRANCH  27  31
BRANCH  29  35
ATOM     34  O   UNL     1     -45.709 -68.286  32.412  0.00  0.00    +0.000 OA
ATOM     35  C   UNL     1     -46.887 -68.179  32.104  0.00  0.00    +0.000 C 
BRANCH  35  36
ATOM     36  O   UNL     1     -47.726 -69.224  32.265  0.00  0.00    +0.000 OA
ATOM     37  H   UNL     1     -48.270 -68.999  33.048  0.00  0.00    +0.000 HD
ENDBRANCH  35  36
ENDBRANCH  29  35
ENDBRANCH  24  27
ENDBRANCH   5  25
BRANCH   5  38
ATOM     38  C   UNL     1     -44.605 -60.943  32.991  0.00  0.00    +0.000 C 
ATOM     39  C   UNL     1     -45.246 -59.644  33.575  0.00  0.00    +0.000 C 
ATOM     40  C   UNL     1     -43.126 -61.013  33.468  0.00  0.00    +0.000 C 
ATOM     41  C   UNL     1     -44.693 -60.900  31.446  0.00  0.00    +0.000 C 
ENDBRANCH   5  38
TORSDOF 7
ENDMDL
MODEL 5
REMARK VINA RESULT:      -6.1     44.857     46.899
REMARK  Name = 10940649_MilnamideD.pdbqt.pdb
REMARK  7 active torsions:
REMARK  status: ('A' for Active; 'I' for Inactive)
REMARK    1  A    between atoms: C_3  and  C_8
REMARK    2  A    between atoms: C_22  and  C_25
REMARK    3  A    between atoms: C_22  and  C_38
REMARK    4  A    between atoms: N_24  and  C_27
REMARK    5  A    between atoms: C_27  and  C_28
REMARK    6  A    between atoms: C_32  and  C_35
REMARK    7  A    between atoms: C_35  and  O_36
REMARK                            x       y       z     vdW  Elec       q    Type
REMARK                         _______ _______ _______ _____ _____    ______ ____
ROOT
ATOM      1  O   UNL     1     -65.544 -73.125  28.513  0.00  0.00    +0.000 OA
ATOM      2  N   UNL     1     -63.544 -72.385  27.734  0.00  0.00    +0.000 N 
ATOM      3  C   UNL     1     -64.461 -72.600  28.744  0.00  0.00    +0.000 C 
ATOM      4  H   UNL     1     -62.694 -71.852  27.950  0.00  0.00    +0.000 HD
ATOM      5  C   UNL     1     -63.712 -72.780  26.384  0.00  0.00    +0.000 C 
ENDROOT
BRANCH   3   9
ATOM      6  N   UNL     1     -63.683 -73.157  31.134  0.00  0.00    +0.000 NA
ATOM      7  N   UNL     1     -63.065 -70.496  33.948  0.00  0.00    +0.000 N 
ATOM      8  C   UNL     1     -64.344 -70.664  30.446  0.00  0.00    +0.000 C 
ATOM      9  C   UNL     1     -64.056 -72.159  30.118  0.00  0.00    +0.000 C 
ATOM     10  C   UNL     1     -63.870 -70.226  31.868  0.00  0.00    +0.000 A 
ATOM     11  C   UNL     1     -63.393 -71.126  32.798  0.00  0.00    +0.000 A 
ATOM     12  C   UNL     1     -65.882 -70.415  30.469  0.00  0.00    +0.000 C 
ATOM     13  C   UNL     1     -63.550 -69.751  29.467  0.00  0.00    +0.000 C 
ATOM     14  C   UNL     1     -63.834 -68.947  32.532  0.00  0.00    +0.000 A 
ATOM     15  C   UNL     1     -63.361 -72.448  32.345  0.00  0.00    +0.000 C 
ATOM     16  C   UNL     1     -63.322 -69.150  33.829  0.00  0.00    +0.000 A 
ATOM     17  C   UNL     1     -62.495 -73.895  30.734  0.00  0.00    +0.000 C 
ATOM     18  C   UNL     1     -64.193 -67.640  32.149  0.00  0.00    +0.000 A 
ATOM     19  C   UNL     1     -62.551 -71.147  35.105  0.00  0.00    +0.000 C 
ATOM     20  C   UNL     1     -63.158 -68.096  34.740  0.00  0.00    +0.000 A 
ATOM     21  C   UNL     1     -64.033 -66.587  33.051  0.00  0.00    +0.000 A 
ATOM     22  C   UNL     1     -63.522 -66.814  34.323  0.00  0.00    +0.000 A 
ENDBRANCH   3   9
BRANCH   5  25
ATOM     23  O   UNL     1     -64.707 -74.862  26.074  0.00  0.00    +0.000 OA
ATOM     24  N   UNL     1     -66.040 -72.958  25.647  0.00  0.00    +0.000 N 
ATOM     25  C   UNL     1     -64.853 -73.645  25.997  0.00  0.00    +0.000 C 
ATOM     26  C   UNL     1     -66.148 -71.499  25.530  0.00  0.00    +0.000 C 
BRANCH  24  27
ATOM     27  C   UNL     1     -67.230 -73.667  25.410  0.00  0.00    +0.000 C 
ATOM     28  C   UNL     1     -68.192 -73.880  26.456  0.00  0.00    +0.000 C 
ATOM     29  C   UNL     1     -69.068 -74.076  27.398  0.00  0.00    +0.000 C 
ATOM     30  C   UNL     1     -70.387 -73.354  27.221  0.00  0.00    +0.000 C 
BRANCH  27  31
ATOM     31  C   UNL     1     -67.554 -74.197  24.093  0.00  0.00    +0.000 C 
ATOM     32  C   UNL     1     -66.950 -73.580  22.846  0.00  0.00    +0.000 C 
ATOM     33  C   UNL     1     -67.952 -75.654  23.951  0.00  0.00    +0.000 C 
ENDBRANCH  27  31
BRANCH  29  35
ATOM     34  O   UNL     1     -69.549 -75.516  29.273  0.00  0.00    +0.000 OA
ATOM     35  C   UNL     1     -68.736 -74.965  28.545  0.00  0.00    +0.000 C 
BRANCH  35  36
ATOM     36  O   UNL     1     -67.414 -75.138  28.756  0.00  0.00    +0.000 OA
ATOM     37  H   UNL     1     -67.242 -74.760  29.642  0.00  0.00    +0.000 HD
ENDBRANCH  35  36
ENDBRANCH  29  35
ENDBRANCH  24  27
ENDBRANCH   5  25
BRANCH   5  38
ATOM     38  C   UNL     1     -62.652 -72.600  25.309  0.00  0.00    +0.000 C 
ATOM     39  C   UNL     1     -62.190 -71.109  25.379  0.00  0.00    +0.000 C 
ATOM     40  C   UNL     1     -61.440 -73.502  25.680  0.00  0.00    +0.000 C 
ATOM     41  C   UNL     1     -63.160 -72.905  23.879  0.00  0.00    +0.000 C 
ENDBRANCH   5  38
TORSDOF 7
ENDMDL
MODEL 6
REMARK VINA RESULT:      -6.1     20.387     22.609
REMARK  Name = 10940649_MilnamideD.pdbqt.pdb
REMARK  7 active torsions:
REMARK  status: ('A' for Active; 'I' for Inactive)
REMARK    1  A    between atoms: C_3  and  C_8
REMARK    2  A    between atoms: C_22  and  C_25
REMARK    3  A    between atoms: C_22  and  C_38
REMARK    4  A    between atoms: N_24  and  C_27
REMARK    5  A    between atoms: C_27  and  C_28
REMARK    6  A    between atoms: C_32  and  C_35
REMARK    7  A    between atoms: C_35  and  O_36
REMARK                            x       y       z     vdW  Elec       q    Type
REMARK                         _______ _______ _______ _____ _____    ______ ____
ROOT
ATOM      1  O   UNL     1     -42.476 -54.040  34.883  0.00  0.00    +0.000 OA
ATOM      2  N   UNL     1     -43.565 -55.378  33.407  0.00  0.00    +0.000 N 
ATOM      3  C   UNL     1     -43.257 -54.143  33.944  0.00  0.00    +0.000 C 
ATOM      4  H   UNL     1     -44.299 -55.431  32.692  0.00  0.00    +0.000 HD
ATOM      5  C   UNL     1     -42.998 -56.609  33.817  0.00  0.00    +0.000 C 
ENDROOT
BRANCH   3   9
ATOM      6  N   UNL     1     -45.329 -52.646  33.642  0.00  0.00    +0.000 NA
ATOM      7  N   UNL     1     -45.506 -49.553  31.236  0.00  0.00    +0.000 N 
ATOM      8  C   UNL     1     -43.153 -52.308  32.133  0.00  0.00    +0.000 C 
ATOM      9  C   UNL     1     -43.927 -52.958  33.318  0.00  0.00    +0.000 C 
ATOM     10  C   UNL     1     -43.856 -51.050  31.533  0.00  0.00    +0.000 A 
ATOM     11  C   UNL     1     -45.124 -50.658  31.914  0.00  0.00    +0.000 A 
ATOM     12  C   UNL     1     -43.081 -53.306  30.939  0.00  0.00    +0.000 C 
ATOM     13  C   UNL     1     -41.774 -51.788  32.632  0.00  0.00    +0.000 C 
ATOM     14  C   UNL     1     -43.457 -50.097  30.528  0.00  0.00    +0.000 A 
ATOM     15  C   UNL     1     -45.702 -51.478  32.888  0.00  0.00    +0.000 C 
ATOM     16  C   UNL     1     -44.509 -49.172  30.370  0.00  0.00    +0.000 A 
ATOM     17  C   UNL     1     -45.482 -52.321  35.051  0.00  0.00    +0.000 C 
ATOM     18  C   UNL     1     -42.300 -49.939  29.739  0.00  0.00    +0.000 A 
ATOM     19  C   UNL     1     -46.764 -48.907  31.396  0.00  0.00    +0.000 C 
ATOM     20  C   UNL     1     -44.436 -48.107  29.458  0.00  0.00    +0.000 A 
ATOM     21  C   UNL     1     -42.222 -48.883  28.831  0.00  0.00    +0.000 A 
ATOM     22  C   UNL     1     -43.272 -47.983  28.697  0.00  0.00    +0.000 A 
ENDBRANCH   3   9
BRANCH   5  25
ATOM     23  O   UNL     1     -42.083 -56.914  35.936  0.00  0.00    +0.000 OA
ATOM     24  N   UNL     1     -40.589 -56.374  34.187  0.00  0.00    +0.000 N 
ATOM     25  C   UNL     1     -41.857 -56.625  34.765  0.00  0.00    +0.000 C 
ATOM     26  C   UNL     1     -40.379 -55.989  32.787  0.00  0.00    +0.000 C 
BRANCH  24  27
ATOM     27  C   UNL     1     -39.418 -56.511  34.953  0.00  0.00    +0.000 C 
ATOM     28  C   UNL     1     -38.743 -57.775  35.062  0.00  0.00    +0.000 C 
ATOM     29  C   UNL     1     -38.127 -58.916  35.166  0.00  0.00    +0.000 C 
ATOM     30  C   UNL     1     -36.766 -58.983  34.507  0.00  0.00    +0.000 C 
BRANCH  27  31
ATOM     31  C   UNL     1     -38.822 -55.379  35.648  0.00  0.00    +0.000 C 
ATOM     32  C   UNL     1     -37.489 -55.524  36.354  0.00  0.00    +0.000 C 
ATOM     33  C   UNL     1     -39.150 -53.968  35.193  0.00  0.00    +0.000 C 
ENDBRANCH  27  31
BRANCH  29  35
ATOM     34  O   UNL     1     -38.182 -60.995  36.388  0.00  0.00    +0.000 OA
ATOM     35  C   UNL     1     -38.769 -60.041  35.898  0.00  0.00    +0.000 C 
BRANCH  35  36
ATOM     36  O   UNL     1     -40.112 -59.952  35.998  0.00  0.00    +0.000 OA
ATOM     37  H   UNL     1     -40.458 -60.309  35.154  0.00  0.00    +0.000 HD
ENDBRANCH  35  36
ENDBRANCH  29  35
ENDBRANCH  24  27
ENDBRANCH   5  25
BRANCH   5  38
ATOM     38  C   UNL     1     -43.298 -57.944  33.155  0.00  0.00    +0.000 C 
ATOM     39  C   UNL     1     -44.623 -58.473  33.790  0.00  0.00    +0.000 C 
ATOM     40  C   UNL     1     -43.554 -57.679  31.643  0.00  0.00    +0.000 C 
ATOM     41  C   UNL     1     -42.184 -59.000  33.356  0.00  0.00    +0.000 C 
ENDBRANCH   5  38
TORSDOF 7
ENDMDL
MODEL 7
REMARK VINA RESULT:      -6.0     38.783     40.704
REMARK  Name = 10940649_MilnamideD.pdbqt.pdb
REMARK  7 active torsions:
REMARK  status: ('A' for Active; 'I' for Inactive)
REMARK    1  A    between atoms: C_3  and  C_8
REMARK    2  A    between atoms: C_22  and  C_25
REMARK    3  A    between atoms: C_22  and  C_38
REMARK    4  A    between atoms: N_24  and  C_27
REMARK    5  A    between atoms: C_27  and  C_28
REMARK    6  A    between atoms: C_32  and  C_35
REMARK    7  A    between atoms: C_35  and  O_36
REMARK                            x       y       z     vdW  Elec       q    Type
REMARK                         _______ _______ _______ _____ _____    ______ ____
ROOT
ATOM      1  O   UNL     1     -64.153 -69.375  41.911  0.00  0.00    +0.000 OA
ATOM      2  N   UNL     1     -64.302 -71.611  42.274  0.00  0.00    +0.000 N 
ATOM      3  C   UNL     1     -64.804 -70.409  41.814  0.00  0.00    +0.000 C 
ATOM      4  H   UNL     1     -64.918 -72.433  42.267  0.00  0.00    +0.000 HD
ATOM      5  C   UNL     1     -63.014 -71.796  42.832  0.00  0.00    +0.000 C 
ENDROOT
BRANCH   3   9
ATOM      6  N   UNL     1     -66.326 -70.732  39.764  0.00  0.00    +0.000 NA
ATOM      7  N   UNL     1     -70.231 -70.360  39.813  0.00  0.00    +0.000 N 
ATOM      8  C   UNL     1     -67.316 -69.890  42.096  0.00  0.00    +0.000 C 
ATOM      9  C   UNL     1     -66.171 -70.448  41.200  0.00  0.00    +0.000 C 
ATOM     10  C   UNL     1     -68.732 -69.986  41.445  0.00  0.00    +0.000 A 
ATOM     11  C   UNL     1     -68.918 -70.376  40.134  0.00  0.00    +0.000 A 
ATOM     12  C   UNL     1     -67.110 -68.363  42.327  0.00  0.00    +0.000 C 
ATOM     13  C   UNL     1     -67.423 -70.738  43.396  0.00  0.00    +0.000 C 
ATOM     14  C   UNL     1     -70.054 -69.701  41.942  0.00  0.00    +0.000 A 
ATOM     15  C   UNL     1     -67.733 -70.687  39.461  0.00  0.00    +0.000 C 
ATOM     16  C   UNL     1     -70.969 -69.949  40.898  0.00  0.00    +0.000 A 
ATOM     17  C   UNL     1     -65.854 -72.069  39.439  0.00  0.00    +0.000 C 
ATOM     18  C   UNL     1     -70.555 -69.252  43.180  0.00  0.00    +0.000 A 
ATOM     19  C   UNL     1     -70.751 -70.703  38.534  0.00  0.00    +0.000 C 
ATOM     20  C   UNL     1     -72.351 -69.767  41.058  0.00  0.00    +0.000 A 
ATOM     21  C   UNL     1     -71.928 -69.069  43.345  0.00  0.00    +0.000 A 
ATOM     22  C   UNL     1     -72.808 -69.324  42.301  0.00  0.00    +0.000 A 
ENDBRANCH   3   9
BRANCH   5  25
ATOM     23  O   UNL     1     -61.841 -70.037  43.806  0.00  0.00    +0.000 OA
ATOM     24  N   UNL     1     -61.307 -70.577  41.568  0.00  0.00    +0.000 N 
ATOM     25  C   UNL     1     -62.018 -70.698  42.787  0.00  0.00    +0.000 C 
ATOM     26  C   UNL     1     -61.589 -71.366  40.364  0.00  0.00    +0.000 C 
BRANCH  24  27
ATOM     27  C   UNL     1     -60.235 -69.675  41.456  0.00  0.00    +0.000 C 
ATOM     28  C   UNL     1     -58.888 -70.078  41.753  0.00  0.00    +0.000 C 
ATOM     29  C   UNL     1     -57.666 -70.435  42.022  0.00  0.00    +0.000 C 
ATOM     30  C   UNL     1     -56.727 -70.482  40.835  0.00  0.00    +0.000 C 
BRANCH  27  31
ATOM     31  C   UNL     1     -60.434 -68.303  41.010  0.00  0.00    +0.000 C 
ATOM     32  C   UNL     1     -59.267 -67.337  40.949  0.00  0.00    +0.000 C 
ATOM     33  C   UNL     1     -61.572 -67.985  40.058  0.00  0.00    +0.000 C 
ENDBRANCH  27  31
BRANCH  29  35
ATOM     34  O   UNL     1     -58.041 -71.159  44.292  0.00  0.00    +0.000 OA
ATOM     35  C   UNL     1     -57.279 -70.761  43.421  0.00  0.00    +0.000 C 
BRANCH  35  36
ATOM     36  O   UNL     1     -55.970 -70.584  43.698  0.00  0.00    +0.000 OA
ATOM     37  H   UNL     1     -55.584 -71.484  43.705  0.00  0.00    +0.000 HD
ENDBRANCH  35  36
ENDBRANCH  29  35
ENDBRANCH  24  27
ENDBRANCH   5  25
BRANCH   5  38
ATOM     38  C   UNL     1     -62.459 -73.146  43.257  0.00  0.00    +0.000 C 
ATOM     39  C   UNL     1     -60.933 -72.941  43.521  0.00  0.00    +0.000 C 
ATOM     40  C   UNL     1     -63.137 -73.538  44.601  0.00  0.00    +0.000 C 
ATOM     41  C   UNL     1     -62.644 -74.255  42.193  0.00  0.00    +0.000 C 
ENDBRANCH   5  38
TORSDOF 7
ENDMDL
MODEL 8
REMARK VINA RESULT:      -5.8     23.844     28.627
REMARK  Name = 10940649_MilnamideD.pdbqt.pdb
REMARK  7 active torsions:
REMARK  status: ('A' for Active; 'I' for Inactive)
REMARK    1  A    between atoms: C_3  and  C_8
REMARK    2  A    between atoms: C_22  and  C_25
REMARK    3  A    between atoms: C_22  and  C_38
REMARK    4  A    between atoms: N_24  and  C_27
REMARK    5  A    between atoms: C_27  and  C_28
REMARK    6  A    between atoms: C_32  and  C_35
REMARK    7  A    between atoms: C_35  and  O_36
REMARK                            x       y       z     vdW  Elec       q    Type
REMARK                         _______ _______ _______ _____ _____    ______ ____
ROOT
ATOM      1  O   UNL     1     -53.271 -38.949  36.414  0.00  0.00    +0.000 OA
ATOM      2  N   UNL     1     -54.227 -40.836  37.238  0.00  0.00    +0.000 N 
ATOM      3  C   UNL     1     -53.999 -39.917  36.232  0.00  0.00    +0.000 C 
ATOM      4  H   UNL     1     -54.921 -41.575  37.078  0.00  0.00    +0.000 HD
ATOM      5  C   UNL     1     -53.628 -40.803  38.521  0.00  0.00    +0.000 C 
ENDROOT
BRANCH   3   9
ATOM      6  N   UNL     1     -56.155 -40.098  34.837  0.00  0.00    +0.000 NA
ATOM      7  N   UNL     1     -56.273 -41.085  31.043  0.00  0.00    +0.000 N 
ATOM      8  C   UNL     1     -53.790 -40.795  33.814  0.00  0.00    +0.000 C 
ATOM      9  C   UNL     1     -54.687 -40.175  34.925  0.00  0.00    +0.000 C 
ATOM     10  C   UNL     1     -54.526 -41.009  32.453  0.00  0.00    +0.000 A 
ATOM     11  C   UNL     1     -55.885 -40.819  32.310  0.00  0.00    +0.000 A 
ATOM     12  C   UNL     1     -53.346 -42.229  34.232  0.00  0.00    +0.000 C 
ATOM     13  C   UNL     1     -52.623 -39.822  33.481  0.00  0.00    +0.000 C 
ATOM     14  C   UNL     1     -54.069 -41.440  31.156  0.00  0.00    +0.000 A 
ATOM     15  C   UNL     1     -56.527 -40.406  33.481  0.00  0.00    +0.000 C 
ATOM     16  C   UNL     1     -55.185 -41.473  30.296  0.00  0.00    +0.000 A 
ATOM     17  C   UNL     1     -56.629 -38.753  35.123  0.00  0.00    +0.000 C 
ATOM     18  C   UNL     1     -52.812 -41.809  30.638  0.00  0.00    +0.000 A 
ATOM     19  C   UNL     1     -57.614 -40.991  30.575  0.00  0.00    +0.000 C 
ATOM     20  C   UNL     1     -55.079 -41.855  28.950  0.00  0.00    +0.000 A 
ATOM     21  C   UNL     1     -52.700 -42.189  29.301  0.00  0.00    +0.000 A 
ATOM     22  C   UNL     1     -53.816 -42.209  28.473  0.00  0.00    +0.000 A 
ENDBRANCH   3   9
BRANCH   5  25
ATOM     23  O   UNL     1     -52.810 -38.835  39.457  0.00  0.00    +0.000 OA
ATOM     24  N   UNL     1     -51.252 -40.236  38.364  0.00  0.00    +0.000 N 
ATOM     25  C   UNL     1     -52.537 -39.842  38.810  0.00  0.00    +0.000 C 
ATOM     26  C   UNL     1     -50.987 -41.431  37.555  0.00  0.00    +0.000 C 
BRANCH  24  27
ATOM     27  C   UNL     1     -50.116 -39.483  38.710  0.00  0.00    +0.000 C 
ATOM     28  C   UNL     1     -48.942 -40.112  39.250  0.00  0.00    +0.000 C 
ATOM     29  C   UNL     1     -47.875 -40.674  39.740  0.00  0.00    +0.000 C 
ATOM     30  C   UNL     1     -46.655 -40.644  38.844  0.00  0.00    +0.000 C 
BRANCH  27  31
ATOM     31  C   UNL     1     -50.067 -38.041  38.516  0.00  0.00    +0.000 C 
ATOM     32  C   UNL     1     -49.493 -37.139  39.590  0.00  0.00    +0.000 C 
ATOM     33  C   UNL     1     -49.989 -37.480  37.108  0.00  0.00    +0.000 C 
ENDBRANCH  27  31
BRANCH  29  35
ATOM     34  O   UNL     1     -47.019 -41.232  41.924  0.00  0.00    +0.000 OA
ATOM     35  C   UNL     1     -47.916 -41.286  41.096  0.00  0.00    +0.000 C 
BRANCH  35  36
ATOM     36  O   UNL     1     -49.060 -41.944  41.380  0.00  0.00    +0.000 OA
ATOM     37  H   UNL     1     -49.258 -41.725  42.314  0.00  0.00    +0.000 HD
ENDBRANCH  35  36
ENDBRANCH  29  35
ENDBRANCH  24  27
ENDBRANCH   5  25
BRANCH   5  38
ATOM     38  C   UNL     1     -53.837 -41.872  39.582  0.00  0.00    +0.000 C 
ATOM     39  C   UNL     1     -55.227 -41.589  40.237  0.00  0.00    +0.000 C 
ATOM     40  C   UNL     1     -53.909 -43.250  38.863  0.00  0.00    +0.000 C 
ATOM     41  C   UNL     1     -52.749 -41.872  40.684  0.00  0.00    +0.000 C 
ENDBRANCH   5  38
TORSDOF 7
ENDMDL
MODEL 9
REMARK VINA RESULT:      -5.7     21.906     24.314
REMARK  Name = 10940649_MilnamideD.pdbqt.pdb
REMARK  7 active torsions:
REMARK  status: ('A' for Active; 'I' for Inactive)
REMARK    1  A    between atoms: C_3  and  C_8
REMARK    2  A    between atoms: C_22  and  C_25
REMARK    3  A    between atoms: C_22  and  C_38
REMARK    4  A    between atoms: N_24  and  C_27
REMARK    5  A    between atoms: C_27  and  C_28
REMARK    6  A    between atoms: C_32  and  C_35
REMARK    7  A    between atoms: C_35  and  O_36
REMARK                            x       y       z     vdW  Elec       q    Type
REMARK                         _______ _______ _______ _____ _____    ______ ____
ROOT
ATOM      1  O   UNL     1     -42.475 -65.290  39.670  0.00  0.00    +0.000 OA
ATOM      2  N   UNL     1     -41.452 -65.654  37.676  0.00  0.00    +0.000 N 
ATOM      3  C   UNL     1     -42.194 -64.882  38.549  0.00  0.00    +0.000 C 
ATOM      4  H   UNL     1     -41.325 -65.320  36.714  0.00  0.00    +0.000 HD
ATOM      5  C   UNL     1     -40.902 -66.924  37.978  0.00  0.00    +0.000 C 
ENDROOT
BRANCH   3   9
ATOM      6  N   UNL     1     -41.755 -62.365  38.233  0.00  0.00    +0.000 NA
ATOM      7  N   UNL     1     -44.274 -59.861  36.569  0.00  0.00    +0.000 N 
ATOM      8  C   UNL     1     -44.120 -63.440  37.616  0.00  0.00    +0.000 C 
ATOM      9  C   UNL     1     -42.627 -63.538  38.047  0.00  0.00    +0.000 C 
ATOM     10  C   UNL     1     -44.526 -62.040  37.057  0.00  0.00    +0.000 A 
ATOM     11  C   UNL     1     -43.679 -60.952  37.100  0.00  0.00    +0.000 A 
ATOM     12  C   UNL     1     -45.042 -63.632  38.857  0.00  0.00    +0.000 C 
ATOM     13  C   UNL     1     -44.391 -64.426  36.443  0.00  0.00    +0.000 C 
ATOM     14  C   UNL     1     -45.739 -61.545  36.456  0.00  0.00    +0.000 A 
ATOM     15  C   UNL     1     -42.432 -61.226  37.671  0.00  0.00    +0.000 C 
ATOM     16  C   UNL     1     -45.547 -60.181  36.159  0.00  0.00    +0.000 A 
ATOM     17  C   UNL     1     -40.502 -62.524  37.512  0.00  0.00    +0.000 C 
ATOM     18  C   UNL     1     -46.982 -62.132  36.143  0.00  0.00    +0.000 A 
ATOM     19  C   UNL     1     -43.666 -58.578  36.473  0.00  0.00    +0.000 C 
ATOM     20  C   UNL     1     -46.548 -59.399  35.562  0.00  0.00    +0.000 A 
ATOM     21  C   UNL     1     -47.981 -61.359  35.550  0.00  0.00    +0.000 A 
ATOM     22  C   UNL     1     -47.764 -60.017  35.264  0.00  0.00    +0.000 A 
ENDBRANCH   3   9
BRANCH   5  25
ATOM     23  O   UNL     1     -40.078 -67.055  40.151  0.00  0.00    +0.000 OA
ATOM     24  N   UNL     1     -42.038 -68.283  39.669  0.00  0.00    +0.000 N 
ATOM     25  C   UNL     1     -40.940 -67.441  39.367  0.00  0.00    +0.000 C 
ATOM     26  C   UNL     1     -43.018 -68.750  38.682  0.00  0.00    +0.000 C 
BRANCH  24  27
ATOM     27  C   UNL     1     -42.266 -68.712  40.988  0.00  0.00    +0.000 C 
ATOM     28  C   UNL     1     -41.459 -69.739  41.587  0.00  0.00    +0.000 C 
ATOM     29  C   UNL     1     -40.733 -70.669  42.136  0.00  0.00    +0.000 C 
ATOM     30  C   UNL     1     -39.841 -70.213  43.271  0.00  0.00    +0.000 C 
BRANCH  27  31
ATOM     31  C   UNL     1     -43.308 -68.121  41.814  0.00  0.00    +0.000 C 
ATOM     32  C   UNL     1     -43.072 -66.803  42.524  0.00  0.00    +0.000 C 
ATOM     33  C   UNL     1     -44.764 -68.428  41.512  0.00  0.00    +0.000 C 
ENDBRANCH  27  31
BRANCH  29  35
ATOM     34  O   UNL     1     -40.581 -73.072  42.295  0.00  0.00    +0.000 OA
ATOM     35  C   UNL     1     -40.820 -72.069  41.637  0.00  0.00    +0.000 C 
BRANCH  35  36
ATOM     36  O   UNL     1     -41.196 -72.182  40.346  0.00  0.00    +0.000 OA
ATOM     37  H   UNL     1     -41.979 -71.601  40.253  0.00  0.00    +0.000 HD
ENDBRANCH  35  36
ENDBRANCH  29  35
ENDBRANCH  24  27
ENDBRANCH   5  25
BRANCH   5  38
ATOM     38  C   UNL     1     -40.023 -67.717  37.024  0.00  0.00    +0.000 C 
ATOM     39  C   UNL     1     -40.874 -67.976  35.740  0.00  0.00    +0.000 C 
ATOM     40  C   UNL     1     -38.814 -66.819  36.633  0.00  0.00    +0.000 C 
ATOM     41  C   UNL     1     -39.549 -69.073  37.600  0.00  0.00    +0.000 C 
ENDBRANCH   5  38
TORSDOF 7
ENDMDL
