MODEL 1
REMARK VINA RESULT:      -8.3      0.000      0.000
REMARK  Name = 11167602_Regorafenib.pdbqt.pdb
REMARK  6 active torsions:
REMARK  status: ('A' for Active; 'I' for Inactive)
REMARK    1  A    between atoms: C_2  and  N_10
REMARK    2  A    between atoms: C_3  and  O_25
REMARK    3  A    between atoms: N_9  and  C_15
REMARK    4  A    between atoms: C_16  and  C_24
REMARK    5  A    between atoms: O_25  and  C_27
REMARK    6  A    between atoms: C_29  and  C_34
REMARK                            x       y       z     vdW  Elec       q    Type
REMARK                         _______ _______ _______ _____ _____    ______ ____
ROOT
ATOM      1  F   UNL     1     -34.799 -43.062  52.386  0.00  0.00    +0.000 F 
ATOM      2  C   UNL     1     -36.431 -44.565  51.562  0.00  0.00    +0.000 A 
ATOM      3  C   UNL     1     -37.271 -42.580  49.782  0.00  0.00    +0.000 A 
ATOM      4  C   UNL     1     -35.813 -43.311  51.543  0.00  0.00    +0.000 A 
ATOM      5  C   UNL     1     -37.492 -44.803  50.690  0.00  0.00    +0.000 A 
ATOM      6  C   UNL     1     -36.230 -42.311  50.671  0.00  0.00    +0.000 A 
ATOM      7  C   UNL     1     -37.922 -43.811  49.809  0.00  0.00    +0.000 A 
ENDROOT
BRANCH   2  10
ATOM      8  O   UNL     1     -34.877 -46.951  50.990  0.00  0.00    +0.000 OA
ATOM      9  N   UNL     1     -34.866 -47.380  53.262  0.00  0.00    +0.000 N 
ATOM     10  N   UNL     1     -35.949 -45.535  52.466  0.00  0.00    +0.000 N 
ATOM     11  C   UNL     1     -35.199 -46.650  52.131  0.00  0.00    +0.000 C 
ATOM     12  H   UNL     1     -35.161 -47.022  54.158  0.00  0.00    +0.000 HD
ATOM     13  H   UNL     1     -36.196 -45.390  53.435  0.00  0.00    +0.000 HD
BRANCH   9  15
ATOM     14 CL   UNL     1     -31.605 -52.322  53.308  0.00  0.00    +0.000 Cl
ATOM     15  C   UNL     1     -34.119 -48.573  53.273  0.00  0.00    +0.000 A 
ATOM     16  C   UNL     1     -31.908 -49.603  53.255  0.00  0.00    +0.000 A 
ATOM     17  C   UNL     1     -32.728 -48.468  53.246  0.00  0.00    +0.000 A 
ATOM     18  C   UNL     1     -34.702 -49.835  53.311  0.00  0.00    +0.000 A 
ATOM     19  C   UNL     1     -32.514 -50.860  53.293  0.00  0.00    +0.000 A 
ATOM     20  C   UNL     1     -33.903 -50.974  53.320  0.00  0.00    +0.000 A 
BRANCH  16  24
ATOM     21  F   UNL     1     -30.049 -48.109  53.266  0.00  0.00    +0.000 F 
ATOM     22  F   UNL     1     -29.795 -50.007  54.281  0.00  0.00    +0.000 F 
ATOM     23  F   UNL     1     -29.847 -49.925  52.102  0.00  0.00    +0.000 F 
ATOM     24  C   UNL     1     -30.423 -49.420  53.226  0.00  0.00    +0.000 C 
ENDBRANCH  16  24
ENDBRANCH   9  15
ENDBRANCH   2  10
BRANCH   3  25
ATOM     25  O   UNL     1     -37.784 -41.616  48.946  0.00  0.00    +0.000 OA
BRANCH  25  27
ATOM     26  N   UNL     1     -41.609 -42.066  47.341  0.00  0.00    +0.000 NA
ATOM     27  C   UNL     1     -39.073 -41.781  48.490  0.00  0.00    +0.000 A 
ATOM     28  C   UNL     1     -40.192 -41.316  49.172  0.00  0.00    +0.000 A 
ATOM     29  C   UNL     1     -41.424 -41.492  48.564  0.00  0.00    +0.000 A 
ATOM     30  C   UNL     1     -39.209 -42.354  47.229  0.00  0.00    +0.000 A 
ATOM     31  C   UNL     1     -40.487 -42.477  46.708  0.00  0.00    +0.000 A 
BRANCH  29  34
ATOM     32  O   UNL     1     -42.765 -41.198  50.480  0.00  0.00    +0.000 OA
ATOM     33  N   UNL     1     -43.576 -40.468  48.412  0.00  0.00    +0.000 N 
ATOM     34  C   UNL     1     -42.652 -41.042  49.269  0.00  0.00    +0.000 C 
ATOM     35  C   UNL     1     -44.878 -39.910  48.651  0.00  0.00    +0.000 C 
ATOM     36  H   UNL     1     -43.282 -40.440  47.436  0.00  0.00    +0.000 HD
ENDBRANCH  29  34
ENDBRANCH  25  27
ENDBRANCH   3  25
TORSDOF 6
ENDMDL
MODEL 2
REMARK VINA RESULT:      -7.9      5.588     11.479
REMARK  Name = 11167602_Regorafenib.pdbqt.pdb
REMARK  6 active torsions:
REMARK  status: ('A' for Active; 'I' for Inactive)
REMARK    1  A    between atoms: C_2  and  N_10
REMARK    2  A    between atoms: C_3  and  O_25
REMARK    3  A    between atoms: N_9  and  C_15
REMARK    4  A    between atoms: C_16  and  C_24
REMARK    5  A    between atoms: O_25  and  C_27
REMARK    6  A    between atoms: C_29  and  C_34
REMARK                            x       y       z     vdW  Elec       q    Type
REMARK                         _______ _______ _______ _____ _____    ______ ____
ROOT
ATOM      1  F   UNL     1     -34.847 -43.716  48.156  0.00  0.00    +0.000 F 
ATOM      2  C   UNL     1     -36.930 -44.343  49.087  0.00  0.00    +0.000 A 
ATOM      3  C   UNL     1     -35.668 -44.625  51.565  0.00  0.00    +0.000 A 
ATOM      4  C   UNL     1     -35.561 -44.098  49.226  0.00  0.00    +0.000 A 
ATOM      5  C   UNL     1     -37.656 -44.752  50.205  0.00  0.00    +0.000 A 
ATOM      6  C   UNL     1     -34.919 -44.248  50.451  0.00  0.00    +0.000 A 
ATOM      7  C   UNL     1     -37.027 -44.906  51.440  0.00  0.00    +0.000 A 
ENDROOT
BRANCH   2  10
ATOM      8  O   UNL     1     -37.376 -41.863  47.643  0.00  0.00    +0.000 OA
ATOM      9  N   UNL     1     -38.273 -43.128  45.928  0.00  0.00    +0.000 N 
ATOM     10  N   UNL     1     -37.517 -44.161  47.817  0.00  0.00    +0.000 N 
ATOM     11  C   UNL     1     -37.692 -42.948  47.173  0.00  0.00    +0.000 C 
ATOM     12  H   UNL     1     -38.466 -44.073  45.629  0.00  0.00    +0.000 HD
ATOM     13  H   UNL     1     -37.844 -45.002  47.363  0.00  0.00    +0.000 HD
BRANCH   9  15
ATOM     14 CL   UNL     1     -39.541 -38.863  42.021  0.00  0.00    +0.000 Cl
ATOM     15  C   UNL     1     -38.596 -42.101  45.022  0.00  0.00    +0.000 A 
ATOM     16  C   UNL     1     -38.199 -41.107  42.829  0.00  0.00    +0.000 A 
ATOM     17  C   UNL     1     -37.940 -42.091  43.791  0.00  0.00    +0.000 A 
ATOM     18  C   UNL     1     -39.532 -41.109  45.297  0.00  0.00    +0.000 A 
ATOM     19  C   UNL     1     -39.141 -40.121  43.126  0.00  0.00    +0.000 A 
ATOM     20  C   UNL     1     -39.803 -40.122  44.354  0.00  0.00    +0.000 A 
BRANCH  16  24
ATOM     21  F   UNL     1     -38.280 -41.374  40.461  0.00  0.00    +0.000 F 
ATOM     22  F   UNL     1     -36.802 -39.998  41.249  0.00  0.00    +0.000 F 
ATOM     23  F   UNL     1     -36.533 -42.150  41.481  0.00  0.00    +0.000 F 
ATOM     24  C   UNL     1     -37.460 -41.156  41.529  0.00  0.00    +0.000 C 
ENDBRANCH  16  24
ENDBRANCH   9  15
ENDBRANCH   2  10
BRANCH   3  25
ATOM     25  O   UNL     1     -35.087 -44.865  52.788  0.00  0.00    +0.000 OA
BRANCH  25  27
ATOM     26  N   UNL     1     -32.446 -48.090  52.982  0.00  0.00    +0.000 NA
ATOM     27  C   UNL     1     -34.264 -45.964  52.905  0.00  0.00    +0.000 A 
ATOM     28  C   UNL     1     -34.737 -47.270  52.969  0.00  0.00    +0.000 A 
ATOM     29  C   UNL     1     -33.795 -48.284  53.016  0.00  0.00    +0.000 A 
ATOM     30  C   UNL     1     -32.897 -45.716  52.845  0.00  0.00    +0.000 A 
ATOM     31  C   UNL     1     -32.038 -46.802  52.894  0.00  0.00    +0.000 A 
BRANCH  29  34
ATOM     32  O   UNL     1     -35.441 -49.953  53.267  0.00  0.00    +0.000 OA
ATOM     33  N   UNL     1     -33.205 -50.597  53.032  0.00  0.00    +0.000 N 
ATOM     34  C   UNL     1     -34.251 -49.694  53.119  0.00  0.00    +0.000 C 
ATOM     35  C   UNL     1     -33.180 -52.034  53.085  0.00  0.00    +0.000 C 
ATOM     36  H   UNL     1     -32.289 -50.168  52.913  0.00  0.00    +0.000 HD
ENDBRANCH  29  34
ENDBRANCH  25  27
ENDBRANCH   3  25
TORSDOF 6
ENDMDL
MODEL 3
REMARK VINA RESULT:      -7.8      5.248     11.830
REMARK  Name = 11167602_Regorafenib.pdbqt.pdb
REMARK  6 active torsions:
REMARK  status: ('A' for Active; 'I' for Inactive)
REMARK    1  A    between atoms: C_2  and  N_10
REMARK    2  A    between atoms: C_3  and  O_25
REMARK    3  A    between atoms: N_9  and  C_15
REMARK    4  A    between atoms: C_16  and  C_24
REMARK    5  A    between atoms: O_25  and  C_27
REMARK    6  A    between atoms: C_29  and  C_34
REMARK                            x       y       z     vdW  Elec       q    Type
REMARK                         _______ _______ _______ _____ _____    ______ ____
ROOT
ATOM      1  F   UNL     1     -35.812 -43.562  48.272  0.00  0.00    +0.000 F 
ATOM      2  C   UNL     1     -37.394 -44.523  49.746  0.00  0.00    +0.000 A 
ATOM      3  C   UNL     1     -35.291 -45.227  51.446  0.00  0.00    +0.000 A 
ATOM      4  C   UNL     1     -36.072 -44.212  49.416  0.00  0.00    +0.000 A 
ATOM      5  C   UNL     1     -37.647 -45.211  50.931  0.00  0.00    +0.000 A 
ATOM      6  C   UNL     1     -35.015 -44.570  50.248  0.00  0.00    +0.000 A 
ATOM      7  C   UNL     1     -36.599 -45.576  51.776  0.00  0.00    +0.000 A 
ENDROOT
BRANCH   2  10
ATOM      8  O   UNL     1     -38.860 -42.016  49.698  0.00  0.00    +0.000 OA
ATOM      9  N   UNL     1     -40.001 -42.821  47.855  0.00  0.00    +0.000 N 
ATOM     10  N   UNL     1     -38.417 -44.122  48.860  0.00  0.00    +0.000 N 
ATOM     11  C   UNL     1     -39.072 -42.902  48.881  0.00  0.00    +0.000 C 
ATOM     12  H   UNL     1     -40.071 -43.603  47.220  0.00  0.00    +0.000 HD
ATOM     13  H   UNL     1     -38.688 -44.805  48.167  0.00  0.00    +0.000 HD
BRANCH   9  15
ATOM     14 CL   UNL     1     -43.466 -38.170  46.664  0.00  0.00    +0.000 Cl
ATOM     15  C   UNL     1     -40.842 -41.723  47.600  0.00  0.00    +0.000 A 
ATOM     16  C   UNL     1     -41.358 -39.835  46.143  0.00  0.00    +0.000 A 
ATOM     17  C   UNL     1     -40.572 -40.946  46.473  0.00  0.00    +0.000 A 
ATOM     18  C   UNL     1     -41.919 -41.384  48.413  0.00  0.00    +0.000 A 
ATOM     19  C   UNL     1     -42.433 -39.512  46.973  0.00  0.00    +0.000 A 
ATOM     20  C   UNL     1     -42.711 -40.283  48.101  0.00  0.00    +0.000 A 
BRANCH  16  24
ATOM     21  F   UNL     1     -39.929 -39.540  44.257  0.00  0.00    +0.000 F 
ATOM     22  F   UNL     1     -42.018 -39.024  44.002  0.00  0.00    +0.000 F 
ATOM     23  F   UNL     1     -40.709 -37.748  45.192  0.00  0.00    +0.000 F 
ATOM     24  C   UNL     1     -41.014 -39.046  44.920  0.00  0.00    +0.000 C 
ENDBRANCH  16  24
ENDBRANCH   9  15
ENDBRANCH   2  10
BRANCH   3  25
ATOM     25  O   UNL     1     -34.292 -45.676  52.279  0.00  0.00    +0.000 OA
BRANCH  25  27
ATOM     26  N   UNL     1     -32.940 -49.545  51.495  0.00  0.00    +0.000 NA
ATOM     27  C   UNL     1     -33.835 -46.962  52.098  0.00  0.00    +0.000 A 
ATOM     28  C   UNL     1     -34.180 -48.021  52.932  0.00  0.00    +0.000 A 
ATOM     29  C   UNL     1     -33.702 -49.276  52.593  0.00  0.00    +0.000 A 
ATOM     30  C   UNL     1     -33.078 -47.190  50.953  0.00  0.00    +0.000 A 
ATOM     31  C   UNL     1     -32.655 -48.486  50.703  0.00  0.00    +0.000 A 
BRANCH  29  34
ATOM     32  O   UNL     1     -35.180 -50.705  53.748  0.00  0.00    +0.000 OA
ATOM     33  N   UNL     1     -32.880 -51.100  53.897  0.00  0.00    +0.000 N 
ATOM     34  C   UNL     1     -34.016 -50.433  53.471  0.00  0.00    +0.000 C 
ATOM     35  C   UNL     1     -32.710 -52.248  54.745  0.00  0.00    +0.000 C 
ATOM     36  H   UNL     1     -32.007 -50.704  53.551  0.00  0.00    +0.000 HD
ENDBRANCH  29  34
ENDBRANCH  25  27
ENDBRANCH   3  25
TORSDOF 6
ENDMDL
MODEL 4
REMARK VINA RESULT:      -7.6      1.888      3.201
REMARK  Name = 11167602_Regorafenib.pdbqt.pdb
REMARK  6 active torsions:
REMARK  status: ('A' for Active; 'I' for Inactive)
REMARK    1  A    between atoms: C_2  and  N_10
REMARK    2  A    between atoms: C_3  and  O_25
REMARK    3  A    between atoms: N_9  and  C_15
REMARK    4  A    between atoms: C_16  and  C_24
REMARK    5  A    between atoms: O_25  and  C_27
REMARK    6  A    between atoms: C_29  and  C_34
REMARK                            x       y       z     vdW  Elec       q    Type
REMARK                         _______ _______ _______ _____ _____    ______ ____
ROOT
ATOM      1  F   UNL     1     -34.782 -42.965  52.699  0.00  0.00    +0.000 F 
ATOM      2  C   UNL     1     -36.436 -44.408  51.813  0.00  0.00    +0.000 A 
ATOM      3  C   UNL     1     -37.292 -42.316  50.168  0.00  0.00    +0.000 A 
ATOM      4  C   UNL     1     -35.811 -43.158  51.859  0.00  0.00    +0.000 A 
ATOM      5  C   UNL     1     -37.512 -44.588  50.946  0.00  0.00    +0.000 A 
ATOM      6  C   UNL     1     -36.236 -42.106  51.055  0.00  0.00    +0.000 A 
ATOM      7  C   UNL     1     -37.950 -43.543  50.133  0.00  0.00    +0.000 A 
ENDROOT
BRANCH   2  10
ATOM      8  O   UNL     1     -35.012 -46.825  51.062  0.00  0.00    +0.000 OA
ATOM      9  N   UNL     1     -34.897 -47.349  53.311  0.00  0.00    +0.000 N 
ATOM     10  N   UNL     1     -35.946 -45.432  52.650  0.00  0.00    +0.000 N 
ATOM     11  C   UNL     1     -35.260 -46.560  52.231  0.00  0.00    +0.000 C 
ATOM     12  H   UNL     1     -35.128 -47.018  54.236  0.00  0.00    +0.000 HD
ATOM     13  H   UNL     1     -36.135 -45.319  53.636  0.00  0.00    +0.000 HD
BRANCH   9  15
ATOM     14 CL   UNL     1     -31.840 -52.408  52.971  0.00  0.00    +0.000 Cl
ATOM     15  C   UNL     1     -34.199 -48.568  53.234  0.00  0.00    +0.000 A 
ATOM     16  C   UNL     1     -32.044 -49.679  52.967  0.00  0.00    +0.000 A 
ATOM     17  C   UNL     1     -32.817 -48.516  53.054  0.00  0.00    +0.000 A 
ATOM     18  C   UNL     1     -34.821 -49.809  53.329  0.00  0.00    +0.000 A 
ATOM     19  C   UNL     1     -32.688 -50.914  53.064  0.00  0.00    +0.000 A 
ATOM     20  C   UNL     1     -34.070 -50.977  53.243  0.00  0.00    +0.000 A 
BRANCH  16  24
ATOM     21  F   UNL     1     -30.226 -48.540  51.925  0.00  0.00    +0.000 F 
ATOM     22  F   UNL     1     -29.901 -49.288  53.933  0.00  0.00    +0.000 F 
ATOM     23  F   UNL     1     -29.998 -50.670  52.249  0.00  0.00    +0.000 F 
ATOM     24  C   UNL     1     -30.565 -49.551  52.776  0.00  0.00    +0.000 C 
ENDBRANCH  16  24
ENDBRANCH   9  15
ENDBRANCH   2  10
BRANCH   3  25
ATOM     25  O   UNL     1     -37.812 -41.301  49.400  0.00  0.00    +0.000 OA
BRANCH  25  27
ATOM     26  N   UNL     1     -39.736 -42.487  45.893  0.00  0.00    +0.000 NA
ATOM     27  C   UNL     1     -38.403 -41.640  48.203  0.00  0.00    +0.000 A 
ATOM     28  C   UNL     1     -37.698 -41.770  47.011  0.00  0.00    +0.000 A 
ATOM     29  C   UNL     1     -38.407 -42.183  45.896  0.00  0.00    +0.000 A 
ATOM     30  C   UNL     1     -39.756 -41.961  48.255  0.00  0.00    +0.000 A 
ATOM     31  C   UNL     1     -40.370 -42.370  47.082  0.00  0.00    +0.000 A 
BRANCH  29  34
ATOM     32  O   UNL     1     -38.093 -43.106  43.749  0.00  0.00    +0.000 OA
ATOM     33  N   UNL     1     -36.625 -41.443  44.489  0.00  0.00    +0.000 N 
ATOM     34  C   UNL     1     -37.704 -42.304  44.593  0.00  0.00    +0.000 C 
ATOM     35  C   UNL     1     -35.676 -41.227  43.431  0.00  0.00    +0.000 C 
ATOM     36  H   UNL     1     -36.473 -40.861  45.312  0.00  0.00    +0.000 HD
ENDBRANCH  29  34
ENDBRANCH  25  27
ENDBRANCH   3  25
TORSDOF 6
ENDMDL
MODEL 5
REMARK VINA RESULT:      -7.2      4.753     12.176
REMARK  Name = 11167602_Regorafenib.pdbqt.pdb
REMARK  6 active torsions:
REMARK  status: ('A' for Active; 'I' for Inactive)
REMARK    1  A    between atoms: C_2  and  N_10
REMARK    2  A    between atoms: C_3  and  O_25
REMARK    3  A    between atoms: N_9  and  C_15
REMARK    4  A    between atoms: C_16  and  C_24
REMARK    5  A    between atoms: O_25  and  C_27
REMARK    6  A    between atoms: C_29  and  C_34
REMARK                            x       y       z     vdW  Elec       q    Type
REMARK                         _______ _______ _______ _____ _____    ______ ____
ROOT
ATOM      1  F   UNL     1     -33.614 -48.371  49.638  0.00  0.00    +0.000 F 
ATOM      2  C   UNL     1     -33.643 -48.206  51.998  0.00  0.00    +0.000 A 
ATOM      3  C   UNL     1     -31.351 -49.803  52.076  0.00  0.00    +0.000 A 
ATOM      4  C   UNL     1     -33.064 -48.687  50.820  0.00  0.00    +0.000 A 
ATOM      5  C   UNL     1     -33.068 -48.554  53.219  0.00  0.00    +0.000 A 
ATOM      6  C   UNL     1     -31.932 -49.494  50.847  0.00  0.00    +0.000 A 
ATOM      7  C   UNL     1     -31.932 -49.362  53.263  0.00  0.00    +0.000 A 
ENDROOT
BRANCH   2  10
ATOM      8  O   UNL     1     -33.843 -45.518  50.917  0.00  0.00    +0.000 OA
ATOM      9  N   UNL     1     -36.106 -45.595  51.383  0.00  0.00    +0.000 N 
ATOM     10  N   UNL     1     -34.786 -47.385  51.896  0.00  0.00    +0.000 N 
ATOM     11  C   UNL     1     -34.820 -46.110  51.356  0.00  0.00    +0.000 C 
ATOM     12  H   UNL     1     -36.843 -46.184  51.743  0.00  0.00    +0.000 HD
ATOM     13  H   UNL     1     -35.640 -47.776  52.267  0.00  0.00    +0.000 HD
BRANCH   9  15
ATOM     14 CL   UNL     1     -37.801 -40.294  49.361  0.00  0.00    +0.000 Cl
ATOM     15  C   UNL     1     -36.486 -44.321  50.922  0.00  0.00    +0.000 A 
ATOM     16  C   UNL     1     -37.947 -43.025  49.461  0.00  0.00    +0.000 A 
ATOM     17  C   UNL     1     -37.506 -44.251  49.974  0.00  0.00    +0.000 A 
ATOM     18  C   UNL     1     -35.895 -43.143  51.368  0.00  0.00    +0.000 A 
ATOM     19  C   UNL     1     -37.340 -41.855  49.921  0.00  0.00    +0.000 A 
ATOM     20  C   UNL     1     -36.319 -41.915  50.869  0.00  0.00    +0.000 A 
BRANCH  16  24
ATOM     21  F   UNL     1     -39.357 -44.271  47.995  0.00  0.00    +0.000 F 
ATOM     22  F   UNL     1     -40.213 -42.513  48.929  0.00  0.00    +0.000 F 
ATOM     23  F   UNL     1     -38.742 -42.301  47.333  0.00  0.00    +0.000 F 
ATOM     24  C   UNL     1     -39.047 -43.021  48.446  0.00  0.00    +0.000 C 
ENDBRANCH  16  24
ENDBRANCH   9  15
ENDBRANCH   2  10
BRANCH   3  25
ATOM     25  O   UNL     1     -30.276 -50.655  52.182  0.00  0.00    +0.000 OA
BRANCH  25  27
ATOM     26  N   UNL     1     -31.132 -54.538  53.447  0.00  0.00    +0.000 NA
ATOM     27  C   UNL     1     -30.509 -51.926  52.660  0.00  0.00    +0.000 A 
ATOM     28  C   UNL     1     -30.656 -52.220  54.012  0.00  0.00    +0.000 A 
ATOM     29  C   UNL     1     -30.954 -53.530  54.347  0.00  0.00    +0.000 A 
ATOM     30  C   UNL     1     -30.703 -52.916  51.703  0.00  0.00    +0.000 A 
ATOM     31  C   UNL     1     -31.003 -54.195  52.144  0.00  0.00    +0.000 A 
BRANCH  29  34
ATOM     32  O   UNL     1     -32.197 -53.999  56.295  0.00  0.00    +0.000 OA
ATOM     33  N   UNL     1     -29.863 -54.096  56.394  0.00  0.00    +0.000 N 
ATOM     34  C   UNL     1     -31.088 -53.900  55.779  0.00  0.00    +0.000 C 
ATOM     35  C   UNL     1     -29.520 -54.453  57.743  0.00  0.00    +0.000 C 
ATOM     36  H   UNL     1     -29.060 -53.958  55.782  0.00  0.00    +0.000 HD
ENDBRANCH  29  34
ENDBRANCH  25  27
ENDBRANCH   3  25
TORSDOF 6
ENDMDL
MODEL 6
REMARK VINA RESULT:      -7.0      1.989      2.430
REMARK  Name = 11167602_Regorafenib.pdbqt.pdb
REMARK  6 active torsions:
REMARK  status: ('A' for Active; 'I' for Inactive)
REMARK    1  A    between atoms: C_2  and  N_10
REMARK    2  A    between atoms: C_3  and  O_25
REMARK    3  A    between atoms: N_9  and  C_15
REMARK    4  A    between atoms: C_16  and  C_24
REMARK    5  A    between atoms: O_25  and  C_27
REMARK    6  A    between atoms: C_29  and  C_34
REMARK                            x       y       z     vdW  Elec       q    Type
REMARK                         _______ _______ _______ _____ _____    ______ ____
ROOT
ATOM      1  F   UNL     1     -34.310 -43.241  49.721  0.00  0.00    +0.000 F 
ATOM      2  C   UNL     1     -36.128 -44.597  50.396  0.00  0.00    +0.000 A 
ATOM      3  C   UNL     1     -37.613 -43.558  48.268  0.00  0.00    +0.000 A 
ATOM      4  C   UNL     1     -35.574 -43.650  49.530  0.00  0.00    +0.000 A 
ATOM      5  C   UNL     1     -37.446 -45.002  50.193  0.00  0.00    +0.000 A 
ATOM      6  C   UNL     1     -36.307 -43.116  48.476  0.00  0.00    +0.000 A 
ATOM      7  C   UNL     1     -38.195 -44.476  49.141  0.00  0.00    +0.000 A 
ENDROOT
BRANCH   2  10
ATOM      8  O   UNL     1     -34.488 -46.994  50.408  0.00  0.00    +0.000 OA
ATOM      9  N   UNL     1     -33.861 -46.446  52.565  0.00  0.00    +0.000 N 
ATOM     10  N   UNL     1     -35.323 -45.104  51.438  0.00  0.00    +0.000 N 
ATOM     11  C   UNL     1     -34.550 -46.252  51.379  0.00  0.00    +0.000 C 
ATOM     12  H   UNL     1     -33.965 -45.752  53.291  0.00  0.00    +0.000 HD
ATOM     13  H   UNL     1     -35.337 -44.574  52.299  0.00  0.00    +0.000 HD
BRANCH   9  15
ATOM     14 CL   UNL     1     -30.334 -51.060  53.722  0.00  0.00    +0.000 Cl
ATOM     15  C   UNL     1     -32.996 -47.522  52.840  0.00  0.00    +0.000 A 
ATOM     16  C   UNL     1     -32.776 -49.915  53.258  0.00  0.00    +0.000 A 
ATOM     17  C   UNL     1     -33.561 -48.789  52.985  0.00  0.00    +0.000 A 
ATOM     18  C   UNL     1     -31.619 -47.377  52.971  0.00  0.00    +0.000 A 
ATOM     19  C   UNL     1     -31.396 -49.748  53.387  0.00  0.00    +0.000 A 
ATOM     20  C   UNL     1     -30.822 -48.485  53.244  0.00  0.00    +0.000 A 
BRANCH  16  24
ATOM     21  F   UNL     1     -32.943 -52.187  52.551  0.00  0.00    +0.000 F 
ATOM     22  F   UNL     1     -33.316 -51.776  54.646  0.00  0.00    +0.000 F 
ATOM     23  F   UNL     1     -34.781 -51.200  53.136  0.00  0.00    +0.000 F 
ATOM     24  C   UNL     1     -33.447 -51.245  53.400  0.00  0.00    +0.000 C 
ENDBRANCH  16  24
ENDBRANCH   9  15
ENDBRANCH   2  10
BRANCH   3  25
ATOM     25  O   UNL     1     -38.420 -43.019  47.294  0.00  0.00    +0.000 OA
BRANCH  25  27
ATOM     26  N   UNL     1     -40.148 -39.317  48.141  0.00  0.00    +0.000 NA
ATOM     27  C   UNL     1     -39.061 -41.833  47.574  0.00  0.00    +0.000 A 
ATOM     28  C   UNL     1     -40.115 -41.727  48.476  0.00  0.00    +0.000 A 
ATOM     29  C   UNL     1     -40.622 -40.460  48.713  0.00  0.00    +0.000 A 
ATOM     30  C   UNL     1     -38.528 -40.692  46.983  0.00  0.00    +0.000 A 
ATOM     31  C   UNL     1     -39.106 -39.472  47.292  0.00  0.00    +0.000 A 
BRANCH  29  34
ATOM     32  O   UNL     1     -41.970 -41.124  50.530  0.00  0.00    +0.000 OA
ATOM     33  N   UNL     1     -42.518 -39.168  49.372  0.00  0.00    +0.000 N 
ATOM     34  C   UNL     1     -41.769 -40.300  49.643  0.00  0.00    +0.000 C 
ATOM     35  C   UNL     1     -43.694 -38.630  50.000  0.00  0.00    +0.000 C 
ATOM     36  H   UNL     1     -42.178 -38.618  48.584  0.00  0.00    +0.000 HD
ENDBRANCH  29  34
ENDBRANCH  25  27
ENDBRANCH   3  25
TORSDOF 6
ENDMDL
MODEL 7
REMARK VINA RESULT:      -6.9     35.152     37.569
REMARK  Name = 11167602_Regorafenib.pdbqt.pdb
REMARK  6 active torsions:
REMARK  status: ('A' for Active; 'I' for Inactive)
REMARK    1  A    between atoms: C_2  and  N_10
REMARK    2  A    between atoms: C_3  and  O_25
REMARK    3  A    between atoms: N_9  and  C_15
REMARK    4  A    between atoms: C_16  and  C_24
REMARK    5  A    between atoms: O_25  and  C_27
REMARK    6  A    between atoms: C_29  and  C_34
REMARK                            x       y       z     vdW  Elec       q    Type
REMARK                         _______ _______ _______ _____ _____    ______ ____
ROOT
ATOM      1  F   UNL     1     -60.595 -72.564  41.030  0.00  0.00    +0.000 F 
ATOM      2  C   UNL     1     -59.095 -71.500  42.521  0.00  0.00    +0.000 A 
ATOM      3  C   UNL     1     -59.276 -73.731  44.195  0.00  0.00    +0.000 A 
ATOM      4  C   UNL     1     -59.903 -72.589  42.180  0.00  0.00    +0.000 A 
ATOM      5  C   UNL     1     -58.394 -71.536  43.725  0.00  0.00    +0.000 A 
ATOM      6  C   UNL     1     -60.012 -73.699  43.011  0.00  0.00    +0.000 A 
ATOM      7  C   UNL     1     -58.492 -72.642  44.569  0.00  0.00    +0.000 A 
ENDROOT
BRANCH   2  10
ATOM      8  O   UNL     1     -60.913 -69.249  42.271  0.00  0.00    +0.000 OA
ATOM      9  N   UNL     1     -59.543 -68.445  40.591  0.00  0.00    +0.000 N 
ATOM     10  N   UNL     1     -59.025 -70.412  41.625  0.00  0.00    +0.000 N 
ATOM     11  C   UNL     1     -59.921 -69.358  41.563  0.00  0.00    +0.000 C 
ATOM     12  H   UNL     1     -58.688 -68.621  40.085  0.00  0.00    +0.000 HD
ATOM     13  H   UNL     1     -58.254 -70.432  40.973  0.00  0.00    +0.000 HD
BRANCH   9  15
ATOM     14 CL   UNL     1     -62.565 -63.565  39.137  0.00  0.00    +0.000 Cl
ATOM     15  C   UNL     1     -60.239 -67.267  40.262  0.00  0.00    +0.000 A 
ATOM     16  C   UNL     1     -62.123 -66.265  39.080  0.00  0.00    +0.000 A 
ATOM     17  C   UNL     1     -61.371 -67.384  39.455  0.00  0.00    +0.000 A 
ATOM     18  C   UNL     1     -59.853 -66.006  40.705  0.00  0.00    +0.000 A 
ATOM     19  C   UNL     1     -61.717 -65.009  39.534  0.00  0.00    +0.000 A 
ATOM     20  C   UNL     1     -60.587 -64.881  40.342  0.00  0.00    +0.000 A 
BRANCH  16  24
ATOM     21  F   UNL     1     -63.559 -67.773  37.918  0.00  0.00    +0.000 F 
ATOM     22  F   UNL     1     -64.475 -66.013  38.789  0.00  0.00    +0.000 F 
ATOM     23  F   UNL     1     -63.225 -65.834  37.010  0.00  0.00    +0.000 F 
ATOM     24  C   UNL     1     -63.327 -66.462  38.213  0.00  0.00    +0.000 C 
ENDBRANCH  16  24
ENDBRANCH   9  15
ENDBRANCH   2  10
BRANCH   3  25
ATOM     25  O   UNL     1     -59.393 -74.761  45.099  0.00  0.00    +0.000 OA
BRANCH  25  27
ATOM     26  N   UNL     1     -55.882 -76.633  46.357  0.00  0.00    +0.000 NA
ATOM     27  C   UNL     1     -58.246 -75.434  45.459  0.00  0.00    +0.000 A 
ATOM     28  C   UNL     1     -57.366 -75.992  44.538  0.00  0.00    +0.000 A 
ATOM     29  C   UNL     1     -56.216 -76.581  45.036  0.00  0.00    +0.000 A 
ATOM     30  C   UNL     1     -57.939 -75.442  46.815  0.00  0.00    +0.000 A 
ATOM     31  C   UNL     1     -56.759 -76.054  47.209  0.00  0.00    +0.000 A 
BRANCH  29  34
ATOM     32  O   UNL     1     -55.187 -78.442  44.017  0.00  0.00    +0.000 OA
ATOM     33  N   UNL     1     -54.523 -76.294  43.377  0.00  0.00    +0.000 N 
ATOM     34  C   UNL     1     -55.261 -77.220  44.094  0.00  0.00    +0.000 C 
ATOM     35  C   UNL     1     -53.501 -76.456  42.379  0.00  0.00    +0.000 C 
ATOM     36  H   UNL     1     -54.740 -75.323  43.599  0.00  0.00    +0.000 HD
ENDBRANCH  29  34
ENDBRANCH  25  27
ENDBRANCH   3  25
TORSDOF 6
ENDMDL
MODEL 8
REMARK VINA RESULT:      -6.9     17.050     20.554
REMARK  Name = 11167602_Regorafenib.pdbqt.pdb
REMARK  6 active torsions:
REMARK  status: ('A' for Active; 'I' for Inactive)
REMARK    1  A    between atoms: C_2  and  N_10
REMARK    2  A    between atoms: C_3  and  O_25
REMARK    3  A    between atoms: N_9  and  C_15
REMARK    4  A    between atoms: C_16  and  C_24
REMARK    5  A    between atoms: O_25  and  C_27
REMARK    6  A    between atoms: C_29  and  C_34
REMARK                            x       y       z     vdW  Elec       q    Type
REMARK                         _______ _______ _______ _____ _____    ______ ____
ROOT
ATOM      1  F   UNL     1     -33.439 -59.703  40.841  0.00  0.00    +0.000 F 
ATOM      2  C   UNL     1     -35.469 -60.590  41.674  0.00  0.00    +0.000 A 
ATOM      3  C   UNL     1     -34.245 -60.885  44.169  0.00  0.00    +0.000 A 
ATOM      4  C   UNL     1     -34.136 -60.216  41.867  0.00  0.00    +0.000 A 
ATOM      5  C   UNL     1     -36.175 -61.135  42.745  0.00  0.00    +0.000 A 
ATOM      6  C   UNL     1     -33.512 -60.371  43.100  0.00  0.00    +0.000 A 
ATOM      7  C   UNL     1     -35.564 -61.296  43.988  0.00  0.00    +0.000 A 
ENDROOT
BRANCH   2  10
ATOM      8  O   UNL     1     -36.783 -62.541  39.969  0.00  0.00    +0.000 OA
ATOM      9  N   UNL     1     -37.142 -60.837  38.448  0.00  0.00    +0.000 N 
ATOM     10  N   UNL     1     -36.041 -60.396  40.398  0.00  0.00    +0.000 N 
ATOM     11  C   UNL     1     -36.667 -61.369  39.637  0.00  0.00    +0.000 C 
ATOM     12  H   UNL     1     -37.016 -59.847  38.290  0.00  0.00    +0.000 HD
ATOM     13  H   UNL     1     -35.963 -59.462  40.022  0.00  0.00    +0.000 HD
BRANCH   9  15
ATOM     14 CL   UNL     1     -40.102 -63.853  34.301  0.00  0.00    +0.000 Cl
ATOM     15  C   UNL     1     -37.817 -61.555  37.444  0.00  0.00    +0.000 A 
ATOM     16  C   UNL     1     -39.914 -62.558  36.705  0.00  0.00    +0.000 A 
ATOM     17  C   UNL     1     -39.165 -61.849  37.651  0.00  0.00    +0.000 A 
ATOM     18  C   UNL     1     -37.205 -61.978  36.269  0.00  0.00    +0.000 A 
ATOM     19  C   UNL     1     -39.281 -62.974  35.532  0.00  0.00    +0.000 A 
ATOM     20  C   UNL     1     -37.933 -62.686  35.317  0.00  0.00    +0.000 A 
BRANCH  16  24
ATOM     21  F   UNL     1     -41.632 -64.172  37.069  0.00  0.00    +0.000 F 
ATOM     22  F   UNL     1     -41.777 -62.311  38.170  0.00  0.00    +0.000 F 
ATOM     23  F   UNL     1     -42.191 -62.355  36.029  0.00  0.00    +0.000 F 
ATOM     24  C   UNL     1     -41.356 -62.838  36.989  0.00  0.00    +0.000 C 
ENDBRANCH  16  24
ENDBRANCH   9  15
ENDBRANCH   2  10
BRANCH   3  25
ATOM     25  O   UNL     1     -33.672 -61.135  45.394  0.00  0.00    +0.000 OA
BRANCH  25  27
ATOM     26  N   UNL     1     -34.183 -58.382  48.487  0.00  0.00    +0.000 NA
ATOM     27  C   UNL     1     -33.918 -60.243  46.413  0.00  0.00    +0.000 A 
ATOM     28  C   UNL     1     -34.802 -60.498  47.457  0.00  0.00    +0.000 A 
ATOM     29  C   UNL     1     -34.902 -59.540  48.452  0.00  0.00    +0.000 A 
ATOM     30  C   UNL     1     -33.146 -59.086  46.417  0.00  0.00    +0.000 A 
ATOM     31  C   UNL     1     -33.320 -58.194  47.463  0.00  0.00    +0.000 A 
BRANCH  29  34
ATOM     32  O   UNL     1     -35.801 -60.773  50.249  0.00  0.00    +0.000 OA
ATOM     33  N   UNL     1     -36.750 -58.704  49.712  0.00  0.00    +0.000 N 
ATOM     34  C   UNL     1     -35.857 -59.752  49.570  0.00  0.00    +0.000 C 
ATOM     35  C   UNL     1     -37.828 -58.489  50.638  0.00  0.00    +0.000 C 
ATOM     36  H   UNL     1     -36.624 -57.951  49.036  0.00  0.00    +0.000 HD
ENDBRANCH  29  34
ENDBRANCH  25  27
ENDBRANCH   3  25
TORSDOF 6
ENDMDL
MODEL 9
REMARK VINA RESULT:      -6.8     23.048     24.258
REMARK  Name = 11167602_Regorafenib.pdbqt.pdb
REMARK  6 active torsions:
REMARK  status: ('A' for Active; 'I' for Inactive)
REMARK    1  A    between atoms: C_2  and  N_10
REMARK    2  A    between atoms: C_3  and  O_25
REMARK    3  A    between atoms: N_9  and  C_15
REMARK    4  A    between atoms: C_16  and  C_24
REMARK    5  A    between atoms: O_25  and  C_27
REMARK    6  A    between atoms: C_29  and  C_34
REMARK                            x       y       z     vdW  Elec       q    Type
REMARK                         _______ _______ _______ _____ _____    ______ ____
ROOT
ATOM      1  F   UNL     1     -30.930 -66.818  54.881  0.00  0.00    +0.000 F 
ATOM      2  C   UNL     1     -33.038 -67.739  55.438  0.00  0.00    +0.000 A 
ATOM      3  C   UNL     1     -33.645 -67.838  52.711  0.00  0.00    +0.000 A 
ATOM      4  C   UNL     1     -32.120 -67.293  54.482  0.00  0.00    +0.000 A 
ATOM      5  C   UNL     1     -34.275 -68.216  55.008  0.00  0.00    +0.000 A 
ATOM      6  C   UNL     1     -32.416 -67.325  53.123  0.00  0.00    +0.000 A 
ATOM      7  C   UNL     1     -34.586 -68.255  53.649  0.00  0.00    +0.000 A 
ENDROOT
BRANCH   2  10
ATOM      8  O   UNL     1     -33.603 -65.658  57.383  0.00  0.00    +0.000 OA
ATOM      9  N   UNL     1     -32.487 -66.943  58.948  0.00  0.00    +0.000 N 
ATOM     10  N   UNL     1     -32.667 -67.686  56.798  0.00  0.00    +0.000 N 
ATOM     11  C   UNL     1     -32.979 -66.667  57.682  0.00  0.00    +0.000 C 
ATOM     12  H   UNL     1     -32.011 -67.822  59.088  0.00  0.00    +0.000 HD
ATOM     13  H   UNL     1     -32.115 -68.464  57.131  0.00  0.00    +0.000 HD
BRANCH   9  15
ATOM     14 CL   UNL     1     -33.169 -63.503  63.719  0.00  0.00    +0.000 Cl
ATOM     15  C   UNL     1     -32.620 -66.110  60.075  0.00  0.00    +0.000 A 
ATOM     16  C   UNL     1     -33.976 -65.473  62.000  0.00  0.00    +0.000 A 
ATOM     17  C   UNL     1     -33.763 -66.258  60.861  0.00  0.00    +0.000 A 
ATOM     18  C   UNL     1     -31.671 -65.158  60.434  0.00  0.00    +0.000 A 
ATOM     19  C   UNL     1     -33.012 -64.523  62.342  0.00  0.00    +0.000 A 
ATOM     20  C   UNL     1     -31.866 -64.367  61.562  0.00  0.00    +0.000 A 
BRANCH  16  24
ATOM     21  F   UNL     1     -35.188 -66.826  63.546  0.00  0.00    +0.000 F 
ATOM     22  F   UNL     1     -35.462 -64.680  63.686  0.00  0.00    +0.000 F 
ATOM     23  F   UNL     1     -36.338 -65.793  62.027  0.00  0.00    +0.000 F 
ATOM     24  C   UNL     1     -35.223 -65.684  62.799  0.00  0.00    +0.000 C 
ENDBRANCH  16  24
ENDBRANCH   9  15
ENDBRANCH   2  10
BRANCH   3  25
ATOM     25  O   UNL     1     -34.034 -67.829  51.391  0.00  0.00    +0.000 OA
BRANCH  25  27
ATOM     26  N   UNL     1     -34.254 -71.459  49.345  0.00  0.00    +0.000 NA
ATOM     27  C   UNL     1     -34.174 -69.043  50.755  0.00  0.00    +0.000 A 
ATOM     28  C   UNL     1     -35.392 -69.525  50.287  0.00  0.00    +0.000 A 
ATOM     29  C   UNL     1     -35.376 -70.730  49.605  0.00  0.00    +0.000 A 
ATOM     30  C   UNL     1     -32.998 -69.739  50.495  0.00  0.00    +0.000 A 
ATOM     31  C   UNL     1     -33.093 -70.933  49.798  0.00  0.00    +0.000 A 
BRANCH  29  34
ATOM     32  O   UNL     1     -37.176 -72.251  49.696  0.00  0.00    +0.000 OA
ATOM     33  N   UNL     1     -37.132 -70.654  47.988  0.00  0.00    +0.000 N 
ATOM     34  C   UNL     1     -36.657 -71.303  49.115  0.00  0.00    +0.000 C 
ATOM     35  C   UNL     1     -38.307 -70.868  47.189  0.00  0.00    +0.000 C 
ATOM     36  H   UNL     1     -36.540 -69.889  47.664  0.00  0.00    +0.000 HD
ENDBRANCH  29  34
ENDBRANCH  25  27
ENDBRANCH   3  25
TORSDOF 6
ENDMDL
