MODEL 1
REMARK VINA RESULT:      -6.4      0.000      0.000
REMARK  Name = 114778_Kahweol.pdbqt.pdb
REMARK  3 active torsions:
REMARK  status: ('A' for Active; 'I' for Inactive)
REMARK    1  A    between atoms: C_8  and  O_21
REMARK    2  A    between atoms: C_8  and  C_23
REMARK    3  A    between atoms: C_23  and  O_24
REMARK                            x       y       z     vdW  Elec       q    Type
REMARK                         _______ _______ _______ _____ _____    ______ ____
ROOT
ATOM      1  O   UNL     1     -45.757 -59.759  33.583  0.00  0.00    +0.000 OA
ATOM      2  C   UNL     1     -43.568 -54.142  35.278  0.00  0.00    +0.000 C 
ATOM      3  C   UNL     1     -43.183 -55.026  34.012  0.00  0.00    +0.000 C 
ATOM      4  C   UNL     1     -42.729 -52.107  34.337  0.00  0.00    +0.000 C 
ATOM      5  C   UNL     1     -42.514 -53.099  35.404  0.00  0.00    +0.000 C 
ATOM      6  C   UNL     1     -44.661 -53.224  34.890  0.00  0.00    +0.000 C 
ATOM      7  C   UNL     1     -42.994 -56.544  34.109  0.00  0.00    +0.000 C 
ATOM      8  C   UNL     1     -44.295 -51.873  34.417  0.00  0.00    +0.000 C 
ATOM      9  C   UNL     1     -43.841 -55.007  36.396  0.00  0.00    +0.000 C 
ATOM     10  C   UNL     1     -42.584 -54.224  32.958  0.00  0.00    +0.000 C 
ATOM     11  C   UNL     1     -42.279 -52.727  33.100  0.00  0.00    +0.000 C 
ATOM     12  C   UNL     1     -43.774 -57.276  35.333  0.00  0.00    +0.000 C 
ATOM     13  C   UNL     1     -43.975 -56.494  36.492  0.00  0.00    +0.000 C 
ATOM     14  C   UNL     1     -41.476 -56.859  34.305  0.00  0.00    +0.000 C 
ATOM     15  C   UNL     1     -43.522 -57.181  32.871  0.00  0.00    +0.000 C 
ATOM     16  C   UNL     1     -44.655 -58.373  35.004  0.00  0.00    +0.000 A 
ATOM     17  C   UNL     1     -44.275 -58.079  32.620  0.00  0.00    +0.000 C 
ATOM     18  C   UNL     1     -44.884 -58.748  33.697  0.00  0.00    +0.000 A 
ATOM     19  C   UNL     1     -45.465 -59.232  35.775  0.00  0.00    +0.000 A 
ATOM     20  C   UNL     1     -46.110 -60.068  34.873  0.00  0.00    +0.000 A 
ENDROOT
BRANCH   8  21
ATOM     21  O   UNL     1     -44.597 -50.925  35.426  0.00  0.00    +0.000 OA
ATOM     22  H   UNL     1     -45.551 -51.011  35.594  0.00  0.00    +0.000 HD
ENDBRANCH   8  21
BRANCH   8  23
ATOM     23  C   UNL     1     -44.908 -51.459  33.149  0.00  0.00    +0.000 C 
BRANCH  23  24
ATOM     24  O   UNL     1     -45.449 -51.085  31.989  0.00  0.00    +0.000 OA
ATOM     25  H   UNL     1     -44.910 -50.398  31.560  0.00  0.00    +0.000 HD
ENDBRANCH  23  24
ENDBRANCH   8  23
TORSDOF 3
ENDMDL
MODEL 2
REMARK VINA RESULT:      -6.2      8.173     11.872
REMARK  Name = 114778_Kahweol.pdbqt.pdb
REMARK  3 active torsions:
REMARK  status: ('A' for Active; 'I' for Inactive)
REMARK    1  A    between atoms: C_8  and  O_21
REMARK    2  A    between atoms: C_8  and  C_23
REMARK    3  A    between atoms: C_23  and  O_24
REMARK                            x       y       z     vdW  Elec       q    Type
REMARK                         _______ _______ _______ _____ _____    ______ ____
ROOT
ATOM      1  O   UNL     1     -48.966 -61.379  36.336  0.00  0.00    +0.000 OA
ATOM      2  C   UNL     1     -44.768 -65.822  37.698  0.00  0.00    +0.000 C 
ATOM      3  C   UNL     1     -45.383 -64.702  38.646  0.00  0.00    +0.000 C 
ATOM      4  C   UNL     1     -44.045 -67.211  39.508  0.00  0.00    +0.000 C 
ATOM      5  C   UNL     1     -43.573 -66.363  38.401  0.00  0.00    +0.000 C 
ATOM      6  C   UNL     1     -45.596 -67.041  37.819  0.00  0.00    +0.000 C 
ATOM      7  C   UNL     1     -45.598 -63.261  38.168  0.00  0.00    +0.000 C 
ATOM      8  C   UNL     1     -45.187 -68.059  38.808  0.00  0.00    +0.000 C 
ATOM      9  C   UNL     1     -44.623 -65.290  36.368  0.00  0.00    +0.000 C 
ATOM     10  C   UNL     1     -45.252 -65.054  40.051  0.00  0.00    +0.000 C 
ATOM     11  C   UNL     1     -44.522 -66.308  40.546  0.00  0.00    +0.000 C 
ATOM     12  C   UNL     1     -45.763 -63.066  36.563  0.00  0.00    +0.000 C 
ATOM     13  C   UNL     1     -45.085 -64.007  35.754  0.00  0.00    +0.000 C 
ATOM     14  C   UNL     1     -44.368 -62.394  38.591  0.00  0.00    +0.000 C 
ATOM     15  C   UNL     1     -46.859 -62.734  38.759  0.00  0.00    +0.000 C 
ATOM     16  C   UNL     1     -46.943 -62.380  36.090  0.00  0.00    +0.000 A 
ATOM     17  C   UNL     1     -47.841 -62.187  38.342  0.00  0.00    +0.000 C 
ATOM     18  C   UNL     1     -47.931 -61.963  36.956  0.00  0.00    +0.000 A 
ATOM     19  C   UNL     1     -47.411 -62.024  34.809  0.00  0.00    +0.000 A 
ATOM     20  C   UNL     1     -48.639 -61.407  35.003  0.00  0.00    +0.000 A 
ENDROOT
BRANCH   8  21
ATOM     21  O   UNL     1     -44.626 -69.171  38.132  0.00  0.00    +0.000 OA
ATOM     22  H   UNL     1     -44.877 -69.069  37.199  0.00  0.00    +0.000 HD
ENDBRANCH   8  21
BRANCH   8  23
ATOM     23  C   UNL     1     -46.244 -68.516  39.719  0.00  0.00    +0.000 C 
BRANCH  23  24
ATOM     24  O   UNL     1     -47.213 -68.937  40.532  0.00  0.00    +0.000 OA
ATOM     25  H   UNL     1     -46.844 -69.276  41.367  0.00  0.00    +0.000 HD
ENDBRANCH  23  24
ENDBRANCH   8  23
TORSDOF 3
ENDMDL
MODEL 3
REMARK VINA RESULT:      -5.8     11.273     13.166
REMARK  Name = 114778_Kahweol.pdbqt.pdb
REMARK  3 active torsions:
REMARK  status: ('A' for Active; 'I' for Inactive)
REMARK    1  A    between atoms: C_8  and  O_21
REMARK    2  A    between atoms: C_8  and  C_23
REMARK    3  A    between atoms: C_23  and  O_24
REMARK                            x       y       z     vdW  Elec       q    Type
REMARK                         _______ _______ _______ _____ _____    ______ ____
ROOT
ATOM      1  O   UNL     1     -48.488 -66.364  31.510  0.00  0.00    +0.000 OA
ATOM      2  C   UNL     1     -45.212 -68.594  36.359  0.00  0.00    +0.000 C 
ATOM      3  C   UNL     1     -44.930 -67.305  35.469  0.00  0.00    +0.000 C 
ATOM      4  C   UNL     1     -43.839 -67.858  38.177  0.00  0.00    +0.000 C 
ATOM      5  C   UNL     1     -43.959 -68.870  37.114  0.00  0.00    +0.000 C 
ATOM      6  C   UNL     1     -46.021 -68.186  37.528  0.00  0.00    +0.000 C 
ATOM      7  C   UNL     1     -45.111 -67.314  33.947  0.00  0.00    +0.000 C 
ATOM      8  C   UNL     1     -45.308 -67.833  38.773  0.00  0.00    +0.000 C 
ATOM      9  C   UNL     1     -45.779 -69.627  35.532  0.00  0.00    +0.000 C 
ATOM     10  C   UNL     1     -44.068 -66.356  36.154  0.00  0.00    +0.000 C 
ATOM     11  C   UNL     1     -43.436 -66.620  37.526  0.00  0.00    +0.000 C 
ATOM     12  C   UNL     1     -46.147 -68.423  33.365  0.00  0.00    +0.000 C 
ATOM     13  C   UNL     1     -46.264 -69.614  34.118  0.00  0.00    +0.000 C 
ATOM     14  C   UNL     1     -43.732 -67.605  33.270  0.00  0.00    +0.000 C 
ATOM     15  C   UNL     1     -45.658 -66.000  33.512  0.00  0.00    +0.000 C 
ATOM     16  C   UNL     1     -47.227 -67.955  32.526  0.00  0.00    +0.000 A 
ATOM     17  C   UNL     1     -46.574 -65.632  32.832  0.00  0.00    +0.000 C 
ATOM     18  C   UNL     1     -47.417 -66.612  32.278  0.00  0.00    +0.000 A 
ATOM     19  C   UNL     1     -48.280 -68.602  31.849  0.00  0.00    +0.000 A 
ATOM     20  C   UNL     1     -49.019 -67.600  31.235  0.00  0.00    +0.000 A 
ENDROOT
BRANCH   8  21
ATOM     21  O   UNL     1     -45.471 -68.877  39.718  0.00  0.00    +0.000 OA
ATOM     22  H   UNL     1     -44.653 -68.891  40.242  0.00  0.00    +0.000 HD
ENDBRANCH   8  21
BRANCH   8  23
ATOM     23  C   UNL     1     -45.691 -66.552  39.380  0.00  0.00    +0.000 C 
BRANCH  23  24
ATOM     24  O   UNL     1     -46.031 -65.395  39.948  0.00  0.00    +0.000 OA
ATOM     25  H   UNL     1     -46.099 -64.688  39.281  0.00  0.00    +0.000 HD
ENDBRANCH  23  24
ENDBRANCH   8  23
TORSDOF 3
ENDMDL
MODEL 4
REMARK VINA RESULT:      -5.8     23.169     25.131
REMARK  Name = 114778_Kahweol.pdbqt.pdb
REMARK  3 active torsions:
REMARK  status: ('A' for Active; 'I' for Inactive)
REMARK    1  A    between atoms: C_8  and  O_21
REMARK    2  A    between atoms: C_8  and  C_23
REMARK    3  A    between atoms: C_23  and  O_24
REMARK                            x       y       z     vdW  Elec       q    Type
REMARK                         _______ _______ _______ _____ _____    ______ ____
ROOT
ATOM      1  O   UNL     1     -29.200 -53.768  49.903  0.00  0.00    +0.000 OA
ATOM      2  C   UNL     1     -30.194 -52.239  55.894  0.00  0.00    +0.000 C 
ATOM      3  C   UNL     1     -30.980 -53.280  54.983  0.00  0.00    +0.000 C 
ATOM      4  C   UNL     1     -30.973 -53.179  57.953  0.00  0.00    +0.000 C 
ATOM      5  C   UNL     1     -31.048 -51.991  57.087  0.00  0.00    +0.000 C 
ATOM      6  C   UNL     1     -29.120 -52.962  56.609  0.00  0.00    +0.000 C 
ATOM      7  C   UNL     1     -31.329 -52.979  53.521  0.00  0.00    +0.000 C 
ATOM      8  C   UNL     1     -29.417 -53.483  57.959  0.00  0.00    +0.000 C 
ATOM      9  C   UNL     1     -29.772 -51.125  55.085  0.00  0.00    +0.000 C 
ATOM     10  C   UNL     1     -31.709 -54.252  55.782  0.00  0.00    +0.000 C 
ATOM     11  C   UNL     1     -31.781 -54.207  57.314  0.00  0.00    +0.000 C 
ATOM     12  C   UNL     1     -30.377 -51.893  52.777  0.00  0.00    +0.000 C 
ATOM     13  C   UNL     1     -29.806 -50.901  53.607  0.00  0.00    +0.000 C 
ATOM     14  C   UNL     1     -32.783 -52.410  53.449  0.00  0.00    +0.000 C 
ATOM     15  C   UNL     1     -31.198 -54.228  52.721  0.00  0.00    +0.000 C 
ATOM     16  C   UNL     1     -29.745 -52.292  51.540  0.00  0.00    +0.000 A 
ATOM     17  C   UNL     1     -30.646 -54.545  51.705  0.00  0.00    +0.000 C 
ATOM     18  C   UNL     1     -29.886 -53.568  51.037  0.00  0.00    +0.000 A 
ATOM     19  C   UNL     1     -28.888 -51.637  50.632  0.00  0.00    +0.000 A 
ATOM     20  C   UNL     1     -28.589 -52.566  49.644  0.00  0.00    +0.000 A 
ENDROOT
BRANCH   8  21
ATOM     21  O   UNL     1     -28.765 -52.678  58.925  0.00  0.00    +0.000 OA
ATOM     22  H   UNL     1     -29.301 -52.746  59.733  0.00  0.00    +0.000 HD
ENDBRANCH   8  21
BRANCH   8  23
ATOM     23  C   UNL     1     -29.079 -54.895  58.180  0.00  0.00    +0.000 C 
BRANCH  23  24
ATOM     24  O   UNL     1     -28.755 -56.173  58.379  0.00  0.00    +0.000 OA
ATOM     25  H   UNL     1     -29.176 -56.745  57.713  0.00  0.00    +0.000 HD
ENDBRANCH  23  24
ENDBRANCH   8  23
TORSDOF 3
ENDMDL
MODEL 5
REMARK VINA RESULT:      -5.7     24.103     27.890
REMARK  Name = 114778_Kahweol.pdbqt.pdb
REMARK  3 active torsions:
REMARK  status: ('A' for Active; 'I' for Inactive)
REMARK    1  A    between atoms: C_8  and  O_21
REMARK    2  A    between atoms: C_8  and  C_23
REMARK    3  A    between atoms: C_23  and  O_24
REMARK                            x       y       z     vdW  Elec       q    Type
REMARK                         _______ _______ _______ _____ _____    ______ ____
ROOT
ATOM      1  O   UNL     1     -49.609 -80.658  50.055  0.00  0.00    +0.000 OA
ATOM      2  C   UNL     1     -44.584 -77.096  51.188  0.00  0.00    +0.000 C 
ATOM      3  C   UNL     1     -44.756 -78.278  50.137  0.00  0.00    +0.000 C 
ATOM      4  C   UNL     1     -42.682 -76.151  50.084  0.00  0.00    +0.000 C 
ATOM      5  C   UNL     1     -43.122 -76.844  51.306  0.00  0.00    +0.000 C 
ATOM      6  C   UNL     1     -44.916 -75.821  50.515  0.00  0.00    +0.000 C 
ATOM      7  C   UNL     1     -45.500 -79.573  50.485  0.00  0.00    +0.000 C 
ATOM      8  C   UNL     1     -43.812 -75.054  49.903  0.00  0.00    +0.000 C 
ATOM      9  C   UNL     1     -45.345 -77.399  52.372  0.00  0.00    +0.000 C 
ATOM     10  C   UNL     1     -43.771 -78.198  49.071  0.00  0.00    +0.000 C 
ATOM     11  C   UNL     1     -42.648 -77.154  49.030  0.00  0.00    +0.000 C 
ATOM     12  C   UNL     1     -46.595 -79.459  51.680  0.00  0.00    +0.000 C 
ATOM     13  C   UNL     1     -46.331 -78.484  52.669  0.00  0.00    +0.000 C 
ATOM     14  C   UNL     1     -44.463 -80.650  50.941  0.00  0.00    +0.000 C 
ATOM     15  C   UNL     1     -46.265 -80.031  49.293  0.00  0.00    +0.000 C 
ATOM     16  C   UNL     1     -47.943 -79.894  51.396  0.00  0.00    +0.000 A 
ATOM     17  C   UNL     1     -47.395 -80.366  49.074  0.00  0.00    +0.000 C 
ATOM     18  C   UNL     1     -48.312 -80.329  50.140  0.00  0.00    +0.000 A 
ATOM     19  C   UNL     1     -49.125 -79.957  52.162  0.00  0.00    +0.000 A 
ATOM     20  C   UNL     1     -50.112 -80.437  51.312  0.00  0.00    +0.000 A 
ENDROOT
BRANCH   8  21
ATOM     21  O   UNL     1     -43.528 -73.921  50.706  0.00  0.00    +0.000 OA
ATOM     22  H   UNL     1     -43.973 -74.079  51.555  0.00  0.00    +0.000 HD
ENDBRANCH   8  21
BRANCH   8  23
ATOM     23  C   UNL     1     -44.028 -74.634  48.513  0.00  0.00    +0.000 C 
BRANCH  23  24
ATOM     24  O   UNL     1     -44.242 -74.258  47.252  0.00  0.00    +0.000 OA
ATOM     25  H   UNL     1     -44.929 -74.809  46.836  0.00  0.00    +0.000 HD
ENDBRANCH  23  24
ENDBRANCH   8  23
TORSDOF 3
ENDMDL
MODEL 6
REMARK VINA RESULT:      -5.4     12.326     14.443
REMARK  Name = 114778_Kahweol.pdbqt.pdb
REMARK  3 active torsions:
REMARK  status: ('A' for Active; 'I' for Inactive)
REMARK    1  A    between atoms: C_8  and  O_21
REMARK    2  A    between atoms: C_8  and  C_23
REMARK    3  A    between atoms: C_23  and  O_24
REMARK                            x       y       z     vdW  Elec       q    Type
REMARK                         _______ _______ _______ _____ _____    ______ ____
ROOT
ATOM      1  O   UNL     1     -38.431 -62.145  39.033  0.00  0.00    +0.000 OA
ATOM      2  C   UNL     1     -33.695 -62.567  43.108  0.00  0.00    +0.000 C 
ATOM      3  C   UNL     1     -34.370 -61.266  42.490  0.00  0.00    +0.000 C 
ATOM      4  C   UNL     1     -32.715 -61.401  44.955  0.00  0.00    +0.000 C 
ATOM      5  C   UNL     1     -32.407 -62.130  43.713  0.00  0.00    +0.000 C 
ATOM      6  C   UNL     1     -34.375 -62.885  44.383  0.00  0.00    +0.000 C 
ATOM      7  C   UNL     1     -34.771 -61.182  41.013  0.00  0.00    +0.000 C 
ATOM      8  C   UNL     1     -33.797 -62.342  45.629  0.00  0.00    +0.000 C 
ATOM      9  C   UNL     1     -33.691 -63.615  42.120  0.00  0.00    +0.000 C 
ATOM     10  C   UNL     1     -34.116 -60.089  43.305  0.00  0.00    +0.000 C 
ATOM     11  C   UNL     1     -33.223 -60.097  44.552  0.00  0.00    +0.000 C 
ATOM     12  C   UNL     1     -35.054 -62.603  40.276  0.00  0.00    +0.000 C 
ATOM     13  C   UNL     1     -34.329 -63.711  40.771  0.00  0.00    +0.000 C 
ATOM     14  C   UNL     1     -33.620 -60.494  40.210  0.00  0.00    +0.000 C 
ATOM     15  C   UNL     1     -36.043 -60.418  40.894  0.00  0.00    +0.000 C 
ATOM     16  C   UNL     1     -36.330 -62.773  39.619  0.00  0.00    +0.000 A 
ATOM     17  C   UNL     1     -37.103 -60.590  40.361  0.00  0.00    +0.000 C 
ATOM     18  C   UNL     1     -37.302 -61.797  39.667  0.00  0.00    +0.000 A 
ATOM     19  C   UNL     1     -36.911 -63.829  38.887  0.00  0.00    +0.000 A 
ATOM     20  C   UNL     1     -38.186 -63.402  38.539  0.00  0.00    +0.000 A 
ENDROOT
BRANCH   8  21
ATOM     21  O   UNL     1     -33.160 -63.386  46.344  0.00  0.00    +0.000 OA
ATOM     22  H   UNL     1     -32.331 -63.566  45.870  0.00  0.00    +0.000 HD
ENDBRANCH   8  21
BRANCH   8  23
ATOM     23  C   UNL     1     -34.740 -61.642  46.511  0.00  0.00    +0.000 C 
BRANCH  23  24
ATOM     24  O   UNL     1     -35.600 -61.021  47.319  0.00  0.00    +0.000 OA
ATOM     25  H   UNL     1     -36.384 -60.719  46.827  0.00  0.00    +0.000 HD
ENDBRANCH  23  24
ENDBRANCH   8  23
TORSDOF 3
ENDMDL
MODEL 7
REMARK VINA RESULT:      -5.3      9.616     13.277
REMARK  Name = 114778_Kahweol.pdbqt.pdb
REMARK  3 active torsions:
REMARK  status: ('A' for Active; 'I' for Inactive)
REMARK    1  A    between atoms: C_8  and  O_21
REMARK    2  A    between atoms: C_8  and  C_23
REMARK    3  A    between atoms: C_23  and  O_24
REMARK                            x       y       z     vdW  Elec       q    Type
REMARK                         _______ _______ _______ _____ _____    ______ ____
ROOT
ATOM      1  O   UNL     1     -44.989 -61.790  27.554  0.00  0.00    +0.000 OA
ATOM      2  C   UNL     1     -47.037 -66.991  30.377  0.00  0.00    +0.000 C 
ATOM      3  C   UNL     1     -45.960 -66.841  29.215  0.00  0.00    +0.000 C 
ATOM      4  C   UNL     1     -46.299 -69.175  31.022  0.00  0.00    +0.000 C 
ATOM      5  C   UNL     1     -47.417 -68.429  30.420  0.00  0.00    +0.000 C 
ATOM      6  C   UNL     1     -46.328 -66.971  31.675  0.00  0.00    +0.000 C 
ATOM      7  C   UNL     1     -46.157 -65.869  28.046  0.00  0.00    +0.000 C 
ATOM      8  C   UNL     1     -45.930 -68.265  32.266  0.00  0.00    +0.000 C 
ATOM      9  C   UNL     1     -48.062 -65.995  30.206  0.00  0.00    +0.000 C 
ATOM     10  C   UNL     1     -45.088 -68.001  29.135  0.00  0.00    +0.000 C 
ATOM     11  C   UNL     1     -45.259 -69.252  30.007  0.00  0.00    +0.000 C 
ATOM     12  C   UNL     1     -47.139 -64.606  28.335  0.00  0.00    +0.000 C 
ATOM     13  C   UNL     1     -48.168 -64.827  29.278  0.00  0.00    +0.000 C 
ATOM     14  C   UNL     1     -46.781 -66.641  26.839  0.00  0.00    +0.000 C 
ATOM     15  C   UNL     1     -44.843 -65.270  27.683  0.00  0.00    +0.000 C 
ATOM     16  C   UNL     1     -46.614 -63.281  28.092  0.00  0.00    +0.000 A 
ATOM     17  C   UNL     1     -44.423 -64.161  27.509  0.00  0.00    +0.000 C 
ATOM     18  C   UNL     1     -45.308 -63.084  27.694  0.00  0.00    +0.000 A 
ATOM     19  C   UNL     1     -47.156 -61.986  28.212  0.00  0.00    +0.000 A 
ATOM     20  C   UNL     1     -46.139 -61.107  27.864  0.00  0.00    +0.000 A 
ENDROOT
BRANCH   8  21
ATOM     21  O   UNL     1     -46.781 -68.561  33.360  0.00  0.00    +0.000 OA
ATOM     22  H   UNL     1     -46.298 -68.282  34.156  0.00  0.00    +0.000 HD
ENDBRANCH   8  21
BRANCH   8  23
ATOM     23  C   UNL     1     -44.528 -68.363  32.690  0.00  0.00    +0.000 C 
BRANCH  23  24
ATOM     24  O   UNL     1     -43.249 -68.441  33.060  0.00  0.00    +0.000 OA
ATOM     25  H   UNL     1     -42.707 -67.794  32.576  0.00  0.00    +0.000 HD
ENDBRANCH  23  24
ENDBRANCH   8  23
TORSDOF 3
ENDMDL
MODEL 8
REMARK VINA RESULT:      -5.3      3.733      5.776
REMARK  Name = 114778_Kahweol.pdbqt.pdb
REMARK  3 active torsions:
REMARK  status: ('A' for Active; 'I' for Inactive)
REMARK    1  A    between atoms: C_8  and  O_21
REMARK    2  A    between atoms: C_8  and  C_23
REMARK    3  A    between atoms: C_23  and  O_24
REMARK                            x       y       z     vdW  Elec       q    Type
REMARK                         _______ _______ _______ _____ _____    ______ ____
ROOT
ATOM      1  O   UNL     1     -36.307 -57.810  36.250  0.00  0.00    +0.000 OA
ATOM      2  C   UNL     1     -40.803 -54.006  34.120  0.00  0.00    +0.000 C 
ATOM      3  C   UNL     1     -40.716 -55.593  34.045  0.00  0.00    +0.000 C 
ATOM      4  C   UNL     1     -43.168 -53.939  33.751  0.00  0.00    +0.000 C 
ATOM      5  C   UNL     1     -41.863 -53.594  33.161  0.00  0.00    +0.000 C 
ATOM      6  C   UNL     1     -41.541 -53.637  35.348  0.00  0.00    +0.000 C 
ATOM      7  C   UNL     1     -39.407 -56.320  33.717  0.00  0.00    +0.000 C 
ATOM      8  C   UNL     1     -42.999 -53.426  35.241  0.00  0.00    +0.000 C 
ATOM      9  C   UNL     1     -39.481 -53.452  33.992  0.00  0.00    +0.000 C 
ATOM     10  C   UNL     1     -42.024 -56.195  33.840  0.00  0.00    +0.000 C 
ATOM     11  C   UNL     1     -43.307 -55.383  33.626  0.00  0.00    +0.000 C 
ATOM     12  C   UNL     1     -38.042 -55.504  34.052  0.00  0.00    +0.000 C 
ATOM     13  C   UNL     1     -38.131 -54.095  33.974  0.00  0.00    +0.000 C 
ATOM     14  C   UNL     1     -39.367 -56.633  32.186  0.00  0.00    +0.000 C 
ATOM     15  C   UNL     1     -39.326 -57.568  34.525  0.00  0.00    +0.000 C 
ATOM     16  C   UNL     1     -37.067 -56.150  34.900  0.00  0.00    +0.000 A 
ATOM     17  C   UNL     1     -38.512 -58.075  35.244  0.00  0.00    +0.000 C 
ATOM     18  C   UNL     1     -37.307 -57.385  35.464  0.00  0.00    +0.000 A 
ATOM     19  C   UNL     1     -35.799 -55.770  35.384  0.00  0.00    +0.000 A 
ATOM     20  C   UNL     1     -35.365 -56.813  36.192  0.00  0.00    +0.000 A 
ENDROOT
BRANCH   8  21
ATOM     21  O   UNL     1     -43.279 -52.039  35.316  0.00  0.00    +0.000 OA
ATOM     22  H   UNL     1     -43.997 -51.878  34.681  0.00  0.00    +0.000 HD
ENDBRANCH   8  21
BRANCH   8  23
ATOM     23  C   UNL     1     -43.817 -54.150  36.223  0.00  0.00    +0.000 C 
BRANCH  23  24
ATOM     24  O   UNL     1     -44.554 -54.822  37.108  0.00  0.00    +0.000 OA
ATOM     25  H   UNL     1     -44.265 -55.750  37.166  0.00  0.00    +0.000 HD
ENDBRANCH  23  24
ENDBRANCH   8  23
TORSDOF 3
ENDMDL
MODEL 9
REMARK VINA RESULT:      -5.3     33.228     36.786
REMARK  Name = 114778_Kahweol.pdbqt.pdb
REMARK  3 active torsions:
REMARK  status: ('A' for Active; 'I' for Inactive)
REMARK    1  A    between atoms: C_8  and  O_21
REMARK    2  A    between atoms: C_8  and  C_23
REMARK    3  A    between atoms: C_23  and  O_24
REMARK                            x       y       z     vdW  Elec       q    Type
REMARK                         _______ _______ _______ _____ _____    ______ ____
ROOT
ATOM      1  O   UNL     1     -55.898 -72.568  65.536  0.00  0.00    +0.000 OA
ATOM      2  C   UNL     1     -53.117 -77.209  62.382  0.00  0.00    +0.000 C 
ATOM      3  C   UNL     1     -54.477 -76.452  62.056  0.00  0.00    +0.000 C 
ATOM      4  C   UNL     1     -52.837 -78.044  60.157  0.00  0.00    +0.000 C 
ATOM      5  C   UNL     1     -53.106 -78.441  61.549  0.00  0.00    +0.000 C 
ATOM      6  C   UNL     1     -52.017 -76.520  61.671  0.00  0.00    +0.000 C 
ATOM      7  C   UNL     1     -55.487 -76.087  63.150  0.00  0.00    +0.000 C 
ATOM      8  C   UNL     1     -51.640 -77.020  60.333  0.00  0.00    +0.000 C 
ATOM      9  C   UNL     1     -52.967 -77.321  63.810  0.00  0.00    +0.000 C 
ATOM     10  C   UNL     1     -54.848 -76.591  60.657  0.00  0.00    +0.000 C 
ATOM     11  C   UNL     1     -54.066 -77.448  59.653  0.00  0.00    +0.000 C 
ATOM     12  C   UNL     1     -54.879 -75.935  64.650  0.00  0.00    +0.000 C 
ATOM     13  C   UNL     1     -53.748 -76.730  64.941  0.00  0.00    +0.000 C 
ATOM     14  C   UNL     1     -56.579 -77.202  63.230  0.00  0.00    +0.000 C 
ATOM     15  C   UNL     1     -56.090 -74.762  62.835  0.00  0.00    +0.000 C 
ATOM     16  C   UNL     1     -55.126 -74.695  65.350  0.00  0.00    +0.000 A 
ATOM     17  C   UNL     1     -56.264 -73.734  63.427  0.00  0.00    +0.000 C 
ATOM     18  C   UNL     1     -55.794 -73.648  64.750  0.00  0.00    +0.000 A 
ATOM     19  C   UNL     1     -54.780 -74.218  66.630  0.00  0.00    +0.000 A 
ATOM     20  C   UNL     1     -55.278 -72.924  66.708  0.00  0.00    +0.000 A 
ENDROOT
BRANCH   8  21
ATOM     21  O   UNL     1     -50.410 -77.716  60.422  0.00  0.00    +0.000 OA
ATOM     22  H   UNL     1     -50.062 -77.759  59.516  0.00  0.00    +0.000 HD
ENDBRANCH   8  21
BRANCH   8  23
ATOM     23  C   UNL     1     -51.557 -76.002  59.278  0.00  0.00    +0.000 C 
BRANCH  23  24
ATOM     24  O   UNL     1     -51.464 -75.080  58.319  0.00  0.00    +0.000 OA
ATOM     25  H   UNL     1     -52.111 -75.249  57.611  0.00  0.00    +0.000 HD
ENDBRANCH  23  24
ENDBRANCH   8  23
TORSDOF 3
ENDMDL
