MODEL 1
REMARK VINA RESULT:      -4.2      0.000      0.000
REMARK  Name = 1174_Uracil.pdbqt.pdb
REMARK  0 active torsions:
REMARK  status: ('A' for Active; 'I' for Inactive)
REMARK                            x       y       z     vdW  Elec       q    Type
REMARK                         _______ _______ _______ _____ _____    ______ ____
ROOT
ATOM      1  O   UNL     1     -66.054 -65.661  40.663  0.00  0.00    +0.000 OA
ATOM      2  O   UNL     1     -62.601 -62.755  39.610  0.00  0.00    +0.000 OA
ATOM      3  N   UNL     1     -64.351 -64.170  40.191  0.00  0.00    +0.000 N 
ATOM      4  N   UNL     1     -64.628 -66.107  38.901  0.00  0.00    +0.000 N 
ATOM      5  C   UNL     1     -65.092 -65.341  39.975  0.00  0.00    +0.000 A 
ATOM      6  C   UNL     1     -63.253 -63.773  39.431  0.00  0.00    +0.000 A 
ATOM      7  C   UNL     1     -63.567 -65.710  38.178  0.00  0.00    +0.000 A 
ATOM      8  C   UNL     1     -62.951 -64.709  38.380  0.00  0.00    +0.000 A 
ATOM      9  H   UNL     1     -64.635 -63.574  40.951  0.00  0.00    +0.000 HD
ATOM     10  H   UNL     1     -65.110 -66.969  38.680  0.00  0.00    +0.000 HD
ENDROOT
TORSDOF 0
ENDMDL
MODEL 2
REMARK VINA RESULT:      -3.6     24.186     24.480
REMARK  Name = 1174_Uracil.pdbqt.pdb
REMARK  0 active torsions:
REMARK  status: ('A' for Active; 'I' for Inactive)
REMARK                            x       y       z     vdW  Elec       q    Type
REMARK                         _______ _______ _______ _____ _____    ______ ____
ROOT
ATOM      1  O   UNL     1     -43.970 -51.852  32.357  0.00  0.00    +0.000 OA
ATOM      2  O   UNL     1     -47.311 -49.186  30.566  0.00  0.00    +0.000 OA
ATOM      3  N   UNL     1     -45.617 -50.543  31.400  0.00  0.00    +0.000 N 
ATOM      4  N   UNL     1     -45.358 -50.614  33.728  0.00  0.00    +0.000 N 
ATOM      5  C   UNL     1     -44.903 -51.069  32.486  0.00  0.00    +0.000 A 
ATOM      6  C   UNL     1     -46.683 -49.651  31.505  0.00  0.00    +0.000 A 
ATOM      7  C   UNL     1     -46.387 -49.754  33.812  0.00  0.00    +0.000 A 
ATOM      8  C   UNL     1     -46.980 -49.319  32.874  0.00  0.00    +0.000 A 
ATOM      9  H   UNL     1     -45.338 -50.832  30.476  0.00  0.00    +0.000 HD
ATOM     10  H   UNL     1     -44.894 -50.948  34.563  0.00  0.00    +0.000 HD
ENDROOT
TORSDOF 0
ENDMDL
MODEL 3
REMARK VINA RESULT:      -3.5     29.111     30.000
REMARK  Name = 1174_Uracil.pdbqt.pdb
REMARK  0 active torsions:
REMARK  status: ('A' for Active; 'I' for Inactive)
REMARK                            x       y       z     vdW  Elec       q    Type
REMARK                         _______ _______ _______ _____ _____    ______ ____
ROOT
ATOM      1  O   UNL     1     -35.177 -60.033  42.943  0.00  0.00    +0.000 OA
ATOM      2  O   UNL     1     -33.535 -60.767  47.213  0.00  0.00    +0.000 OA
ATOM      3  N   UNL     1     -34.315 -60.344  45.065  0.00  0.00    +0.000 N 
ATOM      4  N   UNL     1     -35.985 -61.766  44.240  0.00  0.00    +0.000 N 
ATOM      5  C   UNL     1     -35.162 -60.663  43.993  0.00  0.00    +0.000 A 
ATOM      6  C   UNL     1     -34.268 -61.035  46.274  0.00  0.00    +0.000 A 
ATOM      7  C   UNL     1     -35.928 -62.422  45.411  0.00  0.00    +0.000 A 
ATOM      8  C   UNL     1     -35.199 -62.133  46.309  0.00  0.00    +0.000 A 
ATOM      9  H   UNL     1     -33.696 -59.558  44.951  0.00  0.00    +0.000 HD
ATOM     10  H   UNL     1     -36.626 -62.060  43.513  0.00  0.00    +0.000 HD
ENDROOT
TORSDOF 0
ENDMDL
MODEL 4
REMARK VINA RESULT:      -3.5     23.483     23.924
REMARK  Name = 1174_Uracil.pdbqt.pdb
REMARK  0 active torsions:
REMARK  status: ('A' for Active; 'I' for Inactive)
REMARK                            x       y       z     vdW  Elec       q    Type
REMARK                         _______ _______ _______ _____ _____    ______ ____
ROOT
ATOM      1  O   UNL     1     -43.238 -51.938  34.611  0.00  0.00    +0.000 OA
ATOM      2  O   UNL     1     -47.016 -49.323  34.010  0.00  0.00    +0.000 OA
ATOM      3  N   UNL     1     -45.102 -50.593  34.364  0.00  0.00    +0.000 N 
ATOM      4  N   UNL     1     -44.765 -52.429  32.948  0.00  0.00    +0.000 N 
ATOM      5  C   UNL     1     -44.280 -51.677  34.023  0.00  0.00    +0.000 A 
ATOM      6  C   UNL     1     -46.293 -50.264  33.720  0.00  0.00    +0.000 A 
ATOM      7  C   UNL     1     -45.915 -52.098  32.337  0.00  0.00    +0.000 A 
ATOM      8  C   UNL     1     -46.598 -51.171  32.645  0.00  0.00    +0.000 A 
ATOM      9  H   UNL     1     -44.808 -50.010  35.131  0.00  0.00    +0.000 HD
ATOM     10  H   UNL     1     -44.227 -53.230  32.640  0.00  0.00    +0.000 HD
ENDROOT
TORSDOF 0
ENDMDL
MODEL 5
REMARK VINA RESULT:      -3.4     23.448     24.369
REMARK  Name = 1174_Uracil.pdbqt.pdb
REMARK  0 active torsions:
REMARK  status: ('A' for Active; 'I' for Inactive)
REMARK                            x       y       z     vdW  Elec       q    Type
REMARK                         _______ _______ _______ _____ _____    ______ ____
ROOT
ATOM      1  O   UNL     1     -44.257 -51.717  32.492  0.00  0.00    +0.000 OA
ATOM      2  O   UNL     1     -41.531 -52.787  36.083  0.00  0.00    +0.000 OA
ATOM      3  N   UNL     1     -42.860 -52.193  34.271  0.00  0.00    +0.000 N 
ATOM      4  N   UNL     1     -44.656 -53.608  33.758  0.00  0.00    +0.000 N 
ATOM      5  C   UNL     1     -43.952 -52.446  33.427  0.00  0.00    +0.000 A 
ATOM      6  C   UNL     1     -42.480 -52.997  35.344  0.00  0.00    +0.000 A 
ATOM      7  C   UNL     1     -44.278 -54.372  34.796  0.00  0.00    +0.000 A 
ATOM      8  C   UNL     1     -43.345 -54.138  35.500  0.00  0.00    +0.000 A 
ATOM      9  H   UNL     1     -42.310 -51.370  34.086  0.00  0.00    +0.000 HD
ATOM     10  H   UNL     1     -45.459 -53.860  33.196  0.00  0.00    +0.000 HD
ENDROOT
TORSDOF 0
ENDMDL
MODEL 6
REMARK VINA RESULT:      -3.4     24.547     25.627
REMARK  Name = 1174_Uracil.pdbqt.pdb
REMARK  0 active torsions:
REMARK  status: ('A' for Active; 'I' for Inactive)
REMARK                            x       y       z     vdW  Elec       q    Type
REMARK                         _______ _______ _______ _____ _____    ______ ____
ROOT
ATOM      1  O   UNL     1     -64.041 -41.043  53.070  0.00  0.00    +0.000 OA
ATOM      2  O   UNL     1     -66.370 -44.142  50.529  0.00  0.00    +0.000 OA
ATOM      3  N   UNL     1     -65.219 -42.623  51.862  0.00  0.00    +0.000 N 
ATOM      4  N   UNL     1     -64.164 -40.837  50.772  0.00  0.00    +0.000 N 
ATOM      5  C   UNL     1     -64.440 -41.464  51.991  0.00  0.00    +0.000 A 
ATOM      6  C   UNL     1     -65.692 -43.133  50.654  0.00  0.00    +0.000 A 
ATOM      7  C   UNL     1     -64.628 -41.341  49.616  0.00  0.00    +0.000 A 
ATOM      8  C   UNL     1     -65.289 -42.329  49.529  0.00  0.00    +0.000 A 
ATOM      9  H   UNL     1     -65.454 -43.122  52.704  0.00  0.00    +0.000 HD
ATOM     10  H   UNL     1     -63.606 -39.992  50.781  0.00  0.00    +0.000 HD
ENDROOT
TORSDOF 0
ENDMDL
MODEL 7
REMARK VINA RESULT:      -3.3     13.851     14.750
REMARK  Name = 1174_Uracil.pdbqt.pdb
REMARK  0 active torsions:
REMARK  status: ('A' for Active; 'I' for Inactive)
REMARK                            x       y       z     vdW  Elec       q    Type
REMARK                         _______ _______ _______ _____ _____    ______ ____
ROOT
ATOM      1  O   UNL     1     -65.525 -69.558  26.336  0.00  0.00    +0.000 OA
ATOM      2  O   UNL     1     -67.976 -72.436  29.016  0.00  0.00    +0.000 OA
ATOM      3  N   UNL     1     -66.712 -70.970  27.728  0.00  0.00    +0.000 N 
ATOM      4  N   UNL     1     -67.148 -70.928  25.426  0.00  0.00    +0.000 N 
ATOM      5  C   UNL     1     -66.389 -70.413  26.482  0.00  0.00    +0.000 A 
ATOM      6  C   UNL     1     -67.687 -71.944  27.936  0.00  0.00    +0.000 A 
ATOM      7  C   UNL     1     -68.085 -71.867  25.643  0.00  0.00    +0.000 A 
ATOM      8  C   UNL     1     -68.343 -72.326  26.712  0.00  0.00    +0.000 A 
ATOM      9  H   UNL     1     -66.201 -70.641  28.531  0.00  0.00    +0.000 HD
ATOM     10  H   UNL     1     -66.975 -70.576  24.493  0.00  0.00    +0.000 HD
ENDROOT
TORSDOF 0
ENDMDL
MODEL 8
REMARK VINA RESULT:      -3.3     38.250     39.277
REMARK  Name = 1174_Uracil.pdbqt.pdb
REMARK  0 active torsions:
REMARK  status: ('A' for Active; 'I' for Inactive)
REMARK                            x       y       z     vdW  Elec       q    Type
REMARK                         _______ _______ _______ _____ _____    ______ ____
ROOT
ATOM      1  O   UNL     1     -44.916 -48.642  72.451  0.00  0.00    +0.000 OA
ATOM      2  O   UNL     1     -48.407 -50.476  70.018  0.00  0.00    +0.000 OA
ATOM      3  N   UNL     1     -46.657 -49.612  71.281  0.00  0.00    +0.000 N 
ATOM      4  N   UNL     1     -45.795 -47.534  70.624  0.00  0.00    +0.000 N 
ATOM      5  C   UNL     1     -45.720 -48.598  71.530  0.00  0.00    +0.000 A 
ATOM      6  C   UNL     1     -47.588 -49.599  70.244  0.00  0.00    +0.000 A 
ATOM      7  C   UNL     1     -46.698 -47.537  69.629  0.00  0.00    +0.000 A 
ATOM      8  C   UNL     1     -47.485 -48.411  69.437  0.00  0.00    +0.000 A 
ATOM      9  H   UNL     1     -46.656 -50.408  71.898  0.00  0.00    +0.000 HD
ATOM     10  H   UNL     1     -45.151 -46.761  70.736  0.00  0.00    +0.000 HD
ENDROOT
TORSDOF 0
ENDMDL
MODEL 9
REMARK VINA RESULT:      -3.3     36.956     37.829
REMARK  Name = 1174_Uracil.pdbqt.pdb
REMARK  0 active torsions:
REMARK  status: ('A' for Active; 'I' for Inactive)
REMARK                            x       y       z     vdW  Elec       q    Type
REMARK                         _______ _______ _______ _____ _____    ______ ____
ROOT
ATOM      1  O   UNL     1     -46.119 -45.781  68.929  0.00  0.00    +0.000 OA
ATOM      2  O   UNL     1     -47.770 -49.946  70.114  0.00  0.00    +0.000 OA
ATOM      3  N   UNL     1     -46.898 -47.860  69.574  0.00  0.00    +0.000 N 
ATOM      4  N   UNL     1     -47.801 -46.781  67.701  0.00  0.00    +0.000 N 
ATOM      5  C   UNL     1     -46.876 -46.726  68.748  0.00  0.00    +0.000 A 
ATOM      6  C   UNL     1     -47.743 -48.954  69.402  0.00  0.00    +0.000 A 
ATOM      7  C   UNL     1     -48.610 -47.843  67.548  0.00  0.00    +0.000 A 
ATOM      8  C   UNL     1     -48.611 -48.797  68.264  0.00  0.00    +0.000 A 
ATOM      9  H   UNL     1     -46.254 -47.883  70.349  0.00  0.00    +0.000 HD
ATOM     10  H   UNL     1     -47.848 -45.999  67.059  0.00  0.00    +0.000 HD
ENDROOT
TORSDOF 0
ENDMDL
