MODEL 1
REMARK VINA RESULT:      -6.0      0.000      0.000
REMARK  Name = 122180587_TripolinolateA.pdbqt.pdb
REMARK  9 active torsions:
REMARK  status: ('A' for Active; 'I' for Inactive)
REMARK    1  A    between atoms: C_1  and  O_16
REMARK    2  A    between atoms: C_2  and  O_7
REMARK    3  A    between atoms: C_3  and  C_9
REMARK    4  A    between atoms: C_10  and  C_11
REMARK    5  A    between atoms: C_11  and  O_12
REMARK    6  A    between atoms: O_12  and  C_14
REMARK    7  A    between atoms: O_16  and  C_18
REMARK    8  A    between atoms: C_18  and  C_19
REMARK    9  A    between atoms: C_19  and  C_21
REMARK                            x       y       z     vdW  Elec       q    Type
REMARK                         _______ _______ _______ _____ _____    ______ ____
ROOT
ATOM      1  C   UNL     1     -47.197 -61.956  41.797  0.00  0.00    +0.000 A 
ATOM      2  C   UNL     1     -46.880 -62.456  40.529  0.00  0.00    +0.000 A 
ATOM      3  C   UNL     1     -45.188 -63.851  41.567  0.00  0.00    +0.000 A 
ATOM      4  C   UNL     1     -46.505 -62.367  42.937  0.00  0.00    +0.000 A 
ATOM      5  C   UNL     1     -45.868 -63.415  40.430  0.00  0.00    +0.000 A 
ATOM      6  C   UNL     1     -45.503 -63.326  42.819  0.00  0.00    +0.000 A 
ENDROOT
BRANCH   2   7
ATOM      7  O   UNL     1     -47.577 -61.951  39.461  0.00  0.00    +0.000 OA
ATOM      8  C   UNL     1     -47.632 -62.774  38.329  0.00  0.00    +0.000 C 
ENDBRANCH   2   7
BRANCH   3   9
ATOM      9  C   UNL     1     -44.162 -64.834  41.446  0.00  0.00    +0.000 C 
ATOM     10  C   UNL     1     -43.297 -65.661  41.343  0.00  0.00    +0.000 C 
BRANCH  10  11
ATOM     11  C   UNL     1     -42.195 -66.716  41.207  0.00  0.00    +0.000 C 
BRANCH  11  12
ATOM     12  O   UNL     1     -41.237 -67.633  41.090  0.00  0.00    +0.000 OA
BRANCH  12  14
ATOM     13  O   UNL     1     -42.188 -68.968  42.757  0.00  0.00    +0.000 OA
ATOM     14  C   UNL     1     -41.337 -68.675  41.938  0.00  0.00    +0.000 C 
ATOM     15  C   UNL     1     -40.205 -69.644  41.860  0.00  0.00    +0.000 C 
ENDBRANCH  12  14
ENDBRANCH  11  12
ENDBRANCH  10  11
ENDBRANCH   3   9
BRANCH   1  16
ATOM     16  O   UNL     1     -48.170 -60.956  41.928  0.00  0.00    +0.000 OA
BRANCH  16  18
ATOM     17  O   UNL     1     -46.796 -59.352  42.901  0.00  0.00    +0.000 OA
ATOM     18  C   UNL     1     -47.842 -59.987  42.869  0.00  0.00    +0.000 C 
BRANCH  18  19
ATOM     19  C   UNL     1     -48.936 -59.829  43.860  0.00  0.00    +0.000 C 
ATOM     20  C   UNL     1     -50.335 -59.352  43.495  0.00  0.00    +0.000 C 
BRANCH  19  21
ATOM     21  C   UNL     1     -48.682 -60.140  45.222  0.00  0.00    +0.000 C 
ATOM     22  C   UNL     1     -48.407 -60.469  46.701  0.00  0.00    +0.000 C 
ENDBRANCH  19  21
ENDBRANCH  18  19
ENDBRANCH  16  18
ENDBRANCH   1  16
TORSDOF 9
ENDMDL
MODEL 2
REMARK VINA RESULT:      -5.7     17.120     20.294
REMARK  Name = 122180587_TripolinolateA.pdbqt.pdb
REMARK  9 active torsions:
REMARK  status: ('A' for Active; 'I' for Inactive)
REMARK    1  A    between atoms: C_1  and  O_16
REMARK    2  A    between atoms: C_2  and  O_7
REMARK    3  A    between atoms: C_3  and  C_9
REMARK    4  A    between atoms: C_10  and  C_11
REMARK    5  A    between atoms: C_11  and  O_12
REMARK    6  A    between atoms: O_12  and  C_14
REMARK    7  A    between atoms: O_16  and  C_18
REMARK    8  A    between atoms: C_18  and  C_19
REMARK    9  A    between atoms: C_19  and  C_21
REMARK                            x       y       z     vdW  Elec       q    Type
REMARK                         _______ _______ _______ _____ _____    ______ ____
ROOT
ATOM      1  C   UNL     1     -62.867 -65.591  39.945  0.00  0.00    +0.000 A 
ATOM      2  C   UNL     1     -63.610 -65.965  38.821  0.00  0.00    +0.000 A 
ATOM      3  C   UNL     1     -65.088 -67.213  40.285  0.00  0.00    +0.000 A 
ATOM      4  C   UNL     1     -63.201 -66.042  41.223  0.00  0.00    +0.000 A 
ATOM      5  C   UNL     1     -64.731 -66.779  39.008  0.00  0.00    +0.000 A 
ATOM      6  C   UNL     1     -64.323 -66.849  41.391  0.00  0.00    +0.000 A 
ENDROOT
BRANCH   2   7
ATOM      7  O   UNL     1     -63.173 -65.518  37.600  0.00  0.00    +0.000 OA
ATOM      8  C   UNL     1     -63.968 -65.873  36.503  0.00  0.00    +0.000 C 
ENDBRANCH   2   7
BRANCH   3   9
ATOM      9  C   UNL     1     -66.238 -68.039  40.457  0.00  0.00    +0.000 C 
ATOM     10  C   UNL     1     -67.207 -68.734  40.600  0.00  0.00    +0.000 C 
BRANCH  10  11
ATOM     11  C   UNL     1     -68.446 -69.617  40.782  0.00  0.00    +0.000 C 
BRANCH  11  12
ATOM     12  O   UNL     1     -69.521 -70.386  40.938  0.00  0.00    +0.000 OA
BRANCH  12  14
ATOM     13  O   UNL     1     -70.666 -69.153  42.561  0.00  0.00    +0.000 OA
ATOM     14  C   UNL     1     -70.574 -69.784  41.525  0.00  0.00    +0.000 C 
ATOM     15  C   UNL     1     -71.855 -69.912  40.771  0.00  0.00    +0.000 C 
ENDBRANCH  12  14
ENDBRANCH  11  12
ENDBRANCH  10  11
ENDBRANCH   3   9
BRANCH   1  16
ATOM     16  O   UNL     1     -61.708 -64.819  39.789  0.00  0.00    +0.000 OA
BRANCH  16  18
ATOM     17  O   UNL     1     -62.605 -62.674  39.742  0.00  0.00    +0.000 OA
ATOM     18  C   UNL     1     -61.854 -63.510  40.230  0.00  0.00    +0.000 C 
BRANCH  18  19
ATOM     19  C   UNL     1     -60.955 -63.241  41.380  0.00  0.00    +0.000 C 
ATOM     20  C   UNL     1     -61.442 -63.133  42.818  0.00  0.00    +0.000 C 
BRANCH  19  21
ATOM     21  C   UNL     1     -59.564 -63.080  41.144  0.00  0.00    +0.000 C 
ATOM     22  C   UNL     1     -58.055 -62.898  40.892  0.00  0.00    +0.000 C 
ENDBRANCH  19  21
ENDBRANCH  18  19
ENDBRANCH  16  18
ENDBRANCH   1  16
TORSDOF 9
ENDMDL
MODEL 3
REMARK VINA RESULT:      -5.6     13.562     15.459
REMARK  Name = 122180587_TripolinolateA.pdbqt.pdb
REMARK  9 active torsions:
REMARK  status: ('A' for Active; 'I' for Inactive)
REMARK    1  A    between atoms: C_1  and  O_16
REMARK    2  A    between atoms: C_2  and  O_7
REMARK    3  A    between atoms: C_3  and  C_9
REMARK    4  A    between atoms: C_10  and  C_11
REMARK    5  A    between atoms: C_11  and  O_12
REMARK    6  A    between atoms: O_12  and  C_14
REMARK    7  A    between atoms: O_16  and  C_18
REMARK    8  A    between atoms: C_18  and  C_19
REMARK    9  A    between atoms: C_19  and  C_21
REMARK                            x       y       z     vdW  Elec       q    Type
REMARK                         _______ _______ _______ _____ _____    ______ ____
ROOT
ATOM      1  C   UNL     1     -61.632 -65.527  41.110  0.00  0.00    +0.000 A 
ATOM      2  C   UNL     1     -60.312 -65.077  41.010  0.00  0.00    +0.000 A 
ATOM      3  C   UNL     1     -59.612 -67.380  40.708  0.00  0.00    +0.000 A 
ATOM      4  C   UNL     1     -61.948 -66.885  41.043  0.00  0.00    +0.000 A 
ATOM      5  C   UNL     1     -59.304 -66.023  40.802  0.00  0.00    +0.000 A 
ATOM      6  C   UNL     1     -60.931 -67.812  40.831  0.00  0.00    +0.000 A 
ENDROOT
BRANCH   2   7
ATOM      7  O   UNL     1     -60.094 -63.729  41.144  0.00  0.00    +0.000 OA
ATOM      8  C   UNL     1     -58.780 -63.301  40.914  0.00  0.00    +0.000 C 
ENDBRANCH   2   7
BRANCH   3   9
ATOM      9  C   UNL     1     -58.571 -68.330  40.490  0.00  0.00    +0.000 C 
ATOM     10  C   UNL     1     -57.693 -69.130  40.308  0.00  0.00    +0.000 C 
BRANCH  10  11
ATOM     11  C   UNL     1     -56.571 -70.147  40.079  0.00  0.00    +0.000 C 
BRANCH  11  12
ATOM     12  O   UNL     1     -55.597 -71.031  39.877  0.00  0.00    +0.000 OA
BRANCH  12  14
ATOM     13  O   UNL     1     -55.350 -72.582  38.145  0.00  0.00    +0.000 OA
ATOM     14  C   UNL     1     -55.925 -72.074  39.089  0.00  0.00    +0.000 C 
ATOM     15  C   UNL     1     -57.224 -72.722  39.433  0.00  0.00    +0.000 C 
ENDBRANCH  12  14
ENDBRANCH  11  12
ENDBRANCH  10  11
ENDBRANCH   3   9
BRANCH   1  16
ATOM     16  O   UNL     1     -62.662 -64.612  41.371  0.00  0.00    +0.000 OA
BRANCH  16  18
ATOM     17  O   UNL     1     -63.053 -62.848  39.907  0.00  0.00    +0.000 OA
ATOM     18  C   UNL     1     -63.181 -64.024  40.224  0.00  0.00    +0.000 C 
BRANCH  18  19
ATOM     19  C   UNL     1     -63.938 -65.017  39.422  0.00  0.00    +0.000 C 
ATOM     20  C   UNL     1     -63.602 -65.361  37.977  0.00  0.00    +0.000 C 
BRANCH  19  21
ATOM     21  C   UNL     1     -65.032 -65.696  40.021  0.00  0.00    +0.000 C 
ATOM     22  C   UNL     1     -66.214 -66.439  40.671  0.00  0.00    +0.000 C 
ENDBRANCH  19  21
ENDBRANCH  18  19
ENDBRANCH  16  18
ENDBRANCH   1  16
TORSDOF 9
ENDMDL
MODEL 4
REMARK VINA RESULT:      -5.5      3.656      8.032
REMARK  Name = 122180587_TripolinolateA.pdbqt.pdb
REMARK  9 active torsions:
REMARK  status: ('A' for Active; 'I' for Inactive)
REMARK    1  A    between atoms: C_1  and  O_16
REMARK    2  A    between atoms: C_2  and  O_7
REMARK    3  A    between atoms: C_3  and  C_9
REMARK    4  A    between atoms: C_10  and  C_11
REMARK    5  A    between atoms: C_11  and  O_12
REMARK    6  A    between atoms: O_12  and  C_14
REMARK    7  A    between atoms: O_16  and  C_18
REMARK    8  A    between atoms: C_18  and  C_19
REMARK    9  A    between atoms: C_19  and  C_21
REMARK                            x       y       z     vdW  Elec       q    Type
REMARK                         _______ _______ _______ _____ _____    ______ ____
ROOT
ATOM      1  C   UNL     1     -44.021 -62.852  38.874  0.00  0.00    +0.000 A 
ATOM      2  C   UNL     1     -45.386 -62.770  38.578  0.00  0.00    +0.000 A 
ATOM      3  C   UNL     1     -45.817 -62.409  40.938  0.00  0.00    +0.000 A 
ATOM      4  C   UNL     1     -43.551 -62.746  40.185  0.00  0.00    +0.000 A 
ATOM      5  C   UNL     1     -46.279 -62.541  39.629  0.00  0.00    +0.000 A 
ATOM      6  C   UNL     1     -44.455 -62.515  41.217  0.00  0.00    +0.000 A 
ENDROOT
BRANCH   2   7
ATOM      7  O   UNL     1     -45.757 -62.941  37.269  0.00  0.00    +0.000 OA
ATOM      8  C   UNL     1     -47.068 -62.561  36.955  0.00  0.00    +0.000 C 
ENDBRANCH   2   7
BRANCH   3   9
ATOM      9  C   UNL     1     -46.743 -62.171  41.996  0.00  0.00    +0.000 C 
ATOM     10  C   UNL     1     -47.522 -61.969  42.888  0.00  0.00    +0.000 C 
BRANCH  10  11
ATOM     11  C   UNL     1     -48.512 -61.711  44.028  0.00  0.00    +0.000 C 
BRANCH  11  12
ATOM     12  O   UNL     1     -49.370 -61.485  45.020  0.00  0.00    +0.000 OA
BRANCH  12  14
ATOM     13  O   UNL     1     -50.009 -59.264  45.373  0.00  0.00    +0.000 OA
ATOM     14  C   UNL     1     -49.316 -60.249  45.553  0.00  0.00    +0.000 C 
ATOM     15  C   UNL     1     -48.213 -60.049  46.536  0.00  0.00    +0.000 C 
ENDBRANCH  12  14
ENDBRANCH  11  12
ENDBRANCH  10  11
ENDBRANCH   3   9
BRANCH   1  16
ATOM     16  O   UNL     1     -43.102 -63.132  37.854  0.00  0.00    +0.000 OA
BRANCH  16  18
ATOM     17  O   UNL     1     -41.178 -61.867  38.182  0.00  0.00    +0.000 OA
ATOM     18  C   UNL     1     -42.230 -62.082  37.593  0.00  0.00    +0.000 C 
BRANCH  18  19
ATOM     19  C   UNL     1     -42.754 -61.226  36.499  0.00  0.00    +0.000 C 
ATOM     20  C   UNL     1     -43.228 -61.774  35.160  0.00  0.00    +0.000 C 
BRANCH  19  21
ATOM     21  C   UNL     1     -42.828 -59.822  36.698  0.00  0.00    +0.000 C 
ATOM     22  C   UNL     1     -42.915 -58.299  36.908  0.00  0.00    +0.000 C 
ENDBRANCH  19  21
ENDBRANCH  18  19
ENDBRANCH  16  18
ENDBRANCH   1  16
TORSDOF 9
ENDMDL
MODEL 5
REMARK VINA RESULT:      -5.5     15.909     19.145
REMARK  Name = 122180587_TripolinolateA.pdbqt.pdb
REMARK  9 active torsions:
REMARK  status: ('A' for Active; 'I' for Inactive)
REMARK    1  A    between atoms: C_1  and  O_16
REMARK    2  A    between atoms: C_2  and  O_7
REMARK    3  A    between atoms: C_3  and  C_9
REMARK    4  A    between atoms: C_10  and  C_11
REMARK    5  A    between atoms: C_11  and  O_12
REMARK    6  A    between atoms: O_12  and  C_14
REMARK    7  A    between atoms: O_16  and  C_18
REMARK    8  A    between atoms: C_18  and  C_19
REMARK    9  A    between atoms: C_19  and  C_21
REMARK                            x       y       z     vdW  Elec       q    Type
REMARK                         _______ _______ _______ _____ _____    ______ ____
ROOT
ATOM      1  C   UNL     1     -61.982 -64.987  41.208  0.00  0.00    +0.000 A 
ATOM      2  C   UNL     1     -61.784 -66.371  41.241  0.00  0.00    +0.000 A 
ATOM      3  C   UNL     1     -64.105 -66.660  40.597  0.00  0.00    +0.000 A 
ATOM      4  C   UNL     1     -63.229 -64.435  40.906  0.00  0.00    +0.000 A 
ATOM      5  C   UNL     1     -62.863 -67.202  40.926  0.00  0.00    +0.000 A 
ATOM      6  C   UNL     1     -64.290 -65.279  40.590  0.00  0.00    +0.000 A 
ENDROOT
BRANCH   2   7
ATOM      7  O   UNL     1     -60.539 -66.820  41.603  0.00  0.00    +0.000 OA
ATOM      8  C   UNL     1     -59.771 -67.375  40.572  0.00  0.00    +0.000 C 
ENDBRANCH   2   7
BRANCH   3   9
ATOM      9  C   UNL     1     -65.192 -67.524  40.273  0.00  0.00    +0.000 C 
ATOM     10  C   UNL     1     -66.109 -68.250  40.000  0.00  0.00    +0.000 C 
BRANCH  10  11
ATOM     11  C   UNL     1     -67.282 -69.173  39.653  0.00  0.00    +0.000 C 
BRANCH  11  12
ATOM     12  O   UNL     1     -68.300 -69.976  39.354  0.00  0.00    +0.000 OA
BRANCH  12  14
ATOM     13  O   UNL     1     -70.568 -69.717  39.862  0.00  0.00    +0.000 OA
ATOM     14  C   UNL     1     -69.388 -69.835  40.137  0.00  0.00    +0.000 C 
ATOM     15  C   UNL     1     -69.098 -69.819  41.600  0.00  0.00    +0.000 C 
ENDBRANCH  12  14
ENDBRANCH  11  12
ENDBRANCH  10  11
ENDBRANCH   3   9
BRANCH   1  16
ATOM     16  O   UNL     1     -60.938 -64.124  41.569  0.00  0.00    +0.000 OA
BRANCH  16  18
ATOM     17  O   UNL     1     -61.430 -64.420  43.822  0.00  0.00    +0.000 OA
ATOM     18  C   UNL     1     -60.968 -63.751  42.907  0.00  0.00    +0.000 C 
BRANCH  18  19
ATOM     19  C   UNL     1     -60.372 -62.404  43.087  0.00  0.00    +0.000 C 
ATOM     20  C   UNL     1     -60.766 -61.456  44.213  0.00  0.00    +0.000 C 
BRANCH  19  21
ATOM     21  C   UNL     1     -59.377 -61.962  42.176  0.00  0.00    +0.000 C 
ATOM     22  C   UNL     1     -58.295 -61.478  41.192  0.00  0.00    +0.000 C 
ENDBRANCH  19  21
ENDBRANCH  18  19
ENDBRANCH  16  18
ENDBRANCH   1  16
TORSDOF 9
ENDMDL
MODEL 6
REMARK VINA RESULT:      -5.5      4.021      7.607
REMARK  Name = 122180587_TripolinolateA.pdbqt.pdb
REMARK  9 active torsions:
REMARK  status: ('A' for Active; 'I' for Inactive)
REMARK    1  A    between atoms: C_1  and  O_16
REMARK    2  A    between atoms: C_2  and  O_7
REMARK    3  A    between atoms: C_3  and  C_9
REMARK    4  A    between atoms: C_10  and  C_11
REMARK    5  A    between atoms: C_11  and  O_12
REMARK    6  A    between atoms: O_12  and  C_14
REMARK    7  A    between atoms: O_16  and  C_18
REMARK    8  A    between atoms: C_18  and  C_19
REMARK    9  A    between atoms: C_19  and  C_21
REMARK                            x       y       z     vdW  Elec       q    Type
REMARK                         _______ _______ _______ _____ _____    ______ ____
ROOT
ATOM      1  C   UNL     1     -46.469 -63.590  39.966  0.00  0.00    +0.000 A 
ATOM      2  C   UNL     1     -46.057 -64.599  39.090  0.00  0.00    +0.000 A 
ATOM      3  C   UNL     1     -46.720 -63.181  37.237  0.00  0.00    +0.000 A 
ATOM      4  C   UNL     1     -47.031 -62.401  39.497  0.00  0.00    +0.000 A 
ATOM      5  C   UNL     1     -46.185 -64.376  37.716  0.00  0.00    +0.000 A 
ATOM      6  C   UNL     1     -47.147 -62.196  38.126  0.00  0.00    +0.000 A 
ENDROOT
BRANCH   2   7
ATOM      7  O   UNL     1     -45.569 -65.755  39.645  0.00  0.00    +0.000 OA
ATOM      8  C   UNL     1     -44.248 -66.078  39.311  0.00  0.00    +0.000 C 
ENDBRANCH   2   7
BRANCH   3   9
ATOM      9  C   UNL     1     -46.838 -62.970  35.832  0.00  0.00    +0.000 C 
ATOM     10  C   UNL     1     -46.936 -62.792  34.648  0.00  0.00    +0.000 C 
BRANCH  10  11
ATOM     11  C   UNL     1     -47.057 -62.565  33.137  0.00  0.00    +0.000 C 
BRANCH  11  12
ATOM     12  O   UNL     1     -47.161 -62.369  31.825  0.00  0.00    +0.000 OA
BRANCH  12  14
ATOM     13  O   UNL     1     -47.248 -60.459  30.479  0.00  0.00    +0.000 OA
ATOM     14  C   UNL     1     -46.831 -61.133  31.403  0.00  0.00    +0.000 C 
ATOM     15  C   UNL     1     -45.766 -60.470  32.211  0.00  0.00    +0.000 C 
ENDBRANCH  12  14
ENDBRANCH  11  12
ENDBRANCH  10  11
ENDBRANCH   3   9
BRANCH   1  16
ATOM     16  O   UNL     1     -46.404 -63.799  41.351  0.00  0.00    +0.000 OA
BRANCH  16  18
ATOM     17  O   UNL     1     -44.197 -63.099  41.564  0.00  0.00    +0.000 OA
ATOM     18  C   UNL     1     -45.355 -63.125  41.962  0.00  0.00    +0.000 C 
BRANCH  18  19
ATOM     19  C   UNL     1     -45.820 -62.437  43.192  0.00  0.00    +0.000 C 
ATOM     20  C   UNL     1     -45.592 -62.983  44.595  0.00  0.00    +0.000 C 
BRANCH  19  21
ATOM     21  C   UNL     1     -46.512 -61.203  43.073  0.00  0.00    +0.000 C 
ATOM     22  C   UNL     1     -47.258 -59.861  42.950  0.00  0.00    +0.000 C 
ENDBRANCH  19  21
ENDBRANCH  18  19
ENDBRANCH  16  18
ENDBRANCH   1  16
TORSDOF 9
ENDMDL
MODEL 7
REMARK VINA RESULT:      -5.3     16.821     19.952
REMARK  Name = 122180587_TripolinolateA.pdbqt.pdb
REMARK  9 active torsions:
REMARK  status: ('A' for Active; 'I' for Inactive)
REMARK    1  A    between atoms: C_1  and  O_16
REMARK    2  A    between atoms: C_2  and  O_7
REMARK    3  A    between atoms: C_3  and  C_9
REMARK    4  A    between atoms: C_10  and  C_11
REMARK    5  A    between atoms: C_11  and  O_12
REMARK    6  A    between atoms: O_12  and  C_14
REMARK    7  A    between atoms: O_16  and  C_18
REMARK    8  A    between atoms: C_18  and  C_19
REMARK    9  A    between atoms: C_19  and  C_21
REMARK                            x       y       z     vdW  Elec       q    Type
REMARK                         _______ _______ _______ _____ _____    ______ ____
ROOT
ATOM      1  C   UNL     1     -62.308 -66.513  41.456  0.00  0.00    +0.000 A 
ATOM      2  C   UNL     1     -62.381 -67.907  41.364  0.00  0.00    +0.000 A 
ATOM      3  C   UNL     1     -64.671 -67.679  40.598  0.00  0.00    +0.000 A 
ATOM      4  C   UNL     1     -63.406 -65.704  41.156  0.00  0.00    +0.000 A 
ATOM      5  C   UNL     1     -63.577 -68.480  40.924  0.00  0.00    +0.000 A 
ATOM      6  C   UNL     1     -64.587 -66.293  40.716  0.00  0.00    +0.000 A 
ENDROOT
BRANCH   2   7
ATOM      7  O   UNL     1     -61.268 -68.621  41.733  0.00  0.00    +0.000 OA
ATOM      8  C   UNL     1     -60.493 -69.123  40.680  0.00  0.00    +0.000 C 
ENDBRANCH   2   7
BRANCH   3   9
ATOM      9  C   UNL     1     -65.882 -68.282  40.146  0.00  0.00    +0.000 C 
ATOM     10  C   UNL     1     -66.902 -68.791  39.768  0.00  0.00    +0.000 C 
BRANCH  10  11
ATOM     11  C   UNL     1     -68.202 -69.443  39.287  0.00  0.00    +0.000 C 
BRANCH  11  12
ATOM     12  O   UNL     1     -69.333 -70.008  38.870  0.00  0.00    +0.000 OA
BRANCH  12  14
ATOM     13  O   UNL     1     -70.433 -69.925  40.931  0.00  0.00    +0.000 OA
ATOM     14  C   UNL     1     -70.375 -69.894  39.716  0.00  0.00    +0.000 C 
ATOM     15  C   UNL     1     -71.693 -69.694  39.047  0.00  0.00    +0.000 C 
ENDBRANCH  12  14
ENDBRANCH  11  12
ENDBRANCH  10  11
ENDBRANCH   3   9
BRANCH   1  16
ATOM     16  O   UNL     1     -61.142 -65.906  41.942  0.00  0.00    +0.000 OA
BRANCH  16  18
ATOM     17  O   UNL     1     -60.220 -65.632  39.824  0.00  0.00    +0.000 OA
ATOM     18  C   UNL     1     -60.422 -65.231  40.963  0.00  0.00    +0.000 C 
BRANCH  18  19
ATOM     19  C   UNL     1     -59.906 -63.943  41.489  0.00  0.00    +0.000 C 
ATOM     20  C   UNL     1     -58.681 -63.236  40.922  0.00  0.00    +0.000 C 
BRANCH  19  21
ATOM     21  C   UNL     1     -60.579 -63.320  42.573  0.00  0.00    +0.000 C 
ATOM     22  C   UNL     1     -61.308 -62.638  43.746  0.00  0.00    +0.000 C 
ENDBRANCH  19  21
ENDBRANCH  18  19
ENDBRANCH  16  18
ENDBRANCH   1  16
TORSDOF 9
ENDMDL
MODEL 8
REMARK VINA RESULT:      -5.3     12.867     14.836
REMARK  Name = 122180587_TripolinolateA.pdbqt.pdb
REMARK  9 active torsions:
REMARK  status: ('A' for Active; 'I' for Inactive)
REMARK    1  A    between atoms: C_1  and  O_16
REMARK    2  A    between atoms: C_2  and  O_7
REMARK    3  A    between atoms: C_3  and  C_9
REMARK    4  A    between atoms: C_10  and  C_11
REMARK    5  A    between atoms: C_11  and  O_12
REMARK    6  A    between atoms: O_12  and  C_14
REMARK    7  A    between atoms: O_16  and  C_18
REMARK    8  A    between atoms: C_18  and  C_19
REMARK    9  A    between atoms: C_19  and  C_21
REMARK                            x       y       z     vdW  Elec       q    Type
REMARK                         _______ _______ _______ _____ _____    ______ ____
ROOT
ATOM      1  C   UNL     1     -61.120 -64.383  40.700  0.00  0.00    +0.000 A 
ATOM      2  C   UNL     1     -59.747 -64.306  40.956  0.00  0.00    +0.000 A 
ATOM      3  C   UNL     1     -59.618 -66.712  40.670  0.00  0.00    +0.000 A 
ATOM      4  C   UNL     1     -61.750 -65.606  40.463  0.00  0.00    +0.000 A 
ATOM      5  C   UNL     1     -59.002 -65.488  40.932  0.00  0.00    +0.000 A 
ATOM      6  C   UNL     1     -60.991 -66.772  40.439  0.00  0.00    +0.000 A 
ENDROOT
BRANCH   2   7
ATOM      7  O   UNL     1     -59.226 -63.068  41.234  0.00  0.00    +0.000 OA
ATOM      8  C   UNL     1     -57.876 -62.890  40.909  0.00  0.00    +0.000 C 
ENDBRANCH   2   7
BRANCH   3   9
ATOM      9  C   UNL     1     -58.840 -67.907  40.645  0.00  0.00    +0.000 C 
ATOM     10  C   UNL     1     -58.185 -68.913  40.625  0.00  0.00    +0.000 C 
BRANCH  10  11
ATOM     11  C   UNL     1     -57.347 -70.195  40.603  0.00  0.00    +0.000 C 
BRANCH  11  12
ATOM     12  O   UNL     1     -56.620 -71.310  40.584  0.00  0.00    +0.000 OA
BRANCH  12  14
ATOM     13  O   UNL     1     -57.095 -73.599  40.651  0.00  0.00    +0.000 OA
ATOM     14  C   UNL     1     -57.282 -72.430  40.935  0.00  0.00    +0.000 C 
ATOM     15  C   UNL     1     -58.452 -72.199  41.831  0.00  0.00    +0.000 C 
ENDBRANCH  12  14
ENDBRANCH  11  12
ENDBRANCH  10  11
ENDBRANCH   3   9
BRANCH   1  16
ATOM     16  O   UNL     1     -61.907 -63.225  40.767  0.00  0.00    +0.000 OA
BRANCH  16  18
ATOM     17  O   UNL     1     -64.212 -63.333  41.064  0.00  0.00    +0.000 OA
ATOM     18  C   UNL     1     -63.071 -63.392  41.507  0.00  0.00    +0.000 C 
BRANCH  18  19
ATOM     19  C   UNL     1     -62.753 -63.640  42.935  0.00  0.00    +0.000 C 
ATOM     20  C   UNL     1     -63.382 -64.759  43.753  0.00  0.00    +0.000 C 
BRANCH  19  21
ATOM     21  C   UNL     1     -61.809 -62.802  43.586  0.00  0.00    +0.000 C 
ATOM     22  C   UNL     1     -60.791 -61.887  44.293  0.00  0.00    +0.000 C 
ENDBRANCH  19  21
ENDBRANCH  18  19
ENDBRANCH  16  18
ENDBRANCH   1  16
TORSDOF 9
ENDMDL
MODEL 9
REMARK VINA RESULT:      -5.1     22.029     23.953
REMARK  Name = 122180587_TripolinolateA.pdbqt.pdb
REMARK  9 active torsions:
REMARK  status: ('A' for Active; 'I' for Inactive)
REMARK    1  A    between atoms: C_1  and  O_16
REMARK    2  A    between atoms: C_2  and  O_7
REMARK    3  A    between atoms: C_3  and  C_9
REMARK    4  A    between atoms: C_10  and  C_11
REMARK    5  A    between atoms: C_11  and  O_12
REMARK    6  A    between atoms: O_12  and  C_14
REMARK    7  A    between atoms: O_16  and  C_18
REMARK    8  A    between atoms: C_18  and  C_19
REMARK    9  A    between atoms: C_19  and  C_21
REMARK                            x       y       z     vdW  Elec       q    Type
REMARK                         _______ _______ _______ _____ _____    ______ ____
ROOT
ATOM      1  C   UNL     1     -32.181 -52.763  54.610  0.00  0.00    +0.000 A 
ATOM      2  C   UNL     1     -30.808 -53.027  54.635  0.00  0.00    +0.000 A 
ATOM      3  C   UNL     1     -30.864 -52.785  57.048  0.00  0.00    +0.000 A 
ATOM      4  C   UNL     1     -32.891 -52.481  55.778  0.00  0.00    +0.000 A 
ATOM      5  C   UNL     1     -30.158 -53.040  55.872  0.00  0.00    +0.000 A 
ATOM      6  C   UNL     1     -32.228 -52.502  57.002  0.00  0.00    +0.000 A 
ENDROOT
BRANCH   2   7
ATOM      7  O   UNL     1     -30.185 -53.238  53.431  0.00  0.00    +0.000 OA
ATOM      8  C   UNL     1     -29.893 -54.573  53.124  0.00  0.00    +0.000 C 
ENDBRANCH   2   7
BRANCH   3   9
ATOM      9  C   UNL     1     -30.185 -52.807  58.302  0.00  0.00    +0.000 C 
ATOM     10  C   UNL     1     -29.612 -52.826  59.357  0.00  0.00    +0.000 C 
BRANCH  10  11
ATOM     11  C   UNL     1     -28.879 -52.854  60.702  0.00  0.00    +0.000 C 
BRANCH  11  12
ATOM     12  O   UNL     1     -28.242 -52.880  61.870  0.00  0.00    +0.000 OA
BRANCH  12  14
ATOM     13  O   UNL     1     -29.676 -51.859  63.409  0.00  0.00    +0.000 OA
ATOM     14  C   UNL     1     -29.035 -52.789  62.956  0.00  0.00    +0.000 C 
ATOM     15  C   UNL     1     -29.150 -54.051  63.743  0.00  0.00    +0.000 C 
ENDBRANCH  12  14
ENDBRANCH  11  12
ENDBRANCH  10  11
ENDBRANCH   3   9
BRANCH   1  16
ATOM     16  O   UNL     1     -32.855 -52.691  53.383  0.00  0.00    +0.000 OA
BRANCH  16  18
ATOM     17  O   UNL     1     -34.501 -51.049  53.382  0.00  0.00    +0.000 OA
ATOM     18  C   UNL     1     -33.370 -51.430  53.109  0.00  0.00    +0.000 C 
BRANCH  18  19
ATOM     19  C   UNL     1     -32.361 -50.592  52.416  0.00  0.00    +0.000 C 
ATOM     20  C   UNL     1     -31.483 -49.573  53.130  0.00  0.00    +0.000 C 
BRANCH  19  21
ATOM     21  C   UNL     1     -32.189 -50.739  51.014  0.00  0.00    +0.000 C 
ATOM     22  C   UNL     1     -32.010 -50.897  49.492  0.00  0.00    +0.000 C 
ENDBRANCH  19  21
ENDBRANCH  18  19
ENDBRANCH  16  18
ENDBRANCH   1  16
TORSDOF 9
ENDMDL
