MODEL 1
REMARK VINA RESULT:      -6.4      0.000      0.000
REMARK  Name = 122178712_SalternamideA.pdbqt.pdb
REMARK  8 active torsions:
REMARK  status: ('A' for Active; 'I' for Inactive)
REMARK    1  A    between atoms: C_3  and  O_24
REMARK    2  A    between atoms: C_3  and  C_26
REMARK    3  A    between atoms: C_6  and  N_10
REMARK    4  A    between atoms: C_11  and  C_14
REMARK    5  A    between atoms: C_13  and  C_15
REMARK    6  A    between atoms: C_27  and  C_28
REMARK    7  A    between atoms: C_29  and  C_31
REMARK    8  A    between atoms: C_31  and  O_32
REMARK                            x       y       z     vdW  Elec       q    Type
REMARK                         _______ _______ _______ _____ _____    ______ ____
ROOT
ATOM      1 CL   UNL     1     -36.487 -73.269  43.135  0.00  0.00    +0.000 Cl
ATOM      2  O   UNL     1     -37.730 -74.543  45.738  0.00  0.00    +0.000 OA
ATOM      3  C   UNL     1     -38.899 -70.488  44.874  0.00  0.00    +0.000 C 
ATOM      4  C   UNL     1     -39.306 -71.411  45.946  0.00  0.00    +0.000 C 
ATOM      5  C   UNL     1     -37.960 -71.377  44.170  0.00  0.00    +0.000 C 
ATOM      6  C   UNL     1     -39.048 -72.624  46.343  0.00  0.00    +0.000 C 
ATOM      7  C   UNL     1     -37.499 -72.586  44.309  0.00  0.00    +0.000 C 
ATOM      8  C   UNL     1     -38.038 -73.387  45.478  0.00  0.00    +0.000 C 
ENDROOT
BRANCH   6  10
ATOM      9  O   UNL     1     -38.231 -72.498  49.147  0.00  0.00    +0.000 OA
ATOM     10  N   UNL     1     -39.595 -73.256  47.429  0.00  0.00    +0.000 N 
ATOM     11  C   UNL     1     -39.171 -73.160  48.731  0.00  0.00    +0.000 C 
ATOM     12  H   UNL     1     -40.395 -73.852  47.225  0.00  0.00    +0.000 HD
BRANCH  11  14
ATOM     13  C   UNL     1     -40.572 -74.575  50.472  0.00  0.00    +0.000 C 
ATOM     14  C   UNL     1     -39.940 -73.935  49.676  0.00  0.00    +0.000 C 
BRANCH  13  15
ATOM     15  C   UNL     1     -41.318 -75.323  51.416  0.00  0.00    +0.000 C 
ATOM     16  C   UNL     1     -40.594 -75.875  52.612  0.00  0.00    +0.000 C 
ATOM     17  C   UNL     1     -42.686 -75.635  51.294  0.00  0.00    +0.000 C 
ATOM     18  C   UNL     1     -44.055 -75.952  51.187  0.00  0.00    +0.000 C 
ATOM     19  C   UNL     1     -44.887 -75.125  50.251  0.00  0.00    +0.000 C 
ATOM     20  C   UNL     1     -44.688 -77.000  51.875  0.00  0.00    +0.000 C 
ATOM     21  C   UNL     1     -45.270 -77.966  52.501  0.00  0.00    +0.000 C 
ATOM     22  C   UNL     1     -45.833 -77.725  53.867  0.00  0.00    +0.000 C 
ATOM     23  C   UNL     1     -45.077 -79.370  52.016  0.00  0.00    +0.000 C 
ENDBRANCH  13  15
ENDBRANCH  11  14
ENDBRANCH   6  10
BRANCH   3  24
ATOM     24  O   UNL     1     -38.184 -69.406  45.434  0.00  0.00    +0.000 OA
ATOM     25  H   UNL     1     -37.910 -69.698  46.320  0.00  0.00    +0.000 HD
ENDBRANCH   3  24
BRANCH   3  26
ATOM     26  C   UNL     1     -39.998 -70.002  44.048  0.00  0.00    +0.000 C 
ATOM     27  C   UNL     1     -41.148 -69.488  43.178  0.00  0.00    +0.000 C 
BRANCH  27  28
ATOM     28  C   UNL     1     -42.295 -68.972  42.305  0.00  0.00    +0.000 C 
ATOM     29  C   UNL     1     -43.442 -68.457  41.429  0.00  0.00    +0.000 C 
BRANCH  29  31
ATOM     30  O   UNL     1     -44.632 -66.813  40.272  0.00  0.00    +0.000 OA
ATOM     31  C   UNL     1     -44.514 -67.977  40.612  0.00  0.00    +0.000 C 
BRANCH  31  32
ATOM     32  O   UNL     1     -45.392 -68.929  40.246  0.00  0.00    +0.000 OA
ATOM     33  H   UNL     1     -45.212 -69.054  39.292  0.00  0.00    +0.000 HD
ENDBRANCH  31  32
ENDBRANCH  29  31
ENDBRANCH  27  28
ENDBRANCH   3  26
TORSDOF 8
ENDMDL
MODEL 2
REMARK VINA RESULT:      -5.8     10.109     13.093
REMARK  Name = 122178712_SalternamideA.pdbqt.pdb
REMARK  8 active torsions:
REMARK  status: ('A' for Active; 'I' for Inactive)
REMARK    1  A    between atoms: C_3  and  O_24
REMARK    2  A    between atoms: C_3  and  C_26
REMARK    3  A    between atoms: C_6  and  N_10
REMARK    4  A    between atoms: C_11  and  C_14
REMARK    5  A    between atoms: C_13  and  C_15
REMARK    6  A    between atoms: C_27  and  C_28
REMARK    7  A    between atoms: C_29  and  C_31
REMARK    8  A    between atoms: C_31  and  O_32
REMARK                            x       y       z     vdW  Elec       q    Type
REMARK                         _______ _______ _______ _____ _____    ______ ____
ROOT
ATOM      1 CL   UNL     1     -42.118 -80.457  51.806  0.00  0.00    +0.000 Cl
ATOM      2  O   UNL     1     -42.007 -79.477  54.801  0.00  0.00    +0.000 OA
ATOM      3  C   UNL     1     -45.397 -78.147  52.499  0.00  0.00    +0.000 C 
ATOM      4  C   UNL     1     -45.039 -77.942  53.912  0.00  0.00    +0.000 C 
ATOM      5  C   UNL     1     -44.235 -78.957  52.099  0.00  0.00    +0.000 C 
ATOM      6  C   UNL     1     -44.079 -78.256  54.734  0.00  0.00    +0.000 C 
ATOM      7  C   UNL     1     -43.151 -79.416  52.653  0.00  0.00    +0.000 C 
ATOM      8  C   UNL     1     -42.955 -79.102  54.123  0.00  0.00    +0.000 C 
ENDROOT
BRANCH   6  10
ATOM      9  O   UNL     1     -42.664 -76.016  55.968  0.00  0.00    +0.000 OA
ATOM     10  N   UNL     1     -43.999 -77.912  56.058  0.00  0.00    +0.000 N 
ATOM     11  C   UNL     1     -43.318 -76.843  56.585  0.00  0.00    +0.000 C 
ATOM     12  H   UNL     1     -44.502 -78.526  56.696  0.00  0.00    +0.000 HD
BRANCH  11  14
ATOM     13  C   UNL     1     -43.479 -76.624  59.217  0.00  0.00    +0.000 C 
ATOM     14  C   UNL     1     -43.410 -76.717  58.021  0.00  0.00    +0.000 C 
BRANCH  13  15
ATOM     15  C   UNL     1     -43.552 -76.517  60.627  0.00  0.00    +0.000 C 
ATOM     16  C   UNL     1     -44.799 -77.004  61.310  0.00  0.00    +0.000 C 
ATOM     17  C   UNL     1     -42.560 -75.937  61.442  0.00  0.00    +0.000 C 
ATOM     18  C   UNL     1     -41.574 -75.362  62.269  0.00  0.00    +0.000 C 
ATOM     19  C   UNL     1     -40.191 -75.223  61.705  0.00  0.00    +0.000 C 
ATOM     20  C   UNL     1     -41.802 -74.890  63.573  0.00  0.00    +0.000 C 
ATOM     21  C   UNL     1     -42.010 -74.450  64.766  0.00  0.00    +0.000 C 
ATOM     22  C   UNL     1     -41.884 -75.386  65.928  0.00  0.00    +0.000 C 
ATOM     23  C   UNL     1     -42.695 -73.131  64.949  0.00  0.00    +0.000 C 
ENDBRANCH  13  15
ENDBRANCH  11  14
ENDBRANCH   6  10
BRANCH   3  24
ATOM     24  O   UNL     1     -45.355 -76.908  51.822  0.00  0.00    +0.000 OA
ATOM     25  H   UNL     1     -45.960 -76.997  51.065  0.00  0.00    +0.000 HD
ENDBRANCH   3  24
BRANCH   3  26
ATOM     26  C   UNL     1     -46.683 -78.800  52.291  0.00  0.00    +0.000 C 
ATOM     27  C   UNL     1     -48.033 -79.491  52.075  0.00  0.00    +0.000 C 
BRANCH  27  28
ATOM     28  C   UNL     1     -49.380 -80.186  51.861  0.00  0.00    +0.000 C 
ATOM     29  C   UNL     1     -50.727 -80.883  51.645  0.00  0.00    +0.000 C 
BRANCH  29  31
ATOM     30  O   UNL     1     -52.110 -82.585  50.837  0.00  0.00    +0.000 OA
ATOM     31  C   UNL     1     -51.985 -81.534  51.443  0.00  0.00    +0.000 C 
BRANCH  31  32
ATOM     32  O   UNL     1     -53.031 -80.884  51.983  0.00  0.00    +0.000 OA
ATOM     33  H   UNL     1     -53.748 -81.551  51.975  0.00  0.00    +0.000 HD
ENDBRANCH  31  32
ENDBRANCH  29  31
ENDBRANCH  27  28
ENDBRANCH   3  26
TORSDOF 8
ENDMDL
MODEL 3
REMARK VINA RESULT:      -5.4     33.947     42.255
REMARK  Name = 122178712_SalternamideA.pdbqt.pdb
REMARK  8 active torsions:
REMARK  status: ('A' for Active; 'I' for Inactive)
REMARK    1  A    between atoms: C_3  and  O_24
REMARK    2  A    between atoms: C_3  and  C_26
REMARK    3  A    between atoms: C_6  and  N_10
REMARK    4  A    between atoms: C_11  and  C_14
REMARK    5  A    between atoms: C_13  and  C_15
REMARK    6  A    between atoms: C_27  and  C_28
REMARK    7  A    between atoms: C_29  and  C_31
REMARK    8  A    between atoms: C_31  and  O_32
REMARK                            x       y       z     vdW  Elec       q    Type
REMARK                         _______ _______ _______ _____ _____    ______ ____
ROOT
ATOM      1 CL   UNL     1     -54.419 -47.107  17.091  0.00  0.00    +0.000 Cl
ATOM      2  O   UNL     1     -55.882 -44.553  18.222  0.00  0.00    +0.000 OA
ATOM      3  C   UNL     1     -55.484 -47.866  20.946  0.00  0.00    +0.000 C 
ATOM      4  C   UNL     1     -56.048 -46.518  21.128  0.00  0.00    +0.000 C 
ATOM      5  C   UNL     1     -55.088 -47.744  19.534  0.00  0.00    +0.000 C 
ATOM      6  C   UNL     1     -56.248 -45.439  20.428  0.00  0.00    +0.000 C 
ATOM      7  C   UNL     1     -55.151 -46.845  18.596  0.00  0.00    +0.000 C 
ATOM      8  C   UNL     1     -55.767 -45.512  18.974  0.00  0.00    +0.000 C 
ENDROOT
BRANCH   6  10
ATOM      9  O   UNL     1     -59.018 -44.542  20.162  0.00  0.00    +0.000 OA
ATOM     10  N   UNL     1     -56.824 -44.278  20.874  0.00  0.00    +0.000 N 
ATOM     11  C   UNL     1     -58.137 -43.906  20.722  0.00  0.00    +0.000 C 
ATOM     12  H   UNL     1     -56.196 -43.643  21.363  0.00  0.00    +0.000 HD
BRANCH  11  14
ATOM     13  C   UNL     1     -58.745 -41.563  21.789  0.00  0.00    +0.000 C 
ATOM     14  C   UNL     1     -58.472 -42.625  21.298  0.00  0.00    +0.000 C 
BRANCH  13  15
ATOM     15  C   UNL     1     -59.060 -40.311  22.372  0.00  0.00    +0.000 C 
ATOM     16  C   UNL     1     -57.988 -39.605  23.155  0.00  0.00    +0.000 C 
ATOM     17  C   UNL     1     -60.325 -39.695  22.318  0.00  0.00    +0.000 C 
ATOM     18  C   UNL     1     -61.586 -39.065  22.269  0.00  0.00    +0.000 C 
ATOM     19  C   UNL     1     -62.545 -39.518  21.209  0.00  0.00    +0.000 C 
ATOM     20  C   UNL     1     -62.013 -38.064  23.157  0.00  0.00    +0.000 C 
ATOM     21  C   UNL     1     -62.409 -37.150  23.975  0.00  0.00    +0.000 C 
ATOM     22  C   UNL     1     -62.115 -35.713  23.671  0.00  0.00    +0.000 C 
ATOM     23  C   UNL     1     -62.844 -37.542  25.353  0.00  0.00    +0.000 C 
ENDBRANCH  13  15
ENDBRANCH  11  14
ENDBRANCH   6  10
BRANCH   3  24
ATOM     24  O   UNL     1     -56.517 -48.824  21.058  0.00  0.00    +0.000 OA
ATOM     25  H   UNL     1     -56.988 -48.808  20.207  0.00  0.00    +0.000 HD
ENDBRANCH   3  24
BRANCH   3  26
ATOM     26  C   UNL     1     -54.388 -48.188  21.852  0.00  0.00    +0.000 C 
ATOM     27  C   UNL     1     -53.236 -48.532  22.800  0.00  0.00    +0.000 C 
BRANCH  27  28
ATOM     28  C   UNL     1     -52.083 -48.879  23.746  0.00  0.00    +0.000 C 
ATOM     29  C   UNL     1     -50.932 -49.226  24.696  0.00  0.00    +0.000 C 
BRANCH  29  31
ATOM     30  O   UNL     1     -48.761 -49.926  25.203  0.00  0.00    +0.000 OA
ATOM     31  C   UNL     1     -49.857 -49.552  25.582  0.00  0.00    +0.000 C 
BRANCH  31  32
ATOM     32  O   UNL     1     -50.160 -49.409  26.885  0.00  0.00    +0.000 OA
ATOM     33  H   UNL     1     -51.093 -49.110  26.874  0.00  0.00    +0.000 HD
ENDBRANCH  31  32
ENDBRANCH  29  31
ENDBRANCH  27  28
ENDBRANCH   3  26
TORSDOF 8
ENDMDL
MODEL 4
REMARK VINA RESULT:      -5.3     15.006     19.860
REMARK  Name = 122178712_SalternamideA.pdbqt.pdb
REMARK  8 active torsions:
REMARK  status: ('A' for Active; 'I' for Inactive)
REMARK    1  A    between atoms: C_3  and  O_24
REMARK    2  A    between atoms: C_3  and  C_26
REMARK    3  A    between atoms: C_6  and  N_10
REMARK    4  A    between atoms: C_11  and  C_14
REMARK    5  A    between atoms: C_13  and  C_15
REMARK    6  A    between atoms: C_27  and  C_28
REMARK    7  A    between atoms: C_29  and  C_31
REMARK    8  A    between atoms: C_31  and  O_32
REMARK                            x       y       z     vdW  Elec       q    Type
REMARK                         _______ _______ _______ _____ _____    ______ ____
ROOT
ATOM      1 CL   UNL     1     -42.310 -59.087  27.195  0.00  0.00    +0.000 Cl
ATOM      2  O   UNL     1     -42.585 -59.270  30.331  0.00  0.00    +0.000 OA
ATOM      3  C   UNL     1     -45.625 -61.292  28.044  0.00  0.00    +0.000 C 
ATOM      4  C   UNL     1     -45.396 -61.203  29.496  0.00  0.00    +0.000 C 
ATOM      5  C   UNL     1     -44.487 -60.473  27.597  0.00  0.00    +0.000 C 
ATOM      6  C   UNL     1     -44.560 -60.643  30.322  0.00  0.00    +0.000 C 
ATOM      7  C   UNL     1     -43.517 -59.800  28.145  0.00  0.00    +0.000 C 
ATOM      8  C   UNL     1     -43.444 -59.827  29.659  0.00  0.00    +0.000 C 
ENDROOT
BRANCH   6  10
ATOM      9  O   UNL     1     -45.158 -58.561  32.284  0.00  0.00    +0.000 OA
ATOM     10  N   UNL     1     -44.589 -60.731  31.689  0.00  0.00    +0.000 N 
ATOM     11  C   UNL     1     -44.879 -59.717  32.568  0.00  0.00    +0.000 C 
ATOM     12  H   UNL     1     -44.369 -61.650  32.069  0.00  0.00    +0.000 HD
BRANCH  11  14
ATOM     13  C   UNL     1     -44.804 -60.396  35.123  0.00  0.00    +0.000 C 
ATOM     14  C   UNL     1     -44.841 -60.095  33.961  0.00  0.00    +0.000 C 
BRANCH  13  15
ATOM     15  C   UNL     1     -44.763 -60.745  36.495  0.00  0.00    +0.000 C 
ATOM     16  C   UNL     1     -43.531 -60.391  37.279  0.00  0.00    +0.000 C 
ATOM     17  C   UNL     1     -45.775 -61.449  37.176  0.00  0.00    +0.000 C 
ATOM     18  C   UNL     1     -46.782 -62.151  37.871  0.00  0.00    +0.000 C 
ATOM     19  C   UNL     1     -48.152 -62.181  37.261  0.00  0.00    +0.000 C 
ATOM     20  C   UNL     1     -46.586 -62.841  39.078  0.00  0.00    +0.000 C 
ATOM     21  C   UNL     1     -46.406 -63.481  40.183  0.00  0.00    +0.000 C 
ATOM     22  C   UNL     1     -46.556 -62.758  41.485  0.00  0.00    +0.000 C 
ATOM     23  C   UNL     1     -45.729 -64.817  40.151  0.00  0.00    +0.000 C 
ENDBRANCH  13  15
ENDBRANCH  11  14
ENDBRANCH   6  10
BRANCH   3  24
ATOM     24  O   UNL     1     -46.830 -60.630  27.720  0.00  0.00    +0.000 OA
ATOM     25  H   UNL     1     -46.863 -60.597  26.748  0.00  0.00    +0.000 HD
ENDBRANCH   3  24
BRANCH   3  26
ATOM     26  C   UNL     1     -45.630 -62.651  27.517  0.00  0.00    +0.000 C 
ATOM     27  C   UNL     1     -45.635 -64.076  26.957  0.00  0.00    +0.000 C 
BRANCH  27  28
ATOM     28  C   UNL     1     -45.638 -65.500  26.394  0.00  0.00    +0.000 C 
ATOM     29  C   UNL     1     -45.641 -66.923  25.827  0.00  0.00    +0.000 C 
BRANCH  29  31
ATOM     30  O   UNL     1     -45.484 -68.508  24.117  0.00  0.00    +0.000 OA
ATOM     31  C   UNL     1     -45.642 -68.253  25.298  0.00  0.00    +0.000 C 
BRANCH  31  32
ATOM     32  O   UNL     1     -45.836 -69.210  26.224  0.00  0.00    +0.000 OA
ATOM     33  H   UNL     1     -44.930 -69.425  26.526  0.00  0.00    +0.000 HD
ENDBRANCH  31  32
ENDBRANCH  29  31
ENDBRANCH  27  28
ENDBRANCH   3  26
TORSDOF 8
ENDMDL
MODEL 5
REMARK VINA RESULT:      -5.3     33.976     41.947
REMARK  Name = 122178712_SalternamideA.pdbqt.pdb
REMARK  8 active torsions:
REMARK  status: ('A' for Active; 'I' for Inactive)
REMARK    1  A    between atoms: C_3  and  O_24
REMARK    2  A    between atoms: C_3  and  C_26
REMARK    3  A    between atoms: C_6  and  N_10
REMARK    4  A    between atoms: C_11  and  C_14
REMARK    5  A    between atoms: C_13  and  C_15
REMARK    6  A    between atoms: C_27  and  C_28
REMARK    7  A    between atoms: C_29  and  C_31
REMARK    8  A    between atoms: C_31  and  O_32
REMARK                            x       y       z     vdW  Elec       q    Type
REMARK                         _______ _______ _______ _____ _____    ______ ____
ROOT
ATOM      1 CL   UNL     1     -54.497 -47.225  17.053  0.00  0.00    +0.000 Cl
ATOM      2  O   UNL     1     -55.981 -44.680  18.176  0.00  0.00    +0.000 OA
ATOM      3  C   UNL     1     -55.532 -47.972  20.919  0.00  0.00    +0.000 C 
ATOM      4  C   UNL     1     -56.110 -46.629  21.095  0.00  0.00    +0.000 C 
ATOM      5  C   UNL     1     -55.145 -47.854  19.503  0.00  0.00    +0.000 C 
ATOM      6  C   UNL     1     -56.325 -45.556  20.390  0.00  0.00    +0.000 C 
ATOM      7  C   UNL     1     -55.224 -46.962  18.560  0.00  0.00    +0.000 C 
ATOM      8  C   UNL     1     -55.852 -45.633  18.933  0.00  0.00    +0.000 C 
ENDROOT
BRANCH   6  10
ATOM      9  O   UNL     1     -59.087 -44.656  20.066  0.00  0.00    +0.000 OA
ATOM     10  N   UNL     1     -56.911 -44.399  20.832  0.00  0.00    +0.000 N 
ATOM     11  C   UNL     1     -58.220 -44.025  20.652  0.00  0.00    +0.000 C 
ATOM     12  H   UNL     1     -56.295 -43.768  21.340  0.00  0.00    +0.000 HD
BRANCH  11  14
ATOM     13  C   UNL     1     -58.866 -41.684  21.702  0.00  0.00    +0.000 C 
ATOM     14  C   UNL     1     -58.568 -42.749  21.231  0.00  0.00    +0.000 C 
BRANCH  13  15
ATOM     15  C   UNL     1     -59.225 -40.430  22.254  0.00  0.00    +0.000 C 
ATOM     16  C   UNL     1     -60.571 -39.861  21.903  0.00  0.00    +0.000 C 
ATOM     17  C   UNL     1     -58.390 -39.644  23.072  0.00  0.00    +0.000 C 
ATOM     18  C   UNL     1     -57.567 -38.849  23.895  0.00  0.00    +0.000 C 
ATOM     19  C   UNL     1     -56.410 -39.521  24.574  0.00  0.00    +0.000 C 
ATOM     20  C   UNL     1     -57.740 -37.470  24.103  0.00  0.00    +0.000 C 
ATOM     21  C   UNL     1     -57.893 -36.204  24.290  0.00  0.00    +0.000 C 
ATOM     22  C   UNL     1     -58.789 -35.726  25.391  0.00  0.00    +0.000 C 
ATOM     23  C   UNL     1     -57.460 -35.251  23.220  0.00  0.00    +0.000 C 
ENDBRANCH  13  15
ENDBRANCH  11  14
ENDBRANCH   6  10
BRANCH   3  24
ATOM     24  O   UNL     1     -56.554 -48.940  21.042  0.00  0.00    +0.000 OA
ATOM     25  H   UNL     1     -57.299 -48.488  21.474  0.00  0.00    +0.000 HD
ENDBRANCH   3  24
BRANCH   3  26
ATOM     26  C   UNL     1     -54.428 -48.276  21.820  0.00  0.00    +0.000 C 
ATOM     27  C   UNL     1     -53.267 -48.602  22.763  0.00  0.00    +0.000 C 
BRANCH  27  28
ATOM     28  C   UNL     1     -52.105 -48.931  23.705  0.00  0.00    +0.000 C 
ATOM     29  C   UNL     1     -50.945 -49.259  24.650  0.00  0.00    +0.000 C 
BRANCH  29  31
ATOM     30  O   UNL     1     -48.797 -50.027  25.157  0.00  0.00    +0.000 OA
ATOM     31  C   UNL     1     -49.861 -49.567  25.532  0.00  0.00    +0.000 C 
BRANCH  31  32
ATOM     32  O   UNL     1     -50.117 -49.303  26.826  0.00  0.00    +0.000 OA
ATOM     33  H   UNL     1     -49.623 -48.476  26.996  0.00  0.00    +0.000 HD
ENDBRANCH  31  32
ENDBRANCH  29  31
ENDBRANCH  27  28
ENDBRANCH   3  26
TORSDOF 8
ENDMDL
MODEL 6
REMARK VINA RESULT:      -5.1     32.054     34.209
REMARK  Name = 122178712_SalternamideA.pdbqt.pdb
REMARK  8 active torsions:
REMARK  status: ('A' for Active; 'I' for Inactive)
REMARK    1  A    between atoms: C_3  and  O_24
REMARK    2  A    between atoms: C_3  and  C_26
REMARK    3  A    between atoms: C_6  and  N_10
REMARK    4  A    between atoms: C_11  and  C_14
REMARK    5  A    between atoms: C_13  and  C_15
REMARK    6  A    between atoms: C_27  and  C_28
REMARK    7  A    between atoms: C_29  and  C_31
REMARK    8  A    between atoms: C_31  and  O_32
REMARK                            x       y       z     vdW  Elec       q    Type
REMARK                         _______ _______ _______ _____ _____    ______ ____
ROOT
ATOM      1 CL   UNL     1     -66.819 -50.123  64.971  0.00  0.00    +0.000 Cl
ATOM      2  O   UNL     1     -65.555 -52.795  66.068  0.00  0.00    +0.000 OA
ATOM      3  C   UNL     1     -63.769 -51.186  62.493  0.00  0.00    +0.000 C 
ATOM      4  C   UNL     1     -63.423 -52.361  63.311  0.00  0.00    +0.000 C 
ATOM      5  C   UNL     1     -64.924 -50.714  63.274  0.00  0.00    +0.000 C 
ATOM      6  C   UNL     1     -63.853 -52.971  64.378  0.00  0.00    +0.000 C 
ATOM      7  C   UNL     1     -65.579 -51.086  64.335  0.00  0.00    +0.000 C 
ATOM      8  C   UNL     1     -65.072 -52.324  65.046  0.00  0.00    +0.000 C 
ENDROOT
BRANCH   6  10
ATOM      9  O   UNL     1     -61.791 -53.197  66.438  0.00  0.00    +0.000 OA
ATOM     10  N   UNL     1     -63.315 -54.100  64.938  0.00  0.00    +0.000 N 
ATOM     11  C   UNL     1     -62.345 -54.149  65.908  0.00  0.00    +0.000 C 
ATOM     12  H   UNL     1     -63.687 -54.979  64.583  0.00  0.00    +0.000 HD
BRANCH  11  14
ATOM     13  C   UNL     1     -61.645 -56.590  66.650  0.00  0.00    +0.000 C 
ATOM     14  C   UNL     1     -61.968 -55.481  66.318  0.00  0.00    +0.000 C 
BRANCH  13  15
ATOM     15  C   UNL     1     -61.256 -57.895  67.040  0.00  0.00    +0.000 C 
ATOM     16  C   UNL     1     -59.896 -58.382  66.625  0.00  0.00    +0.000 C 
ATOM     17  C   UNL     1     -62.072 -58.799  67.748  0.00  0.00    +0.000 C 
ATOM     18  C   UNL     1     -62.876 -59.712  68.459  0.00  0.00    +0.000 C 
ATOM     19  C   UNL     1     -64.050 -59.161  69.213  0.00  0.00    +0.000 C 
ATOM     20  C   UNL     1     -62.669 -61.101  68.491  0.00  0.00    +0.000 C 
ATOM     21  C   UNL     1     -62.485 -62.377  68.516  0.00  0.00    +0.000 C 
ATOM     22  C   UNL     1     -61.579 -62.969  69.551  0.00  0.00    +0.000 C 
ATOM     23  C   UNL     1     -62.893 -63.197  67.331  0.00  0.00    +0.000 C 
ENDBRANCH  13  15
ENDBRANCH  11  14
ENDBRANCH   6  10
BRANCH   3  24
ATOM     24  O   UNL     1     -64.210 -51.614  61.222  0.00  0.00    +0.000 OA
ATOM     25  H   UNL     1     -65.165 -51.777  61.312  0.00  0.00    +0.000 HD
ENDBRANCH   3  24
BRANCH   3  26
ATOM     26  C   UNL     1     -62.696 -50.208  62.360  0.00  0.00    +0.000 C 
ATOM     27  C   UNL     1     -61.570 -49.181  62.213  0.00  0.00    +0.000 C 
BRANCH  27  28
ATOM     28  C   UNL     1     -60.445 -48.153  62.062  0.00  0.00    +0.000 C 
ATOM     29  C   UNL     1     -59.320 -47.124  61.914  0.00  0.00    +0.000 C 
BRANCH  29  31
ATOM     30  O   UNL     1     -57.284 -46.135  62.495  0.00  0.00    +0.000 OA
ATOM     31  C   UNL     1     -58.268 -46.163  61.777  0.00  0.00    +0.000 C 
BRANCH  31  32
ATOM     32  O   UNL     1     -58.458 -45.284  60.777  0.00  0.00    +0.000 OA
ATOM     33  H   UNL     1     -58.577 -45.852  59.989  0.00  0.00    +0.000 HD
ENDBRANCH  31  32
ENDBRANCH  29  31
ENDBRANCH  27  28
ENDBRANCH   3  26
TORSDOF 8
ENDMDL
MODEL 7
REMARK VINA RESULT:      -5.0     39.080     42.978
REMARK  Name = 122178712_SalternamideA.pdbqt.pdb
REMARK  8 active torsions:
REMARK  status: ('A' for Active; 'I' for Inactive)
REMARK    1  A    between atoms: C_3  and  O_24
REMARK    2  A    between atoms: C_3  and  C_26
REMARK    3  A    between atoms: C_6  and  N_10
REMARK    4  A    between atoms: C_11  and  C_14
REMARK    5  A    between atoms: C_13  and  C_15
REMARK    6  A    between atoms: C_27  and  C_28
REMARK    7  A    between atoms: C_29  and  C_31
REMARK    8  A    between atoms: C_31  and  O_32
REMARK                            x       y       z     vdW  Elec       q    Type
REMARK                         _______ _______ _______ _____ _____    ______ ____
ROOT
ATOM      1 CL   UNL     1     -66.418 -35.494  55.947  0.00  0.00    +0.000 Cl
ATOM      2  O   UNL     1     -63.994 -34.139  54.454  0.00  0.00    +0.000 OA
ATOM      3  C   UNL     1     -63.676 -38.385  55.111  0.00  0.00    +0.000 C 
ATOM      4  C   UNL     1     -62.788 -37.438  54.417  0.00  0.00    +0.000 C 
ATOM      5  C   UNL     1     -64.725 -37.435  55.519  0.00  0.00    +0.000 C 
ATOM      6  C   UNL     1     -62.734 -36.165  54.147  0.00  0.00    +0.000 C 
ATOM      7  C   UNL     1     -64.953 -36.159  55.416  0.00  0.00    +0.000 C 
ATOM      8  C   UNL     1     -63.922 -35.343  54.663  0.00  0.00    +0.000 C 
ENDROOT
BRANCH   6  10
ATOM      9  O   UNL     1     -60.174 -35.147  55.125  0.00  0.00    +0.000 OA
ATOM     10  N   UNL     1     -61.741 -35.524  53.454  0.00  0.00    +0.000 N 
ATOM     11  C   UNL     1     -60.552 -35.066  53.965  0.00  0.00    +0.000 C 
ATOM     12  H   UNL     1     -61.926 -35.383  52.463  0.00  0.00    +0.000 HD
BRANCH  11  14
ATOM     13  C   UNL     1     -58.956 -33.911  52.200  0.00  0.00    +0.000 C 
ATOM     14  C   UNL     1     -59.685 -34.430  53.001  0.00  0.00    +0.000 C 
BRANCH  13  15
ATOM     15  C   UNL     1     -58.094 -33.307  51.252  0.00  0.00    +0.000 C 
ATOM     16  C   UNL     1     -58.577 -32.076  50.539  0.00  0.00    +0.000 C 
ATOM     17  C   UNL     1     -56.827 -33.804  50.886  0.00  0.00    +0.000 C 
ATOM     18  C   UNL     1     -55.558 -34.288  50.511  0.00  0.00    +0.000 C 
ATOM     19  C   UNL     1     -54.883 -35.254  51.441  0.00  0.00    +0.000 C 
ATOM     20  C   UNL     1     -54.893 -33.950  49.321  0.00  0.00    +0.000 C 
ATOM     21  C   UNL     1     -54.284 -33.646  48.226  0.00  0.00    +0.000 C 
ATOM     22  C   UNL     1     -53.403 -32.436  48.186  0.00  0.00    +0.000 C 
ATOM     23  C   UNL     1     -54.722 -34.287  46.946  0.00  0.00    +0.000 C 
ENDBRANCH  13  15
ENDBRANCH  11  14
ENDBRANCH   6  10
BRANCH   3  24
ATOM     24  O   UNL     1     -63.024 -38.880  56.262  0.00  0.00    +0.000 OA
ATOM     25  H   UNL     1     -62.123 -38.515  56.235  0.00  0.00    +0.000 HD
ENDBRANCH   3  24
BRANCH   3  26
ATOM     26  C   UNL     1     -64.153 -39.484  54.281  0.00  0.00    +0.000 C 
ATOM     27  C   UNL     1     -64.657 -40.635  53.406  0.00  0.00    +0.000 C 
BRANCH  27  28
ATOM     28  C   UNL     1     -65.164 -41.783  52.529  0.00  0.00    +0.000 C 
ATOM     29  C   UNL     1     -65.668 -42.933  51.651  0.00  0.00    +0.000 C 
BRANCH  29  31
ATOM     30  O   UNL     1     -65.411 -44.861  50.356  0.00  0.00    +0.000 OA
ATOM     31  C   UNL     1     -66.139 -44.008  50.832  0.00  0.00    +0.000 C 
BRANCH  31  32
ATOM     32  O   UNL     1     -67.469 -43.998  50.628  0.00  0.00    +0.000 OA
ATOM     33  H   UNL     1     -67.681 -43.046  50.533  0.00  0.00    +0.000 HD
ENDBRANCH  31  32
ENDBRANCH  29  31
ENDBRANCH  27  28
ENDBRANCH   3  26
TORSDOF 8
ENDMDL
MODEL 8
REMARK VINA RESULT:      -5.0     41.839     45.885
REMARK  Name = 122178712_SalternamideA.pdbqt.pdb
REMARK  8 active torsions:
REMARK  status: ('A' for Active; 'I' for Inactive)
REMARK    1  A    between atoms: C_3  and  O_24
REMARK    2  A    between atoms: C_3  and  C_26
REMARK    3  A    between atoms: C_6  and  N_10
REMARK    4  A    between atoms: C_11  and  C_14
REMARK    5  A    between atoms: C_13  and  C_15
REMARK    6  A    between atoms: C_27  and  C_28
REMARK    7  A    between atoms: C_29  and  C_31
REMARK    8  A    between atoms: C_31  and  O_32
REMARK                            x       y       z     vdW  Elec       q    Type
REMARK                         _______ _______ _______ _____ _____    ______ ____
ROOT
ATOM      1 CL   UNL     1     -75.613 -62.890  12.398  0.00  0.00    +0.000 Cl
ATOM      2  O   UNL     1     -72.790 -61.556  11.955  0.00  0.00    +0.000 OA
ATOM      3  C   UNL     1     -74.017 -62.070  16.053  0.00  0.00    +0.000 C 
ATOM      4  C   UNL     1     -72.772 -61.547  15.467  0.00  0.00    +0.000 C 
ATOM      5  C   UNL     1     -74.731 -62.374  14.801  0.00  0.00    +0.000 C 
ATOM      6  C   UNL     1     -72.263 -61.322  14.290  0.00  0.00    +0.000 C 
ATOM      7  C   UNL     1     -74.512 -62.265  13.524  0.00  0.00    +0.000 C 
ATOM      8  C   UNL     1     -73.166 -61.702  13.111  0.00  0.00    +0.000 C 
ENDROOT
BRANCH   6  10
ATOM      9  O   UNL     1     -71.524 -58.562  13.672  0.00  0.00    +0.000 OA
ATOM     10  N   UNL     1     -71.023 -60.800  14.029  0.00  0.00    +0.000 N 
ATOM     11  C   UNL     1     -70.731 -59.489  13.744  0.00  0.00    +0.000 C 
ATOM     12  H   UNL     1     -70.257 -61.471  14.052  0.00  0.00    +0.000 HD
BRANCH  11  14
ATOM     13  C   UNL     1     -68.169 -58.993  13.308  0.00  0.00    +0.000 C 
ATOM     14  C   UNL     1     -69.331 -59.219  13.514  0.00  0.00    +0.000 C 
BRANCH  13  15
ATOM     15  C   UNL     1     -66.801 -58.723  13.060  0.00  0.00    +0.000 C 
ATOM     16  C   UNL     1     -66.444 -57.418  12.408  0.00  0.00    +0.000 C 
ATOM     17  C   UNL     1     -65.744 -59.614  13.333  0.00  0.00    +0.000 C 
ATOM     18  C   UNL     1     -64.675 -60.493  13.604  0.00  0.00    +0.000 C 
ATOM     19  C   UNL     1     -64.924 -61.605  14.580  0.00  0.00    +0.000 C 
ATOM     20  C   UNL     1     -63.406 -60.415  13.007  0.00  0.00    +0.000 C 
ATOM     21  C   UNL     1     -62.243 -60.350  12.455  0.00  0.00    +0.000 C 
ATOM     22  C   UNL     1     -61.182 -59.494  13.075  0.00  0.00    +0.000 C 
ATOM     23  C   UNL     1     -62.072 -60.840  11.051  0.00  0.00    +0.000 C 
ENDBRANCH  13  15
ENDBRANCH  11  14
ENDBRANCH   6  10
BRANCH   3  24
ATOM     24  O   UNL     1     -74.689 -61.029  16.730  0.00  0.00    +0.000 OA
ATOM     25  H   UNL     1     -74.141 -60.234  16.608  0.00  0.00    +0.000 HD
ENDBRANCH   3  24
BRANCH   3  26
ATOM     26  C   UNL     1     -73.834 -63.218  16.932  0.00  0.00    +0.000 C 
ATOM     27  C   UNL     1     -73.641 -64.420  17.861  0.00  0.00    +0.000 C 
BRANCH  27  28
ATOM     28  C   UNL     1     -73.449 -65.620  18.793  0.00  0.00    +0.000 C 
ATOM     29  C   UNL     1     -73.258 -66.822  19.723  0.00  0.00    +0.000 C 
BRANCH  29  31
ATOM     30  O   UNL     1     -73.989 -68.473  21.206  0.00  0.00    +0.000 OA
ATOM     31  C   UNL     1     -73.079 -67.945  20.592  0.00  0.00    +0.000 C 
BRANCH  31  32
ATOM     32  O   UNL     1     -71.807 -68.375  20.675  0.00  0.00    +0.000 OA
ATOM     33  H   UNL     1     -71.811 -69.210  20.164  0.00  0.00    +0.000 HD
ENDBRANCH  31  32
ENDBRANCH  29  31
ENDBRANCH  27  28
ENDBRANCH   3  26
TORSDOF 8
ENDMDL
MODEL 9
REMARK VINA RESULT:      -4.9     32.604     34.528
REMARK  Name = 122178712_SalternamideA.pdbqt.pdb
REMARK  8 active torsions:
REMARK  status: ('A' for Active; 'I' for Inactive)
REMARK    1  A    between atoms: C_3  and  O_24
REMARK    2  A    between atoms: C_3  and  C_26
REMARK    3  A    between atoms: C_6  and  N_10
REMARK    4  A    between atoms: C_11  and  C_14
REMARK    5  A    between atoms: C_13  and  C_15
REMARK    6  A    between atoms: C_27  and  C_28
REMARK    7  A    between atoms: C_29  and  C_31
REMARK    8  A    between atoms: C_31  and  O_32
REMARK                            x       y       z     vdW  Elec       q    Type
REMARK                         _______ _______ _______ _____ _____    ______ ____
ROOT
ATOM      1 CL   UNL     1     -26.481 -43.780  56.962  0.00  0.00    +0.000 Cl
ATOM      2  O   UNL     1     -28.309 -42.590  59.238  0.00  0.00    +0.000 OA
ATOM      3  C   UNL     1     -29.829 -42.252  55.221  0.00  0.00    +0.000 C 
ATOM      4  C   UNL     1     -30.411 -41.869  56.518  0.00  0.00    +0.000 C 
ATOM      5  C   UNL     1     -28.552 -42.796  55.712  0.00  0.00    +0.000 C 
ATOM      6  C   UNL     1     -30.090 -41.892  57.780  0.00  0.00    +0.000 C 
ATOM      7  C   UNL     1     -27.954 -42.950  56.857  0.00  0.00    +0.000 C 
ATOM      8  C   UNL     1     -28.714 -42.495  58.087  0.00  0.00    +0.000 C 
ENDROOT
BRANCH   6  10
ATOM      9  O   UNL     1     -30.220 -39.218  58.954  0.00  0.00    +0.000 OA
ATOM     10  N   UNL     1     -30.861 -41.445  58.821  0.00  0.00    +0.000 N 
ATOM     11  C   UNL     1     -30.883 -40.172  59.334  0.00  0.00    +0.000 C 
ATOM     12  H   UNL     1     -31.469 -42.145  59.242  0.00  0.00    +0.000 HD
BRANCH  11  14
ATOM     13  C   UNL     1     -32.570 -39.828  61.342  0.00  0.00    +0.000 C 
ATOM     14  C   UNL     1     -31.799 -39.980  60.434  0.00  0.00    +0.000 C 
BRANCH  13  15
ATOM     15  C   UNL     1     -33.482 -39.657  62.413  0.00  0.00    +0.000 C 
ATOM     16  C   UNL     1     -32.958 -39.779  63.816  0.00  0.00    +0.000 C 
ATOM     17  C   UNL     1     -34.865 -39.429  62.262  0.00  0.00    +0.000 C 
ATOM     18  C   UNL     1     -36.248 -39.198  62.126  0.00  0.00    +0.000 C 
ATOM     19  C   UNL     1     -36.740 -38.693  60.802  0.00  0.00    +0.000 C 
ATOM     20  C   UNL     1     -37.199 -39.430  63.134  0.00  0.00    +0.000 C 
ATOM     21  C   UNL     1     -38.074 -39.649  64.055  0.00  0.00    +0.000 C 
ATOM     22  C   UNL     1     -38.387 -38.569  65.044  0.00  0.00    +0.000 C 
ATOM     23  C   UNL     1     -38.505 -41.056  64.333  0.00  0.00    +0.000 C 
ENDBRANCH  13  15
ENDBRANCH  11  14
ENDBRANCH   6  10
BRANCH   3  24
ATOM     24  O   UNL     1     -29.577 -41.089  54.460  0.00  0.00    +0.000 OA
ATOM     25  H   UNL     1     -28.849 -40.627  54.912  0.00  0.00    +0.000 HD
ENDBRANCH   3  24
BRANCH   3  26
ATOM     26  C   UNL     1     -30.630 -43.199  54.457  0.00  0.00    +0.000 C 
ATOM     27  C   UNL     1     -31.469 -44.193  53.648  0.00  0.00    +0.000 C 
BRANCH  27  28
ATOM     28  C   UNL     1     -32.306 -45.186  52.836  0.00  0.00    +0.000 C 
ATOM     29  C   UNL     1     -33.142 -46.181  52.026  0.00  0.00    +0.000 C 
BRANCH  29  31
ATOM     30  O   UNL     1     -34.426 -48.114  51.748  0.00  0.00    +0.000 OA
ATOM     31  C   UNL     1     -33.925 -47.111  51.270  0.00  0.00    +0.000 C 
BRANCH  31  32
ATOM     32  O   UNL     1     -34.062 -46.782  49.973  0.00  0.00    +0.000 OA
ATOM     33  H   UNL     1     -34.734 -47.414  49.645  0.00  0.00    +0.000 HD
ENDBRANCH  31  32
ENDBRANCH  29  31
ENDBRANCH  27  28
ENDBRANCH   3  26
TORSDOF 8
ENDMDL
