MODEL 1
REMARK VINA RESULT:      -7.5      0.000      0.000
REMARK  Name = 135403648_CalciumFolinate.pdbqt.pdb
REMARK  10 active torsions:
REMARK  status: ('A' for Active; 'I' for Inactive)
REMARK    1  A    between atoms: N_1  and  C_3
REMARK    2  A    between atoms: N_1  and  C_24
REMARK    3  A    between atoms: C_6  and  C_11
REMARK    4  A    between atoms: CA_13  and  C_15
REMARK    5  A    between atoms: CA_13  and  CB_18
REMARK    6  A    between atoms: C_15  and  O_16
REMARK    7  A    between atoms: CG_19  and  CD_21
REMARK    8  A    between atoms: CD_21  and  OE1_22
REMARK    9  A    between atoms: C_24  and  C_32
REMARK   10  A    between atoms: N_27  and  C_37
REMARK                            x       y       z     vdW  Elec       q    Type
REMARK                         _______ _______ _______ _____ _____    ______ ____
ROOT
ATOM      1  N   UNL     1     -41.149 -41.258  47.065  0.00  0.00    +0.000 N 
ATOM      2  H   UNL     1     -40.626 -40.736  46.363  0.00  0.00    +0.000 HD
ENDROOT
BRANCH   1   3
ATOM      3  C   UNL     1     -40.305 -42.014  47.906  0.00  0.00    +0.000 A 
ATOM      4  C   UNL     1     -39.785 -41.421  49.060  0.00  0.00    +0.000 A 
ATOM      5  C   UNL     1     -39.822 -43.275  47.537  0.00  0.00    +0.000 A 
ATOM      6  C   UNL     1     -38.429 -43.368  49.508  0.00  0.00    +0.000 A 
ATOM      7  C   UNL     1     -38.868 -42.095  49.865  0.00  0.00    +0.000 A 
ATOM      8  C   UNL     1     -38.906 -43.956  48.336  0.00  0.00    +0.000 A 
BRANCH   6  11
ATOM      9  O   UNL     1     -37.397 -45.344  50.203  0.00  0.00    +0.000 OA
ATOM     10  N   UNL     1     -36.685 -43.381  51.206  0.00  0.00    +0.000 N 
ATOM     11  C   ACE A   0     -37.457 -44.126  50.335  0.00  0.00    +0.000 C 
ATOM     12  H   UNL     1     -36.811 -42.372  51.247  0.00  0.00    +0.000 HD
ATOM     13  CA  UNL     1     -35.718 -43.852  52.076  0.00  0.00    +0.000 C 
BRANCH  13  15
ATOM     14  OXT UNL     1     -35.034 -41.632  52.638  0.00  0.00    +0.000 OA
ATOM     15  C   UNL     1     -35.040 -42.825  52.904  0.00  0.00    +0.000 C 
BRANCH  15  16
ATOM     16  O   UNL     1     -34.424 -43.313  53.991  0.00  0.00    +0.000 OA
ATOM     17  H   UNL     1     -33.475 -43.344  53.749  0.00  0.00    +0.000 HD
ENDBRANCH  15  16
ENDBRANCH  13  15
BRANCH  13  18
ATOM     18  CB  UNL     1     -35.391 -45.230  52.172  0.00  0.00    +0.000 C 
ATOM     19  CG  UNL     1     -35.049 -46.720  52.283  0.00  0.00    +0.000 C 
BRANCH  19  21
ATOM     20  OE2 UNL     1     -35.173 -48.828  53.284  0.00  0.00    +0.000 OA
ATOM     21  CD  UNL     1     -34.746 -48.115  52.394  0.00  0.00    +0.000 C 
BRANCH  21  22
ATOM     22  OE1 UNL     1     -33.922 -48.575  51.435  0.00  0.00    +0.000 OA
ATOM     23  HE1 UNL     1     -33.063 -48.658  51.896  0.00  0.00    +0.000 HD
ENDBRANCH  21  22
ENDBRANCH  19  21
ENDBRANCH  13  18
ENDBRANCH   6  11
ENDBRANCH   1   3
BRANCH   1  24
ATOM     24  C   UNL     1     -42.286 -40.565  47.658  0.00  0.00    +0.000 C 
BRANCH  24  31
ATOM     25  O   UNL     1     -44.777 -40.142  52.273  0.00  0.00    +0.000 OA
ATOM     26  N   UNL     1     -43.707 -39.938  49.578  0.00  0.00    +0.000 N 
ATOM     27  N   UNL     1     -45.256 -38.082  47.944  0.00  0.00    +0.000 N 
ATOM     28  N   UNL     1     -46.736 -37.734  49.746  0.00  0.00    +0.000 NA
ATOM     29  N   UNL     1     -46.376 -38.638  51.845  0.00  0.00    +0.000 N 
ATOM     30  N   UNL     1     -48.180 -37.259  51.468  0.00  0.00    +0.000 N 
ATOM     31  C   UNL     1     -43.368 -39.845  48.232  0.00  0.00    +0.000 C 
ATOM     32  C   UNL     1     -44.196 -38.950  47.536  0.00  0.00    +0.000 C 
ATOM     33  C   UNL     1     -44.837 -39.212  50.048  0.00  0.00    +0.000 A 
ATOM     34  C   UNL     1     -45.597 -38.357  49.281  0.00  0.00    +0.000 A 
ATOM     35  C   UNL     1     -45.299 -39.379  51.465  0.00  0.00    +0.000 A 
ATOM     36  C   UNL     1     -47.080 -37.878  50.979  0.00  0.00    +0.000 A 
ATOM     37  H   UNL     1     -46.089 -37.932  47.384  0.00  0.00    +0.000 HD
ATOM     38  H   UNL     1     -46.709 -38.791  52.783  0.00  0.00    +0.000 HD
ATOM     39  H   UNL     1     -48.534 -36.549  50.832  0.00  0.00    +0.000 HD
ATOM     40  H   UNL     1     -48.136 -36.935  52.425  0.00  0.00    +0.000 HD
BRANCH  26  42
ATOM     41  O   UNL     1     -42.361 -41.502  51.033  0.00  0.00    +0.000 OA
ATOM     42  C   UNL     1     -42.975 -40.744  50.377  0.00  0.00    +0.000 C 
ENDBRANCH  26  42
ENDBRANCH  24  31
ENDBRANCH   1  24
TORSDOF 10
ENDMDL
MODEL 2
REMARK VINA RESULT:      -7.4      1.630      2.287
REMARK  Name = 135403648_CalciumFolinate.pdbqt.pdb
REMARK  10 active torsions:
REMARK  status: ('A' for Active; 'I' for Inactive)
REMARK    1  A    between atoms: N_1  and  C_3
REMARK    2  A    between atoms: N_1  and  C_24
REMARK    3  A    between atoms: C_6  and  C_11
REMARK    4  A    between atoms: CA_13  and  C_15
REMARK    5  A    between atoms: CA_13  and  CB_18
REMARK    6  A    between atoms: C_15  and  O_16
REMARK    7  A    between atoms: CG_19  and  CD_21
REMARK    8  A    between atoms: CD_21  and  OE1_22
REMARK    9  A    between atoms: C_24  and  C_32
REMARK   10  A    between atoms: N_27  and  C_37
REMARK                            x       y       z     vdW  Elec       q    Type
REMARK                         _______ _______ _______ _____ _____    ______ ____
ROOT
ATOM      1  N   UNL     1     -41.496 -41.558  47.557  0.00  0.00    +0.000 N 
ATOM      2  H   UNL     1     -41.289 -41.025  46.712  0.00  0.00    +0.000 HD
ENDROOT
BRANCH   1   3
ATOM      3  C   UNL     1     -40.343 -42.159  48.103  0.00  0.00    +0.000 A 
ATOM      4  C   UNL     1     -39.803 -43.288  47.480  0.00  0.00    +0.000 A 
ATOM      5  C   UNL     1     -39.823 -41.779  49.346  0.00  0.00    +0.000 A 
ATOM      6  C   UNL     1     -38.190 -43.558  49.257  0.00  0.00    +0.000 A 
ATOM      7  C   UNL     1     -38.726 -43.973  48.041  0.00  0.00    +0.000 A 
ATOM      8  C   UNL     1     -38.746 -42.459  49.913  0.00  0.00    +0.000 A 
BRANCH   6  11
ATOM      9  O   UNL     1     -36.681 -45.330  49.431  0.00  0.00    +0.000 OA
ATOM     10  N   UNL     1     -36.465 -43.614  50.972  0.00  0.00    +0.000 N 
ATOM     11  C   ACE A   0     -37.042 -44.253  49.891  0.00  0.00    +0.000 C 
ATOM     12  H   UNL     1     -36.840 -42.721  51.284  0.00  0.00    +0.000 HD
ATOM     13  CA  UNL     1     -35.393 -44.056  51.727  0.00  0.00    +0.000 C 
BRANCH  13  15
ATOM     14  OXT UNL     1     -35.309 -41.994  52.934  0.00  0.00    +0.000 OA
ATOM     15  C   UNL     1     -34.979 -43.167  52.841  0.00  0.00    +0.000 C 
BRANCH  15  16
ATOM     16  O   UNL     1     -34.200 -43.761  53.758  0.00  0.00    +0.000 OA
ATOM     17  H   UNL     1     -33.305 -43.771  53.360  0.00  0.00    +0.000 HD
ENDBRANCH  15  16
ENDBRANCH  13  15
BRANCH  13  18
ATOM     18  CB  UNL     1     -34.728 -45.280  51.456  0.00  0.00    +0.000 C 
ATOM     19  CG  UNL     1     -34.019 -46.606  51.156  0.00  0.00    +0.000 C 
BRANCH  19  21
ATOM     20  OE2 UNL     1     -32.738 -48.488  51.685  0.00  0.00    +0.000 OA
ATOM     21  CD  UNL     1     -33.371 -47.848  50.864  0.00  0.00    +0.000 C 
BRANCH  21  22
ATOM     22  OE1 UNL     1     -33.502 -48.248  49.587  0.00  0.00    +0.000 OA
ATOM     23  HE1 UNL     1     -33.718 -47.420  49.112  0.00  0.00    +0.000 HD
ENDBRANCH  21  22
ENDBRANCH  19  21
ENDBRANCH  13  18
ENDBRANCH   6  11
ENDBRANCH   1   3
BRANCH   1  24
ATOM     24  C   UNL     1     -42.470 -40.961  48.463  0.00  0.00    +0.000 C 
BRANCH  24  31
ATOM     25  O   UNL     1     -46.331 -37.388  48.386  0.00  0.00    +0.000 OA
ATOM     26  N   UNL     1     -44.404 -39.497  48.924  0.00  0.00    +0.000 N 
ATOM     27  N   UNL     1     -44.545 -40.400  51.694  0.00  0.00    +0.000 N 
ATOM     28  N   UNL     1     -46.209 -38.788  52.132  0.00  0.00    +0.000 NA
ATOM     29  N   UNL     1     -47.130 -37.466  50.472  0.00  0.00    +0.000 N 
ATOM     30  N   UNL     1     -47.897 -37.315  52.638  0.00  0.00    +0.000 N 
ATOM     31  C   UNL     1     -43.450 -40.420  49.338  0.00  0.00    +0.000 C 
ATOM     32  C   UNL     1     -43.590 -40.759  50.693  0.00  0.00    +0.000 C 
ATOM     33  C   UNL     1     -45.314 -38.978  49.886  0.00  0.00    +0.000 A 
ATOM     34  C   UNL     1     -45.372 -39.371  51.206  0.00  0.00    +0.000 A 
ATOM     35  C   UNL     1     -46.281 -37.898  49.500  0.00  0.00    +0.000 A 
ATOM     36  C   UNL     1     -47.047 -37.886  51.753  0.00  0.00    +0.000 A 
ATOM     37  H   UNL     1     -44.288 -40.225  52.661  0.00  0.00    +0.000 HD
ATOM     38  H   UNL     1     -47.743 -36.709  50.219  0.00  0.00    +0.000 HD
ATOM     39  H   UNL     1     -47.927 -37.818  53.520  0.00  0.00    +0.000 HD
ATOM     40  H   UNL     1     -48.819 -37.074  52.297  0.00  0.00    +0.000 HD
BRANCH  26  42
ATOM     41  O   UNL     1     -44.336 -38.734  46.517  0.00  0.00    +0.000 OA
ATOM     42  C   UNL     1     -44.405 -39.100  47.632  0.00  0.00    +0.000 C 
ENDBRANCH  26  42
ENDBRANCH  24  31
ENDBRANCH   1  24
TORSDOF 10
ENDMDL
MODEL 3
REMARK VINA RESULT:      -6.9     26.217     27.415
REMARK  Name = 135403648_CalciumFolinate.pdbqt.pdb
REMARK  10 active torsions:
REMARK  status: ('A' for Active; 'I' for Inactive)
REMARK    1  A    between atoms: N_1  and  C_3
REMARK    2  A    between atoms: N_1  and  C_24
REMARK    3  A    between atoms: C_6  and  C_11
REMARK    4  A    between atoms: CA_13  and  C_15
REMARK    5  A    between atoms: CA_13  and  CB_18
REMARK    6  A    between atoms: C_15  and  O_16
REMARK    7  A    between atoms: CG_19  and  CD_21
REMARK    8  A    between atoms: CD_21  and  OE1_22
REMARK    9  A    between atoms: C_24  and  C_32
REMARK   10  A    between atoms: N_27  and  C_37
REMARK                            x       y       z     vdW  Elec       q    Type
REMARK                         _______ _______ _______ _____ _____    ______ ____
ROOT
ATOM      1  N   UNL     1     -31.670 -66.257  61.164  0.00  0.00    +0.000 N 
ATOM      2  H   UNL     1     -31.111 -66.996  61.589  0.00  0.00    +0.000 HD
ENDROOT
BRANCH   1   3
ATOM      3  C   UNL     1     -31.906 -66.491  59.792  0.00  0.00    +0.000 A 
ATOM      4  C   UNL     1     -32.898 -65.756  59.137  0.00  0.00    +0.000 A 
ATOM      5  C   UNL     1     -31.310 -67.555  59.105  0.00  0.00    +0.000 A 
ATOM      6  C   UNL     1     -32.602 -67.059  57.125  0.00  0.00    +0.000 A 
ATOM      7  C   UNL     1     -33.234 -66.024  57.810  0.00  0.00    +0.000 A 
ATOM      8  C   UNL     1     -31.640 -67.829  57.779  0.00  0.00    +0.000 A 
BRANCH   6  11
ATOM      9  O   UNL     1     -33.819 -68.182  55.479  0.00  0.00    +0.000 OA
ATOM     10  N   UNL     1     -32.165 -66.732  54.753  0.00  0.00    +0.000 N 
ATOM     11  C   ACE A   0     -32.922 -67.379  55.711  0.00  0.00    +0.000 C 
ATOM     12  H   UNL     1     -31.437 -66.084  55.046  0.00  0.00    +0.000 HD
ATOM     13  CA  UNL     1     -32.268 -66.862  53.380  0.00  0.00    +0.000 C 
BRANCH  13  15
ATOM     14  OXT UNL     1     -31.438 -65.848  51.381  0.00  0.00    +0.000 OA
ATOM     15  C   UNL     1     -31.321 -66.048  52.581  0.00  0.00    +0.000 C 
BRANCH  15  16
ATOM     16  O   UNL     1     -30.303 -65.535  53.290  0.00  0.00    +0.000 OA
ATOM     17  H   UNL     1     -29.554 -65.493  52.659  0.00  0.00    +0.000 HD
ENDBRANCH  15  16
ENDBRANCH  13  15
BRANCH  13  18
ATOM     18  CB  UNL     1     -33.222 -67.719  52.769  0.00  0.00    +0.000 C 
ATOM     19  CG  UNL     1     -34.260 -68.638  52.115  0.00  0.00    +0.000 C 
BRANCH  19  21
ATOM     20  OE2 UNL     1     -35.129 -69.960  50.395  0.00  0.00    +0.000 OA
ATOM     21  CD  UNL     1     -35.243 -69.484  51.511  0.00  0.00    +0.000 C 
BRANCH  21  22
ATOM     22  OE1 UNL     1     -36.328 -69.698  52.276  0.00  0.00    +0.000 OA
ATOM     23  HE1 UNL     1     -36.372 -68.896  52.835  0.00  0.00    +0.000 HD
ENDBRANCH  21  22
ENDBRANCH  19  21
ENDBRANCH  13  18
ENDBRANCH   6  11
ENDBRANCH   1   3
BRANCH   1  24
ATOM     24  C   UNL     1     -32.757 -65.730  61.980  0.00  0.00    +0.000 C 
BRANCH  24  31
ATOM     25  O   UNL     1     -33.599 -62.894  66.330  0.00  0.00    +0.000 OA
ATOM     26  N   UNL     1     -33.678 -64.400  63.845  0.00  0.00    +0.000 N 
ATOM     27  N   UNL     1     -36.417 -64.965  63.017  0.00  0.00    +0.000 N 
ATOM     28  N   UNL     1     -37.222 -63.907  64.965  0.00  0.00    +0.000 NA
ATOM     29  N   UNL     1     -35.830 -62.805  66.448  0.00  0.00    +0.000 N 
ATOM     30  N   UNL     1     -38.107 -62.820  66.784  0.00  0.00    +0.000 N 
ATOM     31  C   UNL     1     -33.847 -65.219  62.734  0.00  0.00    +0.000 C 
ATOM     32  C   UNL     1     -35.201 -65.451  62.445  0.00  0.00    +0.000 C 
ATOM     33  C   UNL     1     -34.831 -63.976  64.562  0.00  0.00    +0.000 A 
ATOM     34  C   UNL     1     -36.130 -64.262  64.202  0.00  0.00    +0.000 A 
ATOM     35  C   UNL     1     -34.679 -63.188  65.829  0.00  0.00    +0.000 A 
ATOM     36  C   UNL     1     -37.050 -63.202  66.030  0.00  0.00    +0.000 A 
ATOM     37  H   UNL     1     -37.240 -65.548  63.136  0.00  0.00    +0.000 HD
ATOM     38  H   UNL     1     -35.720 -62.318  67.323  0.00  0.00    +0.000 HD
ATOM     39  H   UNL     1     -38.992 -62.969  66.307  0.00  0.00    +0.000 HD
ATOM     40  H   UNL     1     -38.051 -61.911  67.224  0.00  0.00    +0.000 HD
BRANCH  26  42
ATOM     41  O   UNL     1     -31.316 -63.770  64.482  0.00  0.00    +0.000 OA
ATOM     42  C   UNL     1     -32.423 -64.071  64.223  0.00  0.00    +0.000 C 
ENDBRANCH  26  42
ENDBRANCH  24  31
ENDBRANCH   1  24
TORSDOF 10
ENDMDL
MODEL 4
REMARK VINA RESULT:      -6.6     15.268     19.824
REMARK  Name = 135403648_CalciumFolinate.pdbqt.pdb
REMARK  10 active torsions:
REMARK  status: ('A' for Active; 'I' for Inactive)
REMARK    1  A    between atoms: N_1  and  C_3
REMARK    2  A    between atoms: N_1  and  C_24
REMARK    3  A    between atoms: C_6  and  C_11
REMARK    4  A    between atoms: CA_13  and  C_15
REMARK    5  A    between atoms: CA_13  and  CB_18
REMARK    6  A    between atoms: C_15  and  O_16
REMARK    7  A    between atoms: CG_19  and  CD_21
REMARK    8  A    between atoms: CD_21  and  OE1_22
REMARK    9  A    between atoms: C_24  and  C_32
REMARK   10  A    between atoms: N_27  and  C_37
REMARK                            x       y       z     vdW  Elec       q    Type
REMARK                         _______ _______ _______ _____ _____    ______ ____
ROOT
ATOM      1  N   UNL     1     -28.010 -54.214  61.933  0.00  0.00    +0.000 N 
ATOM      2  H   UNL     1     -27.625 -55.123  62.188  0.00  0.00    +0.000 HD
ENDROOT
BRANCH   1   3
ATOM      3  C   UNL     1     -28.361 -54.149  60.568  0.00  0.00    +0.000 A 
ATOM      4  C   UNL     1     -29.088 -53.048  60.104  0.00  0.00    +0.000 A 
ATOM      5  C   UNL     1     -28.167 -55.227  59.696  0.00  0.00    +0.000 A 
ATOM      6  C   UNL     1     -29.304 -54.052  57.918  0.00  0.00    +0.000 A 
ATOM      7  C   UNL     1     -29.542 -52.990  58.787  0.00  0.00    +0.000 A 
ATOM      8  C   UNL     1     -28.618 -55.176  58.379  0.00  0.00    +0.000 A 
BRANCH   6  11
ATOM      9  O   UNL     1     -29.126 -54.666  55.672  0.00  0.00    +0.000 OA
ATOM     10  N   UNL     1     -30.898 -53.289  56.246  0.00  0.00    +0.000 N 
ATOM     11  C   ACE A   0     -29.765 -54.034  56.507  0.00  0.00    +0.000 C 
ATOM     12  H   UNL     1     -31.357 -52.794  57.006  0.00  0.00    +0.000 HD
ATOM     13  CA  UNL     1     -31.518 -53.114  55.021  0.00  0.00    +0.000 C 
BRANCH  13  15
ATOM     14  OXT UNL     1     -32.989 -51.444  54.148  0.00  0.00    +0.000 OA
ATOM     15  C   UNL     1     -32.726 -52.253  55.026  0.00  0.00    +0.000 C 
BRANCH  15  16
ATOM     16  O   UNL     1     -33.526 -52.434  56.088  0.00  0.00    +0.000 OA
ATOM     17  H   UNL     1     -33.299 -51.704  56.701  0.00  0.00    +0.000 HD
ENDBRANCH  15  16
ENDBRANCH  13  15
BRANCH  13  18
ATOM     18  CB  UNL     1     -31.033 -53.721  53.832  0.00  0.00    +0.000 C 
ATOM     19  CG  UNL     1     -30.503 -54.384  52.556  0.00  0.00    +0.000 C 
BRANCH  19  21
ATOM     20  OE2 UNL     1     -30.067 -54.520  50.264  0.00  0.00    +0.000 OA
ATOM     21  CD  UNL     1     -30.000 -55.016  51.374  0.00  0.00    +0.000 C 
BRANCH  21  22
ATOM     22  OE1 UNL     1     -29.460 -56.229  51.589  0.00  0.00    +0.000 OA
ATOM     23  HE1 UNL     1     -30.131 -56.681  52.139  0.00  0.00    +0.000 HD
ENDBRANCH  21  22
ENDBRANCH  19  21
ENDBRANCH  13  18
ENDBRANCH   6  11
ENDBRANCH   1   3
BRANCH   1  24
ATOM     24  C   UNL     1     -28.898 -53.601  62.913  0.00  0.00    +0.000 C 
BRANCH  24  31
ATOM     25  O   UNL     1     -32.248 -54.994  66.723  0.00  0.00    +0.000 OA
ATOM     26  N   UNL     1     -30.447 -53.717  64.832  0.00  0.00    +0.000 N 
ATOM     27  N   UNL     1     -30.581 -50.808  65.018  0.00  0.00    +0.000 N 
ATOM     28  N   UNL     1     -32.258 -50.993  66.665  0.00  0.00    +0.000 NA
ATOM     29  N   UNL     1     -32.917 -53.027  67.548  0.00  0.00    +0.000 N 
ATOM     30  N   UNL     1     -33.830 -51.067  68.338  0.00  0.00    +0.000 N 
ATOM     31  C   UNL     1     -29.721 -52.989  63.896  0.00  0.00    +0.000 C 
ATOM     32  C   UNL     1     -29.883 -51.603  64.057  0.00  0.00    +0.000 C 
ATOM     33  C   UNL     1     -31.280 -53.013  65.746  0.00  0.00    +0.000 A 
ATOM     34  C   UNL     1     -31.378 -51.641  65.825  0.00  0.00    +0.000 A 
ATOM     35  C   UNL     1     -32.163 -53.771  66.693  0.00  0.00    +0.000 A 
ATOM     36  C   UNL     1     -32.975 -51.679  67.486  0.00  0.00    +0.000 A 
ATOM     37  H   UNL     1     -31.083 -49.961  64.770  0.00  0.00    +0.000 HD
ATOM     38  H   UNL     1     -33.542 -53.541  68.148  0.00  0.00    +0.000 HD
ATOM     39  H   UNL     1     -33.671 -50.064  68.386  0.00  0.00    +0.000 HD
ATOM     40  H   UNL     1     -33.943 -51.485  69.253  0.00  0.00    +0.000 HD
BRANCH  26  42
ATOM     41  O   UNL     1     -30.252 -56.232  64.734  0.00  0.00    +0.000 OA
ATOM     42  C   UNL     1     -30.363 -55.065  64.812  0.00  0.00    +0.000 C 
ENDBRANCH  26  42
ENDBRANCH  24  31
ENDBRANCH   1  24
TORSDOF 10
ENDMDL
MODEL 5
REMARK VINA RESULT:      -6.6      2.285      3.109
REMARK  Name = 135403648_CalciumFolinate.pdbqt.pdb
REMARK  10 active torsions:
REMARK  status: ('A' for Active; 'I' for Inactive)
REMARK    1  A    between atoms: N_1  and  C_3
REMARK    2  A    between atoms: N_1  and  C_24
REMARK    3  A    between atoms: C_6  and  C_11
REMARK    4  A    between atoms: CA_13  and  C_15
REMARK    5  A    between atoms: CA_13  and  CB_18
REMARK    6  A    between atoms: C_15  and  O_16
REMARK    7  A    between atoms: CG_19  and  CD_21
REMARK    8  A    between atoms: CD_21  and  OE1_22
REMARK    9  A    between atoms: C_24  and  C_32
REMARK   10  A    between atoms: N_27  and  C_37
REMARK                            x       y       z     vdW  Elec       q    Type
REMARK                         _______ _______ _______ _____ _____    ______ ____
ROOT
ATOM      1  N   UNL     1     -42.682 -40.639  48.053  0.00  0.00    +0.000 N 
ATOM      2  H   UNL     1     -42.471 -39.957  47.325  0.00  0.00    +0.000 HD
ENDROOT
BRANCH   1   3
ATOM      3  C   UNL     1     -41.544 -41.384  48.430  0.00  0.00    +0.000 A 
ATOM      4  C   UNL     1     -40.939 -41.125  49.664  0.00  0.00    +0.000 A 
ATOM      5  C   UNL     1     -40.891 -42.247  47.543  0.00  0.00    +0.000 A 
ATOM      6  C   UNL     1     -39.141 -42.655  49.156  0.00  0.00    +0.000 A 
ATOM      7  C   UNL     1     -39.757 -41.766  50.033  0.00  0.00    +0.000 A 
ATOM      8  C   UNL     1     -39.710 -42.891  47.904  0.00  0.00    +0.000 A 
BRANCH   6  11
ATOM      9  O   UNL     1     -37.933 -44.282  50.316  0.00  0.00    +0.000 OA
ATOM     10  N   UNL     1     -36.737 -42.917  48.876  0.00  0.00    +0.000 N 
ATOM     11  C   ACE A   0     -37.884 -43.363  49.506  0.00  0.00    +0.000 C 
ATOM     12  H   UNL     1     -36.797 -42.142  48.221  0.00  0.00    +0.000 HD
ATOM     13  CA  UNL     1     -35.453 -43.408  49.035  0.00  0.00    +0.000 C 
BRANCH  13  15
ATOM     14  OXT UNL     1     -33.841 -43.250  47.278  0.00  0.00    +0.000 OA
ATOM     15  C   UNL     1     -34.402 -42.735  48.234  0.00  0.00    +0.000 C 
BRANCH  15  16
ATOM     16  O   UNL     1     -34.108 -41.492  48.644  0.00  0.00    +0.000 OA
ATOM     17  H   UNL     1     -34.774 -41.291  49.335  0.00  0.00    +0.000 HD
ENDBRANCH  15  16
ENDBRANCH  13  15
BRANCH  13  18
ATOM     18  CB  UNL     1     -35.157 -44.488  49.907  0.00  0.00    +0.000 C 
ATOM     19  CG  UNL     1     -34.849 -45.656  50.851  0.00  0.00    +0.000 C 
BRANCH  19  21
ATOM     20  OE2 UNL     1     -34.332 -47.880  51.352  0.00  0.00    +0.000 OA
ATOM     21  CD  UNL     1     -34.580 -46.750  51.734  0.00  0.00    +0.000 C 
BRANCH  21  22
ATOM     22  OE1 UNL     1     -34.644 -46.429  53.039  0.00  0.00    +0.000 OA
ATOM     23  HE1 UNL     1     -35.439 -45.861  53.093  0.00  0.00    +0.000 HD
ENDBRANCH  21  22
ENDBRANCH  19  21
ENDBRANCH  13  18
ENDBRANCH   6  11
ENDBRANCH   1   3
BRANCH   1  24
ATOM     24  C   UNL     1     -43.603 -40.196  49.092  0.00  0.00    +0.000 C 
BRANCH  24  31
ATOM     25  O   UNL     1     -47.584 -36.787  49.548  0.00  0.00    +0.000 OA
ATOM     26  N   UNL     1     -45.552 -38.851  49.792  0.00  0.00    +0.000 N 
ATOM     27  N   UNL     1     -45.470 -39.965  52.487  0.00  0.00    +0.000 N 
ATOM     28  N   UNL     1     -47.156 -38.460  53.158  0.00  0.00    +0.000 NA
ATOM     29  N   UNL     1     -48.234 -37.055  51.670  0.00  0.00    +0.000 N 
ATOM     30  N   UNL     1     -48.856 -37.098  53.887  0.00  0.00    +0.000 N 
ATOM     31  C   UNL     1     -44.539 -39.763  50.069  0.00  0.00    +0.000 C 
ATOM     32  C   UNL     1     -44.574 -40.209  51.400  0.00  0.00    +0.000 C 
ATOM     33  C   UNL     1     -46.411 -38.443  50.850  0.00  0.00    +0.000 A 
ATOM     34  C   UNL     1     -46.364 -38.937  52.136  0.00  0.00    +0.000 A 
ATOM     35  C   UNL     1     -47.439 -37.377  50.614  0.00  0.00    +0.000 A 
ATOM     36  C   UNL     1     -48.049 -37.566  52.906  0.00  0.00    +0.000 A 
ATOM     37  H   UNL     1     -45.153 -39.854  53.445  0.00  0.00    +0.000 HD
ATOM     38  H   UNL     1     -48.890 -36.305  51.518  0.00  0.00    +0.000 HD
ATOM     39  H   UNL     1     -48.807 -37.667  54.728  0.00  0.00    +0.000 HD
ATOM     40  H   UNL     1     -49.807 -36.870  53.627  0.00  0.00    +0.000 HD
BRANCH  26  42
ATOM     41  O   UNL     1     -45.681 -37.897  47.458  0.00  0.00    +0.000 OA
ATOM     42  C   UNL     1     -45.655 -38.358  48.539  0.00  0.00    +0.000 C 
ENDBRANCH  26  42
ENDBRANCH  24  31
ENDBRANCH   1  24
TORSDOF 10
ENDMDL
MODEL 6
REMARK VINA RESULT:      -6.4     36.150     37.830
REMARK  Name = 135403648_CalciumFolinate.pdbqt.pdb
REMARK  10 active torsions:
REMARK  status: ('A' for Active; 'I' for Inactive)
REMARK    1  A    between atoms: N_1  and  C_3
REMARK    2  A    between atoms: N_1  and  C_24
REMARK    3  A    between atoms: C_6  and  C_11
REMARK    4  A    between atoms: CA_13  and  C_15
REMARK    5  A    between atoms: CA_13  and  CB_18
REMARK    6  A    between atoms: C_15  and  O_16
REMARK    7  A    between atoms: CG_19  and  CD_21
REMARK    8  A    between atoms: CD_21  and  OE1_22
REMARK    9  A    between atoms: C_24  and  C_32
REMARK   10  A    between atoms: N_27  and  C_37
REMARK                            x       y       z     vdW  Elec       q    Type
REMARK                         _______ _______ _______ _____ _____    ______ ____
ROOT
ATOM      1  N   UNL     1     -58.242 -75.853  47.600  0.00  0.00    +0.000 N 
ATOM      2  H   UNL     1     -58.546 -76.755  47.235  0.00  0.00    +0.000 HD
ENDROOT
BRANCH   1   3
ATOM      3  C   UNL     1     -58.485 -74.801  46.691  0.00  0.00    +0.000 A 
ATOM      4  C   UNL     1     -59.518 -73.897  46.957  0.00  0.00    +0.000 A 
ATOM      5  C   UNL     1     -57.852 -74.732  45.445  0.00  0.00    +0.000 A 
ATOM      6  C   UNL     1     -59.190 -72.821  44.820  0.00  0.00    +0.000 A 
ATOM      7  C   UNL     1     -59.859 -72.905  46.038  0.00  0.00    +0.000 A 
ATOM      8  C   UNL     1     -58.186 -73.743  44.523  0.00  0.00    +0.000 A 
BRANCH   6  11
ATOM      9  O   UNL     1     -60.601 -71.217  43.879  0.00  0.00    +0.000 OA
ATOM     10  N   UNL     1     -58.544 -71.529  42.861  0.00  0.00    +0.000 N 
ATOM     11  C   ACE A   0     -59.515 -71.780  43.813  0.00  0.00    +0.000 C 
ATOM     12  H   UNL     1     -57.673 -72.054  42.886  0.00  0.00    +0.000 HD
ATOM     13  CA  UNL     1     -58.608 -70.615  41.824  0.00  0.00    +0.000 C 
BRANCH  13  15
ATOM     14  OXT UNL     1     -57.474 -70.542  39.722  0.00  0.00    +0.000 OA
ATOM     15  C   UNL     1     -57.417 -70.555  40.943  0.00  0.00    +0.000 C 
BRANCH  15  16
ATOM     16  O   UNL     1     -56.248 -70.513  41.599  0.00  0.00    +0.000 OA
ATOM     17  H   UNL     1     -55.655 -69.985  41.024  0.00  0.00    +0.000 HD
ENDBRANCH  15  16
ENDBRANCH  13  15
BRANCH  13  18
ATOM     18  CB  UNL     1     -59.741 -69.785  41.615  0.00  0.00    +0.000 C 
ATOM     19  CG  UNL     1     -60.964 -68.887  41.401  0.00  0.00    +0.000 C 
BRANCH  19  21
ATOM     20  OE2 UNL     1     -63.127 -68.403  40.658  0.00  0.00    +0.000 OA
ATOM     21  CD  UNL     1     -62.107 -68.044  41.219  0.00  0.00    +0.000 C 
BRANCH  21  22
ATOM     22  OE1 UNL     1     -61.953 -66.800  41.707  0.00  0.00    +0.000 OA
ATOM     23  HE1 UNL     1     -61.951 -66.935  42.676  0.00  0.00    +0.000 HD
ENDBRANCH  21  22
ENDBRANCH  19  21
ENDBRANCH  13  18
ENDBRANCH   6  11
ENDBRANCH   1   3
BRANCH   1  24
ATOM     24  C   UNL     1     -58.491 -75.623  49.018  0.00  0.00    +0.000 C 
BRANCH  24  31
ATOM     25  O   UNL     1     -62.570 -75.095  52.299  0.00  0.00    +0.000 OA
ATOM     26  N   UNL     1     -60.017 -75.429  50.950  0.00  0.00    +0.000 N 
ATOM     27  N   UNL     1     -57.781 -75.214  52.811  0.00  0.00    +0.000 N 
ATOM     28  N   UNL     1     -59.290 -74.767  54.568  0.00  0.00    +0.000 NA
ATOM     29  N   UNL     1     -61.584 -74.864  54.292  0.00  0.00    +0.000 N 
ATOM     30  N   UNL     1     -60.680 -74.414  56.361  0.00  0.00    +0.000 N 
ATOM     31  C   UNL     1     -58.737 -75.450  50.406  0.00  0.00    +0.000 C 
ATOM     32  C   UNL     1     -57.741 -75.308  51.385  0.00  0.00    +0.000 C 
ATOM     33  C   UNL     1     -60.161 -75.204  52.347  0.00  0.00    +0.000 A 
ATOM     34  C   UNL     1     -59.116 -75.069  53.234  0.00  0.00    +0.000 A 
ATOM     35  C   UNL     1     -61.529 -75.061  52.947  0.00  0.00    +0.000 A 
ATOM     36  C   UNL     1     -60.482 -74.685  55.050  0.00  0.00    +0.000 A 
ATOM     37  H   UNL     1     -57.169 -74.600  53.339  0.00  0.00    +0.000 HD
ATOM     38  H   UNL     1     -62.503 -74.721  54.681  0.00  0.00    +0.000 HD
ATOM     39  H   UNL     1     -59.825 -74.499  56.904  0.00  0.00    +0.000 HD
ATOM     40  H   UNL     1     -61.470 -74.863  56.807  0.00  0.00    +0.000 HD
BRANCH  26  42
ATOM     41  O   UNL     1     -61.961 -75.775  49.375  0.00  0.00    +0.000 OA
ATOM     42  C   UNL     1     -61.075 -75.584  50.123  0.00  0.00    +0.000 C 
ENDBRANCH  26  42
ENDBRANCH  24  31
ENDBRANCH   1  24
TORSDOF 10
ENDMDL
MODEL 7
REMARK VINA RESULT:      -6.3     26.721     27.763
REMARK  Name = 135403648_CalciumFolinate.pdbqt.pdb
REMARK  10 active torsions:
REMARK  status: ('A' for Active; 'I' for Inactive)
REMARK    1  A    between atoms: N_1  and  C_3
REMARK    2  A    between atoms: N_1  and  C_24
REMARK    3  A    between atoms: C_6  and  C_11
REMARK    4  A    between atoms: CA_13  and  C_15
REMARK    5  A    between atoms: CA_13  and  CB_18
REMARK    6  A    between atoms: C_15  and  O_16
REMARK    7  A    between atoms: CG_19  and  CD_21
REMARK    8  A    between atoms: CD_21  and  OE1_22
REMARK    9  A    between atoms: C_24  and  C_32
REMARK   10  A    between atoms: N_27  and  C_37
REMARK                            x       y       z     vdW  Elec       q    Type
REMARK                         _______ _______ _______ _____ _____    ______ ____
ROOT
ATOM      1  N   UNL     1     -31.470 -66.175  61.161  0.00  0.00    +0.000 N 
ATOM      2  H   UNL     1     -30.881 -66.867  61.623  0.00  0.00    +0.000 HD
ENDROOT
BRANCH   1   3
ATOM      3  C   UNL     1     -31.676 -66.476  59.798  0.00  0.00    +0.000 A 
ATOM      4  C   UNL     1     -32.735 -65.867  59.119  0.00  0.00    +0.000 A 
ATOM      5  C   UNL     1     -30.972 -67.495  59.145  0.00  0.00    +0.000 A 
ATOM      6  C   UNL     1     -32.300 -67.197  57.150  0.00  0.00    +0.000 A 
ATOM      7  C   UNL     1     -33.037 -66.211  57.801  0.00  0.00    +0.000 A 
ATOM      8  C   UNL     1     -31.267 -67.843  57.829  0.00  0.00    +0.000 A 
BRANCH   6  11
ATOM      9  O   UNL     1     -31.958 -67.045  54.846  0.00  0.00    +0.000 OA
ATOM     10  N   UNL     1     -33.546 -68.567  55.572  0.00  0.00    +0.000 N 
ATOM     11  C   ACE A   0     -32.582 -67.593  55.748  0.00  0.00    +0.000 C 
ATOM     12  H   UNL     1     -34.014 -68.960  56.385  0.00  0.00    +0.000 HD
ATOM     13  CA  UNL     1     -33.985 -69.100  54.373  0.00  0.00    +0.000 C 
BRANCH  13  15
ATOM     14  OXT UNL     1     -35.464 -70.574  55.535  0.00  0.00    +0.000 OA
ATOM     15  C   UNL     1     -35.041 -70.137  54.475  0.00  0.00    +0.000 C 
BRANCH  15  16
ATOM     16  O   UNL     1     -35.508 -70.566  53.293  0.00  0.00    +0.000 OA
ATOM     17  H   UNL     1     -36.463 -70.724  53.442  0.00  0.00    +0.000 HD
ENDBRANCH  15  16
ENDBRANCH  13  15
BRANCH  13  18
ATOM     18  CB  UNL     1     -33.459 -68.685  53.121  0.00  0.00    +0.000 C 
ATOM     19  CG  UNL     1     -32.901 -68.240  51.764  0.00  0.00    +0.000 C 
BRANCH  19  21
ATOM     20  OE2 UNL     1     -31.399 -67.145  50.348  0.00  0.00    +0.000 OA
ATOM     21  CD  UNL     1     -32.397 -67.828  50.489  0.00  0.00    +0.000 C 
BRANCH  21  22
ATOM     22  OE1 UNL     1     -33.138 -68.245  49.446  0.00  0.00    +0.000 OA
ATOM     23  HE1 UNL     1     -32.593 -68.002  48.671  0.00  0.00    +0.000 HD
ENDBRANCH  21  22
ENDBRANCH  19  21
ENDBRANCH  13  18
ENDBRANCH   6  11
ENDBRANCH   1   3
BRANCH   1  24
ATOM     24  C   UNL     1     -32.592 -65.670  61.943  0.00  0.00    +0.000 C 
BRANCH  24  31
ATOM     25  O   UNL     1     -33.636 -62.841  66.254  0.00  0.00    +0.000 OA
ATOM     26  N   UNL     1     -33.602 -64.360  63.776  0.00  0.00    +0.000 N 
ATOM     27  N   UNL     1     -36.300 -65.012  62.878  0.00  0.00    +0.000 N 
ATOM     28  N   UNL     1     -37.188 -63.971  64.798  0.00  0.00    +0.000 NA
ATOM     29  N   UNL     1     -35.871 -62.821  66.312  0.00  0.00    +0.000 N 
ATOM     30  N   UNL     1     -38.155 -62.904  66.588  0.00  0.00    +0.000 N 
ATOM     31  C   UNL     1     -33.716 -65.189  62.665  0.00  0.00    +0.000 C 
ATOM     32  C   UNL     1     -35.055 -65.463  62.341  0.00  0.00    +0.000 C 
ATOM     33  C   UNL     1     -34.787 -63.969  64.460  0.00  0.00    +0.000 A 
ATOM     34  C   UNL     1     -36.066 -64.295  64.066  0.00  0.00    +0.000 A 
ATOM     35  C   UNL     1     -34.694 -63.171  65.726  0.00  0.00    +0.000 A 
ATOM     36  C   UNL     1     -37.068 -63.257  65.864  0.00  0.00    +0.000 A 
ATOM     37  H   UNL     1     -37.108 -65.619  62.978  0.00  0.00    +0.000 HD
ATOM     38  H   UNL     1     -35.800 -62.327  67.187  0.00  0.00    +0.000 HD
ATOM     39  H   UNL     1     -39.022 -63.082  66.088  0.00  0.00    +0.000 HD
ATOM     40  H   UNL     1     -38.139 -61.992  67.024  0.00  0.00    +0.000 HD
BRANCH  26  42
ATOM     41  O   UNL     1     -31.306 -63.606  64.508  0.00  0.00    +0.000 OA
ATOM     42  C   UNL     1     -32.369 -63.991  64.185  0.00  0.00    +0.000 C 
ENDBRANCH  26  42
ENDBRANCH  24  31
ENDBRANCH   1  24
TORSDOF 10
ENDMDL
MODEL 8
REMARK VINA RESULT:      -6.3     36.673     38.572
REMARK  Name = 135403648_CalciumFolinate.pdbqt.pdb
REMARK  10 active torsions:
REMARK  status: ('A' for Active; 'I' for Inactive)
REMARK    1  A    between atoms: N_1  and  C_3
REMARK    2  A    between atoms: N_1  and  C_24
REMARK    3  A    between atoms: C_6  and  C_11
REMARK    4  A    between atoms: CA_13  and  C_15
REMARK    5  A    between atoms: CA_13  and  CB_18
REMARK    6  A    between atoms: C_15  and  O_16
REMARK    7  A    between atoms: CG_19  and  CD_21
REMARK    8  A    between atoms: CD_21  and  OE1_22
REMARK    9  A    between atoms: C_24  and  C_32
REMARK   10  A    between atoms: N_27  and  C_37
REMARK                            x       y       z     vdW  Elec       q    Type
REMARK                         _______ _______ _______ _____ _____    ______ ____
ROOT
ATOM      1  N   UNL     1     -59.607 -74.701  45.032  0.00  0.00    +0.000 N 
ATOM      2  H   UNL     1     -59.843 -75.604  44.621  0.00  0.00    +0.000 HD
ENDROOT
BRANCH   1   3
ATOM      3  C   UNL     1     -60.488 -73.680  44.615  0.00  0.00    +0.000 A 
ATOM      4  C   UNL     1     -60.814 -73.574  43.260  0.00  0.00    +0.000 A 
ATOM      5  C   UNL     1     -60.907 -72.660  45.477  0.00  0.00    +0.000 A 
ATOM      6  C   UNL     1     -62.044 -71.536  43.667  0.00  0.00    +0.000 A 
ATOM      7  C   UNL     1     -61.598 -72.521  42.789  0.00  0.00    +0.000 A 
ATOM      8  C   UNL     1     -61.691 -71.606  45.015  0.00  0.00    +0.000 A 
BRANCH   6  11
ATOM      9  O   UNL     1     -62.334 -69.422  42.717  0.00  0.00    +0.000 OA
ATOM     10  N   UNL     1     -64.247 -70.539  43.395  0.00  0.00    +0.000 N 
ATOM     11  C   ACE A   0     -62.884 -70.399  43.213  0.00  0.00    +0.000 C 
ATOM     12  H   UNL     1     -64.610 -71.388  43.821  0.00  0.00    +0.000 HD
ATOM     13  CA  UNL     1     -65.231 -69.626  43.060  0.00  0.00    +0.000 C 
BRANCH  13  15
ATOM     14  OXT UNL     1     -67.613 -69.456  42.946  0.00  0.00    +0.000 OA
ATOM     15  C   UNL     1     -66.623 -70.033  43.371  0.00  0.00    +0.000 C 
BRANCH  15  16
ATOM     16  O   UNL     1     -66.716 -71.107  44.171  0.00  0.00    +0.000 OA
ATOM     17  H   UNL     1     -66.830 -71.865  43.561  0.00  0.00    +0.000 HD
ENDBRANCH  15  16
ENDBRANCH  13  15
BRANCH  13  18
ATOM     18  CB  UNL     1     -64.932 -68.377  42.455  0.00  0.00    +0.000 C 
ATOM     19  CG  UNL     1     -64.601 -67.026  41.810  0.00  0.00    +0.000 C 
BRANCH  19  21
ATOM     20  OE2 UNL     1     -63.216 -65.191  41.391  0.00  0.00    +0.000 OA
ATOM     21  CD  UNL     1     -64.278 -65.762  41.220  0.00  0.00    +0.000 C 
BRANCH  21  22
ATOM     22  OE1 UNL     1     -65.264 -65.240  40.469  0.00  0.00    +0.000 OA
ATOM     23  HE1 UNL     1     -64.851 -65.149  39.586  0.00  0.00    +0.000 HD
ENDBRANCH  21  22
ENDBRANCH  19  21
ENDBRANCH  13  18
ENDBRANCH   6  11
ENDBRANCH   1   3
BRANCH   1  24
ATOM     24  C   UNL     1     -59.178 -74.728  46.425  0.00  0.00    +0.000 C 
BRANCH  24  31
ATOM     25  O   UNL     1     -61.293 -75.349  51.202  0.00  0.00    +0.000 OA
ATOM     26  N   UNL     1     -59.642 -75.069  48.826  0.00  0.00    +0.000 N 
ATOM     27  N   UNL     1     -56.819 -74.785  49.506  0.00  0.00    +0.000 N 
ATOM     28  N   UNL     1     -57.367 -74.850  51.798  0.00  0.00    +0.000 NA
ATOM     29  N   UNL     1     -59.514 -75.266  52.553  0.00  0.00    +0.000 N 
ATOM     30  N   UNL     1     -57.788 -74.994  54.052  0.00  0.00    +0.000 N 
ATOM     31  C   UNL     1     -58.763 -74.807  47.781  0.00  0.00    +0.000 C 
ATOM     32  C   UNL     1     -57.439 -74.657  48.224  0.00  0.00    +0.000 C 
ATOM     33  C   UNL     1     -59.137 -75.082  50.156  0.00  0.00    +0.000 A 
ATOM     34  C   UNL     1     -57.812 -74.917  50.495  0.00  0.00    +0.000 A 
ATOM     35  C   UNL     1     -60.075 -75.248  51.314  0.00  0.00    +0.000 A 
ATOM     36  C   UNL     1     -58.201 -75.030  52.764  0.00  0.00    +0.000 A 
ATOM     37  H   UNL     1     -56.077 -74.168  49.822  0.00  0.00    +0.000 HD
ATOM     38  H   UNL     1     -60.155 -75.331  53.328  0.00  0.00    +0.000 HD
ATOM     39  H   UNL     1     -56.775 -75.023  54.130  0.00  0.00    +0.000 HD
ATOM     40  H   UNL     1     -58.245 -75.623  54.698  0.00  0.00    +0.000 HD
BRANCH  26  42
ATOM     41  O   UNL     1     -62.080 -75.380  48.244  0.00  0.00    +0.000 OA
ATOM     42  C   UNL     1     -60.948 -75.264  48.541  0.00  0.00    +0.000 C 
ENDBRANCH  26  42
ENDBRANCH  24  31
ENDBRANCH   1  24
TORSDOF 10
ENDMDL
MODEL 9
REMARK VINA RESULT:      -6.2     20.095     23.153
REMARK  Name = 135403648_CalciumFolinate.pdbqt.pdb
REMARK  10 active torsions:
REMARK  status: ('A' for Active; 'I' for Inactive)
REMARK    1  A    between atoms: N_1  and  C_3
REMARK    2  A    between atoms: N_1  and  C_24
REMARK    3  A    between atoms: C_6  and  C_11
REMARK    4  A    between atoms: CA_13  and  C_15
REMARK    5  A    between atoms: CA_13  and  CB_18
REMARK    6  A    between atoms: C_15  and  O_16
REMARK    7  A    between atoms: CG_19  and  CD_21
REMARK    8  A    between atoms: CD_21  and  OE1_22
REMARK    9  A    between atoms: C_24  and  C_32
REMARK   10  A    between atoms: N_27  and  C_37
REMARK                            x       y       z     vdW  Elec       q    Type
REMARK                         _______ _______ _______ _____ _____    ______ ____
ROOT
ATOM      1  N   UNL     1     -35.419 -58.198  36.836  0.00  0.00    +0.000 N 
ATOM      2  H   UNL     1     -35.045 -58.739  36.057  0.00  0.00    +0.000 HD
ENDROOT
BRANCH   1   3
ATOM      3  C   UNL     1     -36.559 -57.453  36.467  0.00  0.00    +0.000 A 
ATOM      4  C   UNL     1     -37.536 -58.054  35.668  0.00  0.00    +0.000 A 
ATOM      5  C   UNL     1     -36.665 -56.080  36.719  0.00  0.00    +0.000 A 
ATOM      6  C   UNL     1     -38.743 -55.970  35.492  0.00  0.00    +0.000 A 
ATOM      7  C   UNL     1     -38.628 -57.326  35.197  0.00  0.00    +0.000 A 
ATOM      8  C   UNL     1     -37.754 -55.346  36.253  0.00  0.00    +0.000 A 
BRANCH   6  11
ATOM      9  O   UNL     1     -39.673 -54.240  34.230  0.00  0.00    +0.000 OA
ATOM     10  N   UNL     1     -41.131 -55.502  35.513  0.00  0.00    +0.000 N 
ATOM     11  C   ACE A   0     -39.889 -55.155  35.017  0.00  0.00    +0.000 C 
ATOM     12  H   UNL     1     -41.209 -56.277  36.168  0.00  0.00    +0.000 HD
ATOM     13  CA  UNL     1     -42.343 -54.898  35.226  0.00  0.00    +0.000 C 
BRANCH  13  15
ATOM     14  OXT UNL     1     -44.472 -54.811  36.308  0.00  0.00    +0.000 OA
ATOM     15  C   UNL     1     -43.528 -55.475  35.906  0.00  0.00    +0.000 C 
BRANCH  15  16
ATOM     16  O   UNL     1     -43.486 -56.808  36.049  0.00  0.00    +0.000 OA
ATOM     17  H   UNL     1     -42.531 -57.028  36.083  0.00  0.00    +0.000 HD
ENDBRANCH  15  16
ENDBRANCH  13  15
BRANCH  13  18
ATOM     18  CB  UNL     1     -42.449 -53.797  34.336  0.00  0.00    +0.000 C 
ATOM     19  CG  UNL     1     -42.555 -52.603  33.381  0.00  0.00    +0.000 C 
BRANCH  19  21
ATOM     20  OE2 UNL     1     -41.726 -51.121  31.775  0.00  0.00    +0.000 OA
ATOM     21  CD  UNL     1     -42.639 -51.480  32.497  0.00  0.00    +0.000 C 
BRANCH  21  22
ATOM     22  OE1 UNL     1     -43.816 -50.831  32.545  0.00  0.00    +0.000 OA
ATOM     23  HE1 UNL     1     -44.066 -50.887  33.490  0.00  0.00    +0.000 HD
ENDBRANCH  21  22
ENDBRANCH  19  21
ENDBRANCH  13  18
ENDBRANCH   6  11
ENDBRANCH   1   3
BRANCH   1  24
ATOM     24  C   UNL     1     -35.405 -58.858  38.136  0.00  0.00    +0.000 C 
BRANCH  24  31
ATOM     25  O   UNL     1     -35.714 -63.667  40.247  0.00  0.00    +0.000 OA
ATOM     26  N   UNL     1     -35.392 -60.854  39.589  0.00  0.00    +0.000 N 
ATOM     27  N   UNL     1     -35.062 -59.221  41.984  0.00  0.00    +0.000 N 
ATOM     28  N   UNL     1     -35.326 -61.141  43.327  0.00  0.00    +0.000 NA
ATOM     29  N   UNL     1     -35.493 -63.269  42.436  0.00  0.00    +0.000 N 
ATOM     30  N   UNL     1     -35.481 -62.963  44.718  0.00  0.00    +0.000 N 
ATOM     31  C   UNL     1     -35.349 -59.475  39.414  0.00  0.00    +0.000 C 
ATOM     32  C   UNL     1     -35.221 -58.787  40.632  0.00  0.00    +0.000 C 
ATOM     33  C   UNL     1     -35.376 -61.374  40.913  0.00  0.00    +0.000 A 
ATOM     34  C   UNL     1     -35.253 -60.613  42.056  0.00  0.00    +0.000 A 
ATOM     35  C   UNL     1     -35.536 -62.848  41.143  0.00  0.00    +0.000 A 
ATOM     36  C   UNL     1     -35.431 -62.416  43.480  0.00  0.00    +0.000 A 
ATOM     37  H   UNL     1     -35.513 -58.756  42.767  0.00  0.00    +0.000 HD
ATOM     38  H   UNL     1     -35.648 -64.253  42.585  0.00  0.00    +0.000 HD
ATOM     39  H   UNL     1     -35.221 -62.298  45.441  0.00  0.00    +0.000 HD
ATOM     40  H   UNL     1     -35.034 -63.862  44.839  0.00  0.00    +0.000 HD
BRANCH  26  42
ATOM     41  O   UNL     1     -35.628 -62.357  37.574  0.00  0.00    +0.000 OA
ATOM     42  C   UNL     1     -35.486 -61.643  38.497  0.00  0.00    +0.000 C 
ENDBRANCH  26  42
ENDBRANCH  24  31
ENDBRANCH   1  24
TORSDOF 10
ENDMDL
