MODEL 1
REMARK VINA RESULT:      -9.0      0.000      0.000
REMARK  Name = 135423438_Nintedanib.pdbqt.pdb
REMARK  9 active torsions:
REMARK  status: ('A' for Active; 'I' for Inactive)
REMARK    1  A    between atoms: N_1  and  C_22
REMARK    2  A    between atoms: C_2  and  C_4
REMARK    3  A    between atoms: C_2  and  C_37
REMARK    4  A    between atoms: C_7  and  O_13
REMARK    5  A    between atoms: C_10  and  C_16
REMARK    6  A    between atoms: C_16  and  O_17
REMARK    7  A    between atoms: C_19  and  N_26
REMARK    8  A    between atoms: C_27  and  C_29
REMARK    9  A    between atoms: C_29  and  N_30
REMARK                            x       y       z     vdW  Elec       q    Type
REMARK                         _______ _______ _______ _____ _____    ______ ____
ROOT
ATOM      1  N   UNL     1     -63.193 -67.415  40.731  0.00  0.00    +0.000 NA
ATOM      2  C   UNL     1     -62.471 -66.960  39.747  0.00  0.00    +0.000 C 
ENDROOT
BRANCH   2   4
ATOM      3  N   UNL     1     -58.992 -66.161  40.572  0.00  0.00    +0.000 N 
ATOM      4  C   UNL     1     -61.167 -66.383  40.100  0.00  0.00    +0.000 A 
ATOM      5  C   UNL     1     -60.886 -65.005  40.406  0.00  0.00    +0.000 A 
ATOM      6  C   UNL     1     -59.526 -64.902  40.692  0.00  0.00    +0.000 A 
ATOM      7  C   UNL     1     -59.963 -67.064  40.221  0.00  0.00    +0.000 A 
ATOM      8  C   UNL     1     -61.667 -63.833  40.459  0.00  0.00    +0.000 A 
ATOM      9  C   UNL     1     -58.907 -63.694  41.032  0.00  0.00    +0.000 A 
ATOM     10  C   UNL     1     -59.712 -62.548  41.079  0.00  0.00    +0.000 A 
ATOM     11  C   UNL     1     -61.071 -62.616  40.796  0.00  0.00    +0.000 A 
ATOM     12  H   UNL     1     -58.019 -66.378  40.728  0.00  0.00    +0.000 HD
BRANCH   7  13
ATOM     13  O   UNL     1     -59.682 -68.353  40.063  0.00  0.00    +0.000 OA
ATOM     14  H   UNL     1     -58.902 -68.604  40.589  0.00  0.00    +0.000 HD
ENDBRANCH   7  13
BRANCH  10  16
ATOM     15  O   UNL     1     -59.830 -60.219  41.517  0.00  0.00    +0.000 OA
ATOM     16  C   UNL     1     -59.145 -61.227  41.429  0.00  0.00    +0.000 C 
BRANCH  16  17
ATOM     17  O   UNL     1     -57.801 -61.365  41.616  0.00  0.00    +0.000 OA
ATOM     18  C   UNL     1     -56.944 -60.981  40.571  0.00  0.00    +0.000 C 
ENDBRANCH  16  17
ENDBRANCH  10  16
ENDBRANCH   2   4
BRANCH   1  22
ATOM     19  C   UNL     1     -67.041 -69.072  40.143  0.00  0.00    +0.000 A 
ATOM     20  C   UNL     1     -65.899 -69.875  40.193  0.00  0.00    +0.000 A 
ATOM     21  C   UNL     1     -66.859 -67.691  40.295  0.00  0.00    +0.000 A 
ATOM     22  C   UNL     1     -64.464 -67.952  40.498  0.00  0.00    +0.000 A 
ATOM     23  C   UNL     1     -64.628 -69.331  40.378  0.00  0.00    +0.000 A 
ATOM     24  C   UNL     1     -65.594 -67.136  40.481  0.00  0.00    +0.000 A 
BRANCH  19  26
ATOM     25  O   UNL     1     -69.112 -69.229  42.159  0.00  0.00    +0.000 OA
ATOM     26  N   UNL     1     -68.359 -69.631  39.945  0.00  0.00    +0.000 N 
ATOM     27  C   UNL     1     -69.284 -69.648  41.019  0.00  0.00    +0.000 C 
ATOM     28  C   UNL     1     -68.620 -70.154  38.600  0.00  0.00    +0.000 C 
BRANCH  27  29
ATOM     29  C   UNL     1     -70.589 -70.234  40.745  0.00  0.00    +0.000 C 
BRANCH  29  30
ATOM     30  N   UNL     1     -71.906 -70.816  40.498  0.00  0.00    +0.000 N 
ATOM     31  N   UNL     1     -74.384 -70.063  42.926  0.00  0.00    +0.000 N 
ATOM     32  C   UNL     1     -72.315 -71.504  41.754  0.00  0.00    +0.000 C 
ATOM     33  C   UNL     1     -72.888 -69.701  40.608  0.00  0.00    +0.000 C 
ATOM     34  C   UNL     1     -73.399 -71.173  42.820  0.00  0.00    +0.000 C 
ATOM     35  C   UNL     1     -73.972 -69.370  41.675  0.00  0.00    +0.000 C 
ATOM     36  C   UNL     1     -73.957 -69.223  44.036  0.00  0.00    +0.000 C 
ENDBRANCH  29  30
ENDBRANCH  27  29
ENDBRANCH  19  26
ENDBRANCH   1  22
BRANCH   2  37
ATOM     37  C   UNL     1     -62.869 -66.980  38.328  0.00  0.00    +0.000 A 
ATOM     38  C   UNL     1     -63.593 -65.911  37.803  0.00  0.00    +0.000 A 
ATOM     39  C   UNL     1     -62.483 -68.056  37.530  0.00  0.00    +0.000 A 
ATOM     40  C   UNL     1     -63.942 -65.927  36.457  0.00  0.00    +0.000 A 
ATOM     41  C   UNL     1     -62.838 -68.062  36.185  0.00  0.00    +0.000 A 
ATOM     42  C   UNL     1     -63.565 -66.999  35.649  0.00  0.00    +0.000 A 
ENDBRANCH   2  37
TORSDOF 9
ENDMDL
MODEL 2
REMARK VINA RESULT:      -8.9      2.541      3.386
REMARK  Name = 135423438_Nintedanib.pdbqt.pdb
REMARK  9 active torsions:
REMARK  status: ('A' for Active; 'I' for Inactive)
REMARK    1  A    between atoms: N_1  and  C_22
REMARK    2  A    between atoms: C_2  and  C_4
REMARK    3  A    between atoms: C_2  and  C_37
REMARK    4  A    between atoms: C_7  and  O_13
REMARK    5  A    between atoms: C_10  and  C_16
REMARK    6  A    between atoms: C_16  and  O_17
REMARK    7  A    between atoms: C_19  and  N_26
REMARK    8  A    between atoms: C_27  and  C_29
REMARK    9  A    between atoms: C_29  and  N_30
REMARK                            x       y       z     vdW  Elec       q    Type
REMARK                         _______ _______ _______ _____ _____    ______ ____
ROOT
ATOM      1  N   UNL     1     -63.991 -65.692  43.064  0.00  0.00    +0.000 NA
ATOM      2  C   UNL     1     -63.194 -65.081  42.236  0.00  0.00    +0.000 C 
ENDROOT
BRANCH   2   4
ATOM      3  N   UNL     1     -61.795 -62.190  43.998  0.00  0.00    +0.000 N 
ATOM      4  C   UNL     1     -62.419 -63.957  42.777  0.00  0.00    +0.000 A 
ATOM      5  C   UNL     1     -61.126 -63.506  42.333  0.00  0.00    +0.000 A 
ATOM      6  C   UNL     1     -60.767 -62.409  43.115  0.00  0.00    +0.000 A 
ATOM      7  C   UNL     1     -62.797 -63.107  43.808  0.00  0.00    +0.000 A 
ATOM      8  C   UNL     1     -60.224 -63.937  41.340  0.00  0.00    +0.000 A 
ATOM      9  C   UNL     1     -59.561 -61.719  42.953  0.00  0.00    +0.000 A 
ATOM     10  C   UNL     1     -58.688 -62.170  41.955  0.00  0.00    +0.000 A 
ATOM     11  C   UNL     1     -59.014 -63.264  41.161  0.00  0.00    +0.000 A 
ATOM     12  H   UNL     1     -61.801 -61.450  44.685  0.00  0.00    +0.000 HD
BRANCH   7  13
ATOM     13  O   UNL     1     -63.905 -63.081  44.541  0.00  0.00    +0.000 OA
ATOM     14  H   UNL     1     -63.784 -62.525  45.331  0.00  0.00    +0.000 HD
ENDBRANCH   7  13
BRANCH  10  16
ATOM     15  O   UNL     1     -56.639 -61.175  42.619  0.00  0.00    +0.000 OA
ATOM     16  C   UNL     1     -57.390 -61.504  41.712  0.00  0.00    +0.000 C 
BRANCH  16  17
ATOM     17  O   UNL     1     -57.225 -61.347  40.368  0.00  0.00    +0.000 OA
ATOM     18  C   UNL     1     -56.003 -60.830  39.907  0.00  0.00    +0.000 C 
ENDBRANCH  16  17
ENDBRANCH  10  16
ENDBRANCH   2   4
BRANCH   1  22
ATOM     19  C   UNL     1     -66.489 -68.889  41.863  0.00  0.00    +0.000 A 
ATOM     20  C   UNL     1     -65.478 -69.067  42.810  0.00  0.00    +0.000 A 
ATOM     21  C   UNL     1     -66.641 -67.604  41.324  0.00  0.00    +0.000 A 
ATOM     22  C   UNL     1     -64.796 -66.753  42.634  0.00  0.00    +0.000 A 
ATOM     23  C   UNL     1     -64.648 -68.018  43.202  0.00  0.00    +0.000 A 
ATOM     24  C   UNL     1     -65.817 -66.547  41.708  0.00  0.00    +0.000 A 
BRANCH  19  26
ATOM     25  O   UNL     1     -69.259 -69.220  42.634  0.00  0.00    +0.000 OA
ATOM     26  N   UNL     1     -67.348 -69.976  41.448  0.00  0.00    +0.000 N 
ATOM     27  C   UNL     1     -68.690 -70.021  41.899  0.00  0.00    +0.000 C 
ATOM     28  C   UNL     1     -66.719 -70.969  40.573  0.00  0.00    +0.000 C 
BRANCH  27  29
ATOM     29  C   UNL     1     -69.491 -71.150  41.446  0.00  0.00    +0.000 C 
BRANCH  29  30
ATOM     30  N   UNL     1     -70.297 -72.270  40.964  0.00  0.00    +0.000 N 
ATOM     31  N   UNL     1     -72.715 -71.456  38.496  0.00  0.00    +0.000 N 
ATOM     32  C   UNL     1     -71.722 -71.847  41.064  0.00  0.00    +0.000 C 
ATOM     33  C   UNL     1     -70.230 -72.230  39.477  0.00  0.00    +0.000 C 
ATOM     34  C   UNL     1     -72.782 -71.488  39.982  0.00  0.00    +0.000 C 
ATOM     35  C   UNL     1     -71.290 -71.870  38.395  0.00  0.00    +0.000 C 
ATOM     36  C   UNL     1     -72.779 -70.056  38.101  0.00  0.00    +0.000 C 
ENDBRANCH  29  30
ENDBRANCH  27  29
ENDBRANCH  19  26
ENDBRANCH   1  22
BRANCH   2  37
ATOM     37  C   UNL     1     -63.023 -65.433  40.815  0.00  0.00    +0.000 A 
ATOM     38  C   UNL     1     -62.372 -66.617  40.475  0.00  0.00    +0.000 A 
ATOM     39  C   UNL     1     -63.546 -64.587  39.839  0.00  0.00    +0.000 A 
ATOM     40  C   UNL     1     -62.238 -66.954  39.132  0.00  0.00    +0.000 A 
ATOM     41  C   UNL     1     -63.406 -64.933  38.499  0.00  0.00    +0.000 A 
ATOM     42  C   UNL     1     -62.754 -66.114  38.146  0.00  0.00    +0.000 A 
ENDBRANCH   2  37
TORSDOF 9
ENDMDL
MODEL 3
REMARK VINA RESULT:      -7.8      2.666      3.292
REMARK  Name = 135423438_Nintedanib.pdbqt.pdb
REMARK  9 active torsions:
REMARK  status: ('A' for Active; 'I' for Inactive)
REMARK    1  A    between atoms: N_1  and  C_22
REMARK    2  A    between atoms: C_2  and  C_4
REMARK    3  A    between atoms: C_2  and  C_37
REMARK    4  A    between atoms: C_7  and  O_13
REMARK    5  A    between atoms: C_10  and  C_16
REMARK    6  A    between atoms: C_16  and  O_17
REMARK    7  A    between atoms: C_19  and  N_26
REMARK    8  A    between atoms: C_27  and  C_29
REMARK    9  A    between atoms: C_29  and  N_30
REMARK                            x       y       z     vdW  Elec       q    Type
REMARK                         _______ _______ _______ _____ _____    ______ ____
ROOT
ATOM      1  N   UNL     1     -64.387 -65.901  41.352  0.00  0.00    +0.000 NA
ATOM      2  C   UNL     1     -63.238 -66.067  40.763  0.00  0.00    +0.000 C 
ENDROOT
BRANCH   2   4
ATOM      3  N   UNL     1     -61.622 -63.173  39.202  0.00  0.00    +0.000 N 
ATOM      4  C   UNL     1     -62.507 -64.849  40.390  0.00  0.00    +0.000 A 
ATOM      5  C   UNL     1     -61.750 -63.994  41.266  0.00  0.00    +0.000 A 
ATOM      6  C   UNL     1     -61.216 -62.962  40.496  0.00  0.00    +0.000 A 
ATOM      7  C   UNL     1     -62.394 -64.304  39.118  0.00  0.00    +0.000 A 
ATOM      8  C   UNL     1     -61.476 -64.001  42.649  0.00  0.00    +0.000 A 
ATOM      9  C   UNL     1     -60.422 -61.942  41.032  0.00  0.00    +0.000 A 
ATOM     10  C   UNL     1     -60.165 -61.981  42.408  0.00  0.00    +0.000 A 
ATOM     11  C   UNL     1     -60.685 -62.994  43.206  0.00  0.00    +0.000 A 
ATOM     12  H   UNL     1     -61.375 -62.574  38.428  0.00  0.00    +0.000 HD
BRANCH   7  13
ATOM     13  O   UNL     1     -62.889 -64.718  37.956  0.00  0.00    +0.000 OA
ATOM     14  H   UNL     1     -62.476 -65.557  37.685  0.00  0.00    +0.000 HD
ENDBRANCH   7  13
BRANCH  10  16
ATOM     15  O   UNL     1     -59.789 -59.866  43.417  0.00  0.00    +0.000 OA
ATOM     16  C   UNL     1     -59.336 -60.945  43.062  0.00  0.00    +0.000 C 
BRANCH  16  17
ATOM     17  O   UNL     1     -58.061 -61.413  43.176  0.00  0.00    +0.000 OA
ATOM     18  C   UNL     1     -57.199 -61.260  42.078  0.00  0.00    +0.000 C 
ENDBRANCH  16  17
ENDBRANCH  10  16
ENDBRANCH   2   4
BRANCH   1  22
ATOM     19  C   UNL     1     -66.814 -69.160  42.532  0.00  0.00    +0.000 A 
ATOM     20  C   UNL     1     -65.675 -68.796  43.255  0.00  0.00    +0.000 A 
ATOM     21  C   UNL     1     -67.119 -68.399  41.396  0.00  0.00    +0.000 A 
ATOM     22  C   UNL     1     -65.173 -67.001  41.714  0.00  0.00    +0.000 A 
ATOM     23  C   UNL     1     -64.868 -67.728  42.864  0.00  0.00    +0.000 A 
ATOM     24  C   UNL     1     -66.320 -67.329  40.995  0.00  0.00    +0.000 A 
BRANCH  19  26
ATOM     25  O   UNL     1     -69.608 -68.974  43.263  0.00  0.00    +0.000 OA
ATOM     26  N   UNL     1     -67.649 -70.271  42.930  0.00  0.00    +0.000 N 
ATOM     27  C   UNL     1     -69.007 -70.043  43.265  0.00  0.00    +0.000 C 
ATOM     28  C   UNL     1     -66.982 -71.575  42.957  0.00  0.00    +0.000 C 
BRANCH  27  29
ATOM     29  C   UNL     1     -69.783 -71.210  43.664  0.00  0.00    +0.000 C 
BRANCH  29  30
ATOM     30  N   UNL     1     -70.535 -72.396  44.068  0.00  0.00    +0.000 N 
ATOM     31  N   UNL     1     -72.682 -71.961  46.862  0.00  0.00    +0.000 N 
ATOM     32  C   UNL     1     -70.316 -72.566  45.531  0.00  0.00    +0.000 C 
ATOM     33  C   UNL     1     -71.960 -71.976  44.175  0.00  0.00    +0.000 C 
ATOM     34  C   UNL     1     -71.255 -72.372  46.756  0.00  0.00    +0.000 C 
ATOM     35  C   UNL     1     -72.900 -71.782  45.401  0.00  0.00    +0.000 C 
ATOM     36  C   UNL     1     -72.694 -70.631  47.457  0.00  0.00    +0.000 C 
ENDBRANCH  29  30
ENDBRANCH  27  29
ENDBRANCH  19  26
ENDBRANCH   1  22
BRANCH   2  37
ATOM     37  C   UNL     1     -62.633 -67.374  40.446  0.00  0.00    +0.000 A 
ATOM     38  C   UNL     1     -61.603 -67.865  41.246  0.00  0.00    +0.000 A 
ATOM     39  C   UNL     1     -63.129 -68.108  39.370  0.00  0.00    +0.000 A 
ATOM     40  C   UNL     1     -61.056 -69.111  40.955  0.00  0.00    +0.000 A 
ATOM     41  C   UNL     1     -62.574 -69.352  39.088  0.00  0.00    +0.000 A 
ATOM     42  C   UNL     1     -61.540 -69.853  39.879  0.00  0.00    +0.000 A 
ENDBRANCH   2  37
TORSDOF 9
ENDMDL
MODEL 4
REMARK VINA RESULT:      -7.5     35.693     38.691
REMARK  Name = 135423438_Nintedanib.pdbqt.pdb
REMARK  9 active torsions:
REMARK  status: ('A' for Active; 'I' for Inactive)
REMARK    1  A    between atoms: N_1  and  C_22
REMARK    2  A    between atoms: C_2  and  C_4
REMARK    3  A    between atoms: C_2  and  C_37
REMARK    4  A    between atoms: C_7  and  O_13
REMARK    5  A    between atoms: C_10  and  C_16
REMARK    6  A    between atoms: C_16  and  O_17
REMARK    7  A    between atoms: C_19  and  N_26
REMARK    8  A    between atoms: C_27  and  C_29
REMARK    9  A    between atoms: C_29  and  N_30
REMARK                            x       y       z     vdW  Elec       q    Type
REMARK                         _______ _______ _______ _____ _____    ______ ____
ROOT
ATOM      1  N   UNL     1     -38.372 -44.055  49.577  0.00  0.00    +0.000 NA
ATOM      2  C   UNL     1     -38.406 -42.810  49.197  0.00  0.00    +0.000 C 
ENDROOT
BRANCH   2   4
ATOM      3  N   UNL     1     -41.146 -41.982  46.911  0.00  0.00    +0.000 N 
ATOM      4  C   UNL     1     -39.621 -42.367  48.501  0.00  0.00    +0.000 A 
ATOM      5  C   UNL     1     -40.725 -41.640  49.069  0.00  0.00    +0.000 A 
ATOM      6  C   UNL     1     -41.656 -41.420  48.055  0.00  0.00    +0.000 A 
ATOM      7  C   UNL     1     -39.923 -42.552  47.158  0.00  0.00    +0.000 A 
ATOM      8  C   UNL     1     -41.021 -41.154  50.359  0.00  0.00    +0.000 A 
ATOM      9  C   UNL     1     -42.860 -40.738  48.259  0.00  0.00    +0.000 A 
ATOM     10  C   UNL     1     -43.122 -40.264  49.552  0.00  0.00    +0.000 A 
ATOM     11  C   UNL     1     -42.217 -40.471  50.587  0.00  0.00    +0.000 A 
ATOM     12  H   UNL     1     -41.615 -41.966  46.018  0.00  0.00    +0.000 HD
BRANCH   7  13
ATOM     13  O   UNL     1     -39.229 -43.144  46.192  0.00  0.00    +0.000 OA
ATOM     14  H   UNL     1     -38.464 -43.621  46.559  0.00  0.00    +0.000 HD
ENDBRANCH   7  13
BRANCH  10  16
ATOM     15  O   UNL     1     -45.212 -39.278  49.014  0.00  0.00    +0.000 OA
ATOM     16  C   UNL     1     -44.370 -39.533  49.862  0.00  0.00    +0.000 C 
BRANCH  16  17
ATOM     17  O   UNL     1     -44.379 -39.230  51.191  0.00  0.00    +0.000 OA
ATOM     18  C   UNL     1     -45.592 -39.346  51.889  0.00  0.00    +0.000 C 
ENDBRANCH  16  17
ENDBRANCH  10  16
ENDBRANCH   2   4
BRANCH   1  22
ATOM     19  C   UNL     1     -35.004 -45.749  51.498  0.00  0.00    +0.000 A 
ATOM     20  C   UNL     1     -36.226 -45.603  52.159  0.00  0.00    +0.000 A 
ATOM     21  C   UNL     1     -34.940 -45.310  50.169  0.00  0.00    +0.000 A 
ATOM     22  C   UNL     1     -37.243 -44.579  50.218  0.00  0.00    +0.000 A 
ATOM     23  C   UNL     1     -37.336 -45.037  51.532  0.00  0.00    +0.000 A 
ATOM     24  C   UNL     1     -36.042 -44.743  49.531  0.00  0.00    +0.000 A 
BRANCH  19  26
ATOM     25  O   UNL     1     -33.921 -48.377  50.950  0.00  0.00    +0.000 OA
ATOM     26  N   UNL     1     -33.850 -46.329  52.147  0.00  0.00    +0.000 N 
ATOM     27  C   UNL     1     -33.421 -47.631  51.785  0.00  0.00    +0.000 C 
ATOM     28  C   UNL     1     -33.213 -45.484  53.161  0.00  0.00    +0.000 C 
BRANCH  27  29
ATOM     29  C   UNL     1     -32.256 -48.150  52.488  0.00  0.00    +0.000 C 
BRANCH  29  30
ATOM     30  N   UNL     1     -31.085 -48.694  53.173  0.00  0.00    +0.000 N 
ATOM     31  N   UNL     1     -29.895 -51.798  51.928  0.00  0.00    +0.000 N 
ATOM     32  C   UNL     1     -31.411 -50.103  53.528  0.00  0.00    +0.000 C 
ATOM     33  C   UNL     1     -30.093 -49.029  52.114  0.00  0.00    +0.000 C 
ATOM     34  C   UNL     1     -30.892 -51.464  52.981  0.00  0.00    +0.000 C 
ATOM     35  C   UNL     1     -29.574 -50.391  51.566  0.00  0.00    +0.000 C 
ATOM     36  C   UNL     1     -30.636 -52.364  50.809  0.00  0.00    +0.000 C 
ENDBRANCH  29  30
ENDBRANCH  27  29
ENDBRANCH  19  26
ENDBRANCH   1  22
BRANCH   2  37
ATOM     37  C   UNL     1     -37.323 -41.834  49.410  0.00  0.00    +0.000 A 
ATOM     38  C   UNL     1     -37.138 -41.279  50.676  0.00  0.00    +0.000 A 
ATOM     39  C   UNL     1     -36.482 -41.509  48.347  0.00  0.00    +0.000 A 
ATOM     40  C   UNL     1     -36.097 -40.378  50.874  0.00  0.00    +0.000 A 
ATOM     41  C   UNL     1     -35.444 -40.606  48.556  0.00  0.00    +0.000 A 
ATOM     42  C   UNL     1     -35.252 -40.042  49.817  0.00  0.00    +0.000 A 
ENDBRANCH   2  37
TORSDOF 9
ENDMDL
MODEL 5
REMARK VINA RESULT:      -7.5     34.620     36.889
REMARK  Name = 135423438_Nintedanib.pdbqt.pdb
REMARK  9 active torsions:
REMARK  status: ('A' for Active; 'I' for Inactive)
REMARK    1  A    between atoms: N_1  and  C_22
REMARK    2  A    between atoms: C_2  and  C_4
REMARK    3  A    between atoms: C_2  and  C_37
REMARK    4  A    between atoms: C_7  and  O_13
REMARK    5  A    between atoms: C_10  and  C_16
REMARK    6  A    between atoms: C_16  and  O_17
REMARK    7  A    between atoms: C_19  and  N_26
REMARK    8  A    between atoms: C_27  and  C_29
REMARK    9  A    between atoms: C_29  and  N_30
REMARK                            x       y       z     vdW  Elec       q    Type
REMARK                         _______ _______ _______ _____ _____    ______ ____
ROOT
ATOM      1  N   UNL     1     -40.905 -42.255  48.542  0.00  0.00    +0.000 NA
ATOM      2  C   UNL     1     -39.686 -41.904  48.836  0.00  0.00    +0.000 C 
ENDROOT
BRANCH   2   4
ATOM      3  N   UNL     1     -37.272 -44.467  47.824  0.00  0.00    +0.000 N 
ATOM      4  C   UNL     1     -38.652 -42.937  48.695  0.00  0.00    +0.000 A 
ATOM      5  C   UNL     1     -37.857 -43.514  49.747  0.00  0.00    +0.000 A 
ATOM      6  C   UNL     1     -37.010 -44.459  49.171  0.00  0.00    +0.000 A 
ATOM      7  C   UNL     1     -38.258 -43.563  47.519  0.00  0.00    +0.000 A 
ATOM      8  C   UNL     1     -37.779 -43.312  51.140  0.00  0.00    +0.000 A 
ATOM      9  C   UNL     1     -36.094 -45.214  49.911  0.00  0.00    +0.000 A 
ATOM     10  C   UNL     1     -36.043 -44.992  51.294  0.00  0.00    +0.000 A 
ATOM     11  C   UNL     1     -36.872 -44.054  51.899  0.00  0.00    +0.000 A 
ATOM     12  H   UNL     1     -36.801 -45.065  47.161  0.00  0.00    +0.000 HD
BRANCH   7  13
ATOM     13  O   UNL     1     -38.692 -43.408  46.273  0.00  0.00    +0.000 OA
ATOM     14  H   UNL     1     -37.947 -43.254  45.665  0.00  0.00    +0.000 HD
ENDBRANCH   7  13
BRANCH  10  16
ATOM     15  O   UNL     1     -34.043 -45.275  52.539  0.00  0.00    +0.000 OA
ATOM     16  C   UNL     1     -35.105 -45.744  52.156  0.00  0.00    +0.000 C 
BRANCH  16  17
ATOM     17  O   UNL     1     -35.637 -46.972  52.413  0.00  0.00    +0.000 OA
ATOM     18  C   UNL     1     -34.782 -47.977  52.895  0.00  0.00    +0.000 C 
ENDBRANCH  16  17
ENDBRANCH  10  16
ENDBRANCH   2   4
BRANCH   1  22
ATOM     19  C   UNL     1     -44.172 -39.588  48.878  0.00  0.00    +0.000 A 
ATOM     20  C   UNL     1     -43.331 -39.577  47.764  0.00  0.00    +0.000 A 
ATOM     21  C   UNL     1     -43.888 -40.522  49.884  0.00  0.00    +0.000 A 
ATOM     22  C   UNL     1     -41.964 -41.350  48.678  0.00  0.00    +0.000 A 
ATOM     23  C   UNL     1     -42.248 -40.448  47.654  0.00  0.00    +0.000 A 
ATOM     24  C   UNL     1     -42.809 -41.398  49.785  0.00  0.00    +0.000 A 
BRANCH  19  26
ATOM     25  O   UNL     1     -44.619 -37.768  51.085  0.00  0.00    +0.000 OA
ATOM     26  N   UNL     1     -45.292 -38.681  49.000  0.00  0.00    +0.000 N 
ATOM     27  C   UNL     1     -45.394 -37.840  50.136  0.00  0.00    +0.000 C 
ATOM     28  C   UNL     1     -46.256 -38.728  47.897  0.00  0.00    +0.000 C 
BRANCH  27  29
ATOM     29  C   UNL     1     -46.553 -36.960  50.192  0.00  0.00    +0.000 C 
BRANCH  29  30
ATOM     30  N   UNL     1     -47.698 -36.053  50.242  0.00  0.00    +0.000 N 
ATOM     31  N   UNL     1     -50.646 -37.401  51.689  0.00  0.00    +0.000 N 
ATOM     32  C   UNL     1     -48.853 -36.787  49.654  0.00  0.00    +0.000 C 
ATOM     33  C   UNL     1     -48.198 -36.081  51.645  0.00  0.00    +0.000 C 
ATOM     34  C   UNL     1     -50.144 -37.380  50.289  0.00  0.00    +0.000 C 
ATOM     35  C   UNL     1     -49.489 -36.675  52.280  0.00  0.00    +0.000 C 
ATOM     36  C   UNL     1     -50.560 -38.780  52.148  0.00  0.00    +0.000 C 
ENDBRANCH  29  30
ENDBRANCH  27  29
ENDBRANCH  19  26
ENDBRANCH   1  22
BRANCH   2  37
ATOM     37  C   UNL     1     -39.282 -40.564  49.298  0.00  0.00    +0.000 A 
ATOM     38  C   UNL     1     -39.540 -40.185  50.614  0.00  0.00    +0.000 A 
ATOM     39  C   UNL     1     -38.618 -39.713  48.415  0.00  0.00    +0.000 A 
ATOM     40  C   UNL     1     -39.131 -38.928  51.049  0.00  0.00    +0.000 A 
ATOM     41  C   UNL     1     -38.215 -38.458  48.860  0.00  0.00    +0.000 A 
ATOM     42  C   UNL     1     -38.470 -38.067  50.174  0.00  0.00    +0.000 A 
ENDBRANCH   2  37
TORSDOF 9
ENDMDL
MODEL 6
REMARK VINA RESULT:      -7.4     19.908     23.334
REMARK  Name = 135423438_Nintedanib.pdbqt.pdb
REMARK  9 active torsions:
REMARK  status: ('A' for Active; 'I' for Inactive)
REMARK    1  A    between atoms: N_1  and  C_22
REMARK    2  A    between atoms: C_2  and  C_4
REMARK    3  A    between atoms: C_2  and  C_37
REMARK    4  A    between atoms: C_7  and  O_13
REMARK    5  A    between atoms: C_10  and  C_16
REMARK    6  A    between atoms: C_16  and  O_17
REMARK    7  A    between atoms: C_19  and  N_26
REMARK    8  A    between atoms: C_27  and  C_29
REMARK    9  A    between atoms: C_29  and  N_30
REMARK                            x       y       z     vdW  Elec       q    Type
REMARK                         _______ _______ _______ _____ _____    ______ ____
ROOT
ATOM      1  N   UNL     1     -44.183 -63.265  36.983  0.00  0.00    +0.000 NA
ATOM      2  C   UNL     1     -44.839 -62.328  37.605  0.00  0.00    +0.000 C 
ENDROOT
BRANCH   2   4
ATOM      3  N   UNL     1     -46.438 -59.842  35.440  0.00  0.00    +0.000 N 
ATOM      4  C   UNL     1     -45.264 -61.176  36.798  0.00  0.00    +0.000 A 
ATOM      5  C   UNL     1     -44.551 -59.939  36.615  0.00  0.00    +0.000 A 
ATOM      6  C   UNL     1     -45.310 -59.132  35.769  0.00  0.00    +0.000 A 
ATOM      7  C   UNL     1     -46.426 -61.073  36.045  0.00  0.00    +0.000 A 
ATOM      8  C   UNL     1     -43.330 -59.429  37.100  0.00  0.00    +0.000 A 
ATOM      9  C   UNL     1     -44.912 -57.849  35.378  0.00  0.00    +0.000 A 
ATOM     10  C   UNL     1     -43.691 -57.374  35.875  0.00  0.00    +0.000 A 
ATOM     11  C   UNL     1     -42.913 -58.151  36.724  0.00  0.00    +0.000 A 
ATOM     12  H   UNL     1     -47.165 -59.496  34.832  0.00  0.00    +0.000 HD
BRANCH   7  13
ATOM     13  O   UNL     1     -47.413 -61.944  35.859  0.00  0.00    +0.000 OA
ATOM     14  H   UNL     1     -48.046 -61.611  35.199  0.00  0.00    +0.000 HD
ENDBRANCH   7  13
BRANCH  10  16
ATOM     15  O   UNL     1     -41.998 -55.766  35.447  0.00  0.00    +0.000 OA
ATOM     16  C   UNL     1     -43.190 -56.029  35.517  0.00  0.00    +0.000 C 
BRANCH  16  17
ATOM     17  O   UNL     1     -44.258 -55.209  35.298  0.00  0.00    +0.000 OA
ATOM     18  C   UNL     1     -44.007 -53.866  34.975  0.00  0.00    +0.000 C 
ENDBRANCH  16  17
ENDBRANCH  10  16
ENDBRANCH   2   4
BRANCH   1  22
ATOM     19  C   UNL     1     -42.752 -66.590  39.173  0.00  0.00    +0.000 A 
ATOM     20  C   UNL     1     -41.922 -65.513  38.853  0.00  0.00    +0.000 A 
ATOM     21  C   UNL     1     -44.081 -66.524  38.736  0.00  0.00    +0.000 A 
ATOM     22  C   UNL     1     -43.707 -64.386  37.674  0.00  0.00    +0.000 A 
ATOM     23  C   UNL     1     -42.388 -64.420  38.124  0.00  0.00    +0.000 A 
ATOM     24  C   UNL     1     -44.559 -65.437  38.007  0.00  0.00    +0.000 A 
BRANCH  19  26
ATOM     25  O   UNL     1     -42.171 -66.602  42.009  0.00  0.00    +0.000 OA
ATOM     26  N   UNL     1     -42.271 -67.729  39.923  0.00  0.00    +0.000 N 
ATOM     27  C   UNL     1     -42.024 -67.601  41.312  0.00  0.00    +0.000 C 
ATOM     28  C   UNL     1     -42.069 -68.952  39.140  0.00  0.00    +0.000 C 
BRANCH  27  29
ATOM     29  C   UNL     1     -41.533 -68.789  41.997  0.00  0.00    +0.000 C 
BRANCH  29  30
ATOM     30  N   UNL     1     -41.028 -69.991  42.659  0.00  0.00    +0.000 N 
ATOM     31  N   UNL     1     -38.512 -71.763  40.889  0.00  0.00    +0.000 N 
ATOM     32  C   UNL     1     -41.099 -71.093  41.659  0.00  0.00    +0.000 C 
ATOM     33  C   UNL     1     -39.543 -69.881  42.660  0.00  0.00    +0.000 C 
ATOM     34  C   UNL     1     -39.997 -71.868  40.881  0.00  0.00    +0.000 C 
ATOM     35  C   UNL     1     -38.440 -70.656  41.881  0.00  0.00    +0.000 C 
ATOM     36  C   UNL     1     -38.122 -71.203  39.602  0.00  0.00    +0.000 C 
ENDBRANCH  29  30
ENDBRANCH  27  29
ENDBRANCH  19  26
ENDBRANCH   1  22
BRANCH   2  37
ATOM     37  C   UNL     1     -45.173 -62.341  39.040  0.00  0.00    +0.000 A 
ATOM     38  C   UNL     1     -46.418 -62.815  39.450  0.00  0.00    +0.000 A 
ATOM     39  C   UNL     1     -44.222 -61.910  39.963  0.00  0.00    +0.000 A 
ATOM     40  C   UNL     1     -46.716 -62.849  40.808  0.00  0.00    +0.000 A 
ATOM     41  C   UNL     1     -44.530 -61.947  41.319  0.00  0.00    +0.000 A 
ATOM     42  C   UNL     1     -45.774 -62.416  41.741  0.00  0.00    +0.000 A 
ENDBRANCH   2  37
TORSDOF 9
ENDMDL
MODEL 7
REMARK VINA RESULT:      -7.3     19.372     24.105
REMARK  Name = 135423438_Nintedanib.pdbqt.pdb
REMARK  9 active torsions:
REMARK  status: ('A' for Active; 'I' for Inactive)
REMARK    1  A    between atoms: N_1  and  C_22
REMARK    2  A    between atoms: C_2  and  C_4
REMARK    3  A    between atoms: C_2  and  C_37
REMARK    4  A    between atoms: C_7  and  O_13
REMARK    5  A    between atoms: C_10  and  C_16
REMARK    6  A    between atoms: C_16  and  O_17
REMARK    7  A    between atoms: C_19  and  N_26
REMARK    8  A    between atoms: C_27  and  C_29
REMARK    9  A    between atoms: C_29  and  N_30
REMARK                            x       y       z     vdW  Elec       q    Type
REMARK                         _______ _______ _______ _____ _____    ______ ____
ROOT
ATOM      1  N   UNL     1     -43.092 -61.385  39.181  0.00  0.00    +0.000 NA
ATOM      2  C   UNL     1     -44.057 -62.258  39.212  0.00  0.00    +0.000 C 
ENDROOT
BRANCH   2   4
ATOM      3  N   UNL     1     -44.417 -64.283  42.243  0.00  0.00    +0.000 N 
ATOM      4  C   UNL     1     -44.355 -62.863  40.516  0.00  0.00    +0.000 A 
ATOM      5  C   UNL     1     -45.186 -62.313  41.555  0.00  0.00    +0.000 A 
ATOM      6  C   UNL     1     -45.201 -63.219  42.613  0.00  0.00    +0.000 A 
ATOM      7  C   UNL     1     -43.904 -64.090  40.986  0.00  0.00    +0.000 A 
ATOM      8  C   UNL     1     -45.924 -61.119  41.691  0.00  0.00    +0.000 A 
ATOM      9  C   UNL     1     -45.914 -62.999  43.796  0.00  0.00    +0.000 A 
ATOM     10  C   UNL     1     -46.641 -61.805  43.899  0.00  0.00    +0.000 A 
ATOM     11  C   UNL     1     -46.644 -60.878  42.863  0.00  0.00    +0.000 A 
ATOM     12  H   UNL     1     -44.253 -65.092  42.824  0.00  0.00    +0.000 HD
BRANCH   7  13
ATOM     13  O   UNL     1     -43.125 -65.000  40.410  0.00  0.00    +0.000 OA
ATOM     14  H   UNL     1     -42.978 -65.755  41.006  0.00  0.00    +0.000 HD
ENDBRANCH   7  13
BRANCH  10  16
ATOM     15  O   UNL     1     -47.625 -62.303  46.000  0.00  0.00    +0.000 OA
ATOM     16  C   UNL     1     -47.424 -61.487  45.113  0.00  0.00    +0.000 C 
BRANCH  16  17
ATOM     17  O   UNL     1     -47.842 -60.191  45.035  0.00  0.00    +0.000 OA
ATOM     18  C   UNL     1     -49.119 -59.876  45.527  0.00  0.00    +0.000 C 
ENDBRANCH  16  17
ENDBRANCH  10  16
ENDBRANCH   2   4
BRANCH   1  22
ATOM     19  C   UNL     1     -41.876 -59.476  35.606  0.00  0.00    +0.000 A 
ATOM     20  C   UNL     1     -42.867 -58.931  36.425  0.00  0.00    +0.000 A 
ATOM     21  C   UNL     1     -41.300 -60.685  36.017  0.00  0.00    +0.000 A 
ATOM     22  C   UNL     1     -42.712 -60.779  37.977  0.00  0.00    +0.000 A 
ATOM     23  C   UNL     1     -43.277 -59.562  37.599  0.00  0.00    +0.000 A 
ATOM     24  C   UNL     1     -41.700 -61.325  37.189  0.00  0.00    +0.000 A 
BRANCH  19  26
ATOM     25  O   UNL     1     -43.056 -59.897  32.996  0.00  0.00    +0.000 OA
ATOM     26  N   UNL     1     -41.454 -58.829  34.384  0.00  0.00    +0.000 N 
ATOM     27  C   UNL     1     -42.117 -59.125  33.167  0.00  0.00    +0.000 C 
ATOM     28  C   UNL     1     -40.330 -57.898  34.526  0.00  0.00    +0.000 C 
BRANCH  27  29
ATOM     29  C   UNL     1     -41.630 -58.441  31.977  0.00  0.00    +0.000 C 
BRANCH  29  30
ATOM     30  N   UNL     1     -41.162 -57.769  30.767  0.00  0.00    +0.000 N 
ATOM     31  N   UNL     1     -42.943 -54.834  29.865  0.00  0.00    +0.000 N 
ATOM     32  C   UNL     1     -42.358 -57.552  29.906  0.00  0.00    +0.000 C 
ATOM     33  C   UNL     1     -40.970 -56.336  31.125  0.00  0.00    +0.000 C 
ATOM     34  C   UNL     1     -43.141 -56.266  29.513  0.00  0.00    +0.000 C 
ATOM     35  C   UNL     1     -41.754 -55.050  30.733  0.00  0.00    +0.000 C 
ATOM     36  C   UNL     1     -44.044 -54.459  30.743  0.00  0.00    +0.000 C 
ENDBRANCH  29  30
ENDBRANCH  27  29
ENDBRANCH  19  26
ENDBRANCH   1  22
BRANCH   2  37
ATOM     37  C   UNL     1     -44.854 -62.677  38.045  0.00  0.00    +0.000 A 
ATOM     38  C   UNL     1     -44.415 -63.743  37.261  0.00  0.00    +0.000 A 
ATOM     39  C   UNL     1     -46.051 -62.019  37.769  0.00  0.00    +0.000 A 
ATOM     40  C   UNL     1     -45.187 -64.149  36.178  0.00  0.00    +0.000 A 
ATOM     41  C   UNL     1     -46.815 -62.432  36.682  0.00  0.00    +0.000 A 
ATOM     42  C   UNL     1     -46.384 -63.495  35.888  0.00  0.00    +0.000 A 
ENDBRANCH   2  37
TORSDOF 9
ENDMDL
MODEL 8
REMARK VINA RESULT:      -7.2     35.345     37.983
REMARK  Name = 135423438_Nintedanib.pdbqt.pdb
REMARK  9 active torsions:
REMARK  status: ('A' for Active; 'I' for Inactive)
REMARK    1  A    between atoms: N_1  and  C_22
REMARK    2  A    between atoms: C_2  and  C_4
REMARK    3  A    between atoms: C_2  and  C_37
REMARK    4  A    between atoms: C_7  and  O_13
REMARK    5  A    between atoms: C_10  and  C_16
REMARK    6  A    between atoms: C_16  and  O_17
REMARK    7  A    between atoms: C_19  and  N_26
REMARK    8  A    between atoms: C_27  and  C_29
REMARK    9  A    between atoms: C_29  and  N_30
REMARK                            x       y       z     vdW  Elec       q    Type
REMARK                         _______ _______ _______ _____ _____    ______ ____
ROOT
ATOM      1  N   UNL     1     -43.541 -39.123  48.648  0.00  0.00    +0.000 NA
ATOM      2  C   UNL     1     -44.243 -39.259  49.736  0.00  0.00    +0.000 C 
ENDROOT
BRANCH   2   4
ATOM      3  N   UNL     1     -47.305 -37.315  49.214  0.00  0.00    +0.000 N 
ATOM      4  C   UNL     1     -45.520 -38.534  49.789  0.00  0.00    +0.000 A 
ATOM      5  C   UNL     1     -46.370 -38.365  50.939  0.00  0.00    +0.000 A 
ATOM      6  C   UNL     1     -47.470 -37.606  50.546  0.00  0.00    +0.000 A 
ATOM      7  C   UNL     1     -46.137 -37.861  48.743  0.00  0.00    +0.000 A 
ATOM      8  C   UNL     1     -46.305 -38.796  52.279  0.00  0.00    +0.000 A 
ATOM      9  C   UNL     1     -48.504 -37.251  51.419  0.00  0.00    +0.000 A 
ATOM     10  C   UNL     1     -48.407 -37.692  52.745  0.00  0.00    +0.000 A 
ATOM     11  C   UNL     1     -47.325 -38.455  53.169  0.00  0.00    +0.000 A 
ATOM     12  H   UNL     1     -47.957 -36.771  48.670  0.00  0.00    +0.000 HD
BRANCH   7  13
ATOM     13  O   UNL     1     -45.758 -37.696  47.481  0.00  0.00    +0.000 OA
ATOM     14  H   UNL     1     -44.823 -37.429  47.434  0.00  0.00    +0.000 HD
ENDBRANCH   7  13
BRANCH  10  16
ATOM     15  O   UNL     1     -50.359 -36.579  53.508  0.00  0.00    +0.000 OA
ATOM     16  C   UNL     1     -49.453 -37.367  53.739  0.00  0.00    +0.000 C 
BRANCH  16  17
ATOM     17  O   UNL     1     -49.210 -38.077  54.877  0.00  0.00    +0.000 OA
ATOM     18  C   UNL     1     -49.505 -37.474  56.110  0.00  0.00    +0.000 C 
ENDBRANCH  16  17
ENDBRANCH  10  16
ENDBRANCH   2   4
BRANCH   1  22
ATOM     19  C   UNL     1     -39.772 -41.027  48.370  0.00  0.00    +0.000 A 
ATOM     20  C   UNL     1     -39.893 -39.704  48.802  0.00  0.00    +0.000 A 
ATOM     21  C   UNL     1     -40.954 -41.699  48.031  0.00  0.00    +0.000 A 
ATOM     22  C   UNL     1     -42.294 -39.747  48.517  0.00  0.00    +0.000 A 
ATOM     23  C   UNL     1     -41.133 -39.070  48.886  0.00  0.00    +0.000 A 
ATOM     24  C   UNL     1     -42.199 -41.077  48.112  0.00  0.00    +0.000 A 
BRANCH  19  26
ATOM     25  O   UNL     1     -38.518 -42.563  50.479  0.00  0.00    +0.000 OA
ATOM     26  N   UNL     1     -38.489 -41.685  48.274  0.00  0.00    +0.000 N 
ATOM     27  C   UNL     1     -37.985 -42.407  49.385  0.00  0.00    +0.000 C 
ATOM     28  C   UNL     1     -37.801 -41.529  46.989  0.00  0.00    +0.000 C 
BRANCH  27  29
ATOM     29  C   UNL     1     -36.683 -43.036  49.215  0.00  0.00    +0.000 C 
BRANCH  29  30
ATOM     30  N   UNL     1     -35.363 -43.647  49.065  0.00  0.00    +0.000 N 
ATOM     31  N   UNL     1     -33.469 -43.941  52.052  0.00  0.00    +0.000 N 
ATOM     32  C   UNL     1     -34.389 -42.733  49.723  0.00  0.00    +0.000 C 
ATOM     33  C   UNL     1     -35.277 -44.725  50.089  0.00  0.00    +0.000 C 
ATOM     34  C   UNL     1     -33.560 -42.860  51.034  0.00  0.00    +0.000 C 
ATOM     35  C   UNL     1     -34.449 -44.852  51.401  0.00  0.00    +0.000 C 
ATOM     36  C   UNL     1     -34.102 -43.435  53.263  0.00  0.00    +0.000 C 
ENDBRANCH  29  30
ENDBRANCH  27  29
ENDBRANCH  19  26
ENDBRANCH   1  22
BRANCH   2  37
ATOM     37  C   UNL     1     -43.849 -40.073  50.899  0.00  0.00    +0.000 A 
ATOM     38  C   UNL     1     -43.048 -39.510  51.891  0.00  0.00    +0.000 A 
ATOM     39  C   UNL     1     -44.314 -41.383  51.000  0.00  0.00    +0.000 A 
ATOM     40  C   UNL     1     -42.702 -40.278  52.999  0.00  0.00    +0.000 A 
ATOM     41  C   UNL     1     -43.962 -42.142  52.111  0.00  0.00    +0.000 A 
ATOM     42  C   UNL     1     -43.158 -41.591  53.109  0.00  0.00    +0.000 A 
ENDBRANCH   2  37
TORSDOF 9
ENDMDL
MODEL 9
REMARK VINA RESULT:      -7.2     20.083     24.968
REMARK  Name = 135423438_Nintedanib.pdbqt.pdb
REMARK  9 active torsions:
REMARK  status: ('A' for Active; 'I' for Inactive)
REMARK    1  A    between atoms: N_1  and  C_22
REMARK    2  A    between atoms: C_2  and  C_4
REMARK    3  A    between atoms: C_2  and  C_37
REMARK    4  A    between atoms: C_7  and  O_13
REMARK    5  A    between atoms: C_10  and  C_16
REMARK    6  A    between atoms: C_16  and  O_17
REMARK    7  A    between atoms: C_19  and  N_26
REMARK    8  A    between atoms: C_27  and  C_29
REMARK    9  A    between atoms: C_29  and  N_30
REMARK                            x       y       z     vdW  Elec       q    Type
REMARK                         _______ _______ _______ _____ _____    ______ ____
ROOT
ATOM      1  N   UNL     1     -42.741 -60.339  37.923  0.00  0.00    +0.000 NA
ATOM      2  C   UNL     1     -43.614 -61.287  37.735  0.00  0.00    +0.000 C 
ENDROOT
BRANCH   2   4
ATOM      3  N   UNL     1     -43.352 -64.318  39.775  0.00  0.00    +0.000 N 
ATOM      4  C   UNL     1     -43.648 -62.359  38.738  0.00  0.00    +0.000 A 
ATOM      5  C   UNL     1     -44.282 -62.314  40.029  0.00  0.00    +0.000 A 
ATOM      6  C   UNL     1     -44.077 -63.546  40.647  0.00  0.00    +0.000 A 
ATOM      7  C   UNL     1     -43.089 -63.625  38.621  0.00  0.00    +0.000 A 
ATOM      8  C   UNL     1     -45.008 -61.330  40.732  0.00  0.00    +0.000 A 
ATOM      9  C   UNL     1     -44.561 -63.849  41.924  0.00  0.00    +0.000 A 
ATOM     10  C   UNL     1     -45.282 -62.852  42.595  0.00  0.00    +0.000 A 
ATOM     11  C   UNL     1     -45.501 -61.610  42.008  0.00  0.00    +0.000 A 
ATOM     12  H   UNL     1     -43.064 -65.267  39.966  0.00  0.00    +0.000 HD
BRANCH   7  13
ATOM     13  O   UNL     1     -42.412 -64.179  37.621  0.00  0.00    +0.000 OA
ATOM     14  H   UNL     1     -42.864 -64.027  36.772  0.00  0.00    +0.000 HD
ENDBRANCH   7  13
BRANCH  10  16
ATOM     15  O   UNL     1     -45.199 -63.649  44.828  0.00  0.00    +0.000 OA
ATOM     16  C   UNL     1     -45.831 -63.082  43.949  0.00  0.00    +0.000 C 
BRANCH  16  17
ATOM     17  O   UNL     1     -47.092 -62.567  44.001  0.00  0.00    +0.000 OA
ATOM     18  C   UNL     1     -47.432 -61.760  45.099  0.00  0.00    +0.000 C 
ENDBRANCH  16  17
ENDBRANCH  10  16
ENDBRANCH   2   4
BRANCH   1  22
ATOM     19  C   UNL     1     -42.285 -57.112  35.225  0.00  0.00    +0.000 A 
ATOM     20  C   UNL     1     -43.248 -57.089  36.237  0.00  0.00    +0.000 A 
ATOM     21  C   UNL     1     -41.475 -58.252  35.140  0.00  0.00    +0.000 A 
ATOM     22  C   UNL     1     -42.610 -59.292  37.003  0.00  0.00    +0.000 A 
ATOM     23  C   UNL     1     -43.407 -58.154  37.122  0.00  0.00    +0.000 A 
ATOM     24  C   UNL     1     -41.624 -59.323  36.019  0.00  0.00    +0.000 A 
BRANCH  19  26
ATOM     25  O   UNL     1     -40.130 -55.180  35.287  0.00  0.00    +0.000 OA
ATOM     26  N   UNL     1     -42.122 -56.012  34.300  0.00  0.00    +0.000 N 
ATOM     27  C   UNL     1     -41.018 -55.134  34.442  0.00  0.00    +0.000 C 
ATOM     28  C   UNL     1     -43.159 -55.903  33.270  0.00  0.00    +0.000 C 
BRANCH  27  29
ATOM     29  C   UNL     1     -40.926 -54.046  33.478  0.00  0.00    +0.000 C 
BRANCH  29  30
ATOM     30  N   UNL     1     -40.863 -52.950  32.514  0.00  0.00    +0.000 N 
ATOM     31  N   UNL     1     -43.894 -52.245  30.806  0.00  0.00    +0.000 N 
ATOM     32  C   UNL     1     -41.433 -53.466  31.238  0.00  0.00    +0.000 C 
ATOM     33  C   UNL     1     -41.999 -52.040  32.832  0.00  0.00    +0.000 C 
ATOM     34  C   UNL     1     -42.763 -53.159  30.491  0.00  0.00    +0.000 C 
ATOM     35  C   UNL     1     -43.330 -51.734  32.084  0.00  0.00    +0.000 C 
ATOM     36  C   UNL     1     -45.033 -53.085  31.152  0.00  0.00    +0.000 C 
ENDBRANCH  29  30
ENDBRANCH  27  29
ENDBRANCH  19  26
ENDBRANCH   1  22
BRANCH   2  37
ATOM     37  C   UNL     1     -44.551 -61.358  36.599  0.00  0.00    +0.000 A 
ATOM     38  C   UNL     1     -44.111 -61.866  35.378  0.00  0.00    +0.000 A 
ATOM     39  C   UNL     1     -45.870 -60.946  36.780  0.00  0.00    +0.000 A 
ATOM     40  C   UNL     1     -45.010 -61.955  34.319  0.00  0.00    +0.000 A 
ATOM     41  C   UNL     1     -46.760 -61.038  35.715  0.00  0.00    +0.000 A 
ATOM     42  C   UNL     1     -46.331 -61.542  34.487  0.00  0.00    +0.000 A 
ENDBRANCH   2  37
TORSDOF 9
ENDMDL
