MODEL 1
REMARK VINA RESULT:      -8.0      0.000      0.000
REMARK  Name = 14132199_RiccardinD.pdbqt.pdb
REMARK  3 active torsions:
REMARK  status: ('A' for Active; 'I' for Inactive)
REMARK    1  A    between atoms: C_11  and  O_30
REMARK    2  A    between atoms: C_16  and  O_32
REMARK    3  A    between atoms: C_28  and  O_34
REMARK                            x       y       z     vdW  Elec       q    Type
REMARK                         _______ _______ _______ _____ _____    ______ ____
ROOT
ATOM      1  O   UNL     1     -45.169 -68.262  24.126  0.00  0.00    +0.000 OA
ATOM      2  C   UNL     1     -46.313 -64.719  30.000  0.00  0.00    +0.000 C 
ATOM      3  C   UNL     1     -46.453 -63.552  30.824  0.00  0.00    +0.000 A 
ATOM      4  C   UNL     1     -46.241 -62.248  30.307  0.00  0.00    +0.000 A 
ATOM      5  C   UNL     1     -46.150 -65.859  28.982  0.00  0.00    +0.000 C 
ATOM      6  C   UNL     1     -44.639 -62.566  24.921  0.00  0.00    +0.000 C 
ATOM      7  C   UNL     1     -45.742 -62.051  28.927  0.00  0.00    +0.000 A 
ATOM      8  C   UNL     1     -44.873 -62.104  26.249  0.00  0.00    +0.000 A 
ATOM      9  C   UNL     1     -44.493 -63.523  23.735  0.00  0.00    +0.000 C 
ATOM     10  C   UNL     1     -45.963 -66.756  27.888  0.00  0.00    +0.000 A 
ATOM     11  C   UNL     1     -46.494 -61.452  27.906  0.00  0.00    +0.000 A 
ATOM     12  C   UNL     1     -44.490 -64.774  23.061  0.00  0.00    +0.000 A 
ATOM     13  C   UNL     1     -44.485 -62.569  28.582  0.00  0.00    +0.000 A 
ATOM     14  C   UNL     1     -46.080 -61.494  26.573  0.00  0.00    +0.000 A 
ATOM     15  C   UNL     1     -44.056 -62.606  27.259  0.00  0.00    +0.000 A 
ATOM     16  C   UNL     1     -46.510 -61.169  31.169  0.00  0.00    +0.000 A 
ATOM     17  C   UNL     1     -46.859 -63.745  32.146  0.00  0.00    +0.000 A 
ATOM     18  C   UNL     1     -46.896 -61.367  32.495  0.00  0.00    +0.000 A 
ATOM     19  C   UNL     1     -47.062 -62.657  32.986  0.00  0.00    +0.000 A 
ATOM     20  C   UNL     1     -44.818 -65.872  23.850  0.00  0.00    +0.000 A 
ATOM     21  C   UNL     1     -44.682 -67.225  27.593  0.00  0.00    +0.000 A 
ATOM     22  C   UNL     1     -47.016 -66.982  27.001  0.00  0.00    +0.000 A 
ATOM     23  C   UNL     1     -44.846 -67.166  23.342  0.00  0.00    +0.000 A 
ATOM     24  C   UNL     1     -44.182 -64.956  21.721  0.00  0.00    +0.000 A 
ATOM     25  C   UNL     1     -45.470 -67.963  25.443  0.00  0.00    +0.000 A 
ATOM     26  C   UNL     1     -44.433 -67.843  26.370  0.00  0.00    +0.000 A 
ATOM     27  C   UNL     1     -46.775 -67.599  25.775  0.00  0.00    +0.000 A 
ATOM     28  C   UNL     1     -44.537 -67.346  21.999  0.00  0.00    +0.000 A 
ATOM     29  C   UNL     1     -44.208 -66.252  21.191  0.00  0.00    +0.000 A 
ENDROOT
BRANCH  11  30
ATOM     30  O   UNL     1     -47.672 -60.826  28.219  0.00  0.00    +0.000 OA
ATOM     31  H   UNL     1     -47.565 -59.871  28.042  0.00  0.00    +0.000 HD
ENDBRANCH  11  30
BRANCH  16  32
ATOM     32  O   UNL     1     -46.429 -59.865  30.757  0.00  0.00    +0.000 OA
ATOM     33  H   UNL     1     -47.310 -59.470  30.899  0.00  0.00    +0.000 HD
ENDBRANCH  16  32
BRANCH  28  34
ATOM     34  O   UNL     1     -44.545 -68.588  21.428  0.00  0.00    +0.000 OA
ATOM     35  H   UNL     1     -43.729 -69.041  21.709  0.00  0.00    +0.000 HD
ENDBRANCH  28  34
TORSDOF 3
ENDMDL
MODEL 2
REMARK VINA RESULT:      -8.0      8.343     12.450
REMARK  Name = 14132199_RiccardinD.pdbqt.pdb
REMARK  3 active torsions:
REMARK  status: ('A' for Active; 'I' for Inactive)
REMARK    1  A    between atoms: C_11  and  O_30
REMARK    2  A    between atoms: C_16  and  O_32
REMARK    3  A    between atoms: C_28  and  O_34
REMARK                            x       y       z     vdW  Elec       q    Type
REMARK                         _______ _______ _______ _____ _____    ______ ____
ROOT
ATOM      1  O   UNL     1     -42.827 -68.994  38.884  0.00  0.00    +0.000 OA
ATOM      2  C   UNL     1     -46.008 -64.311  34.845  0.00  0.00    +0.000 C 
ATOM      3  C   UNL     1     -46.605 -63.047  34.520  0.00  0.00    +0.000 A 
ATOM      4  C   UNL     1     -46.738 -62.017  35.486  0.00  0.00    +0.000 A 
ATOM      5  C   UNL     1     -45.322 -65.592  35.347  0.00  0.00    +0.000 C 
ATOM      6  C   UNL     1     -44.851 -63.823  40.471  0.00  0.00    +0.000 C 
ATOM      7  C   UNL     1     -46.382 -62.256  36.903  0.00  0.00    +0.000 A 
ATOM      8  C   UNL     1     -45.522 -63.084  39.454  0.00  0.00    +0.000 A 
ATOM      9  C   UNL     1     -44.093 -64.959  41.162  0.00  0.00    +0.000 C 
ATOM     10  C   UNL     1     -44.662 -66.672  36.004  0.00  0.00    +0.000 A 
ATOM     11  C   UNL     1     -45.319 -61.615  37.556  0.00  0.00    +0.000 A 
ATOM     12  C   UNL     1     -43.456 -66.225  41.271  0.00  0.00    +0.000 A 
ATOM     13  C   UNL     1     -47.076 -63.242  37.618  0.00  0.00    +0.000 A 
ATOM     14  C   UNL     1     -44.873 -62.034  38.811  0.00  0.00    +0.000 A 
ATOM     15  C   UNL     1     -46.649 -63.661  38.875  0.00  0.00    +0.000 A 
ATOM     16  C   UNL     1     -47.238 -60.782  35.036  0.00  0.00    +0.000 A 
ATOM     17  C   UNL     1     -47.004 -62.848  33.196  0.00  0.00    +0.000 A 
ATOM     18  C   UNL     1     -47.653 -60.594  33.718  0.00  0.00    +0.000 A 
ATOM     19  C   UNL     1     -47.545 -61.631  32.800  0.00  0.00    +0.000 A 
ATOM     20  C   UNL     1     -43.428 -66.977  40.101  0.00  0.00    +0.000 A 
ATOM     21  C   UNL     1     -45.413 -67.614  36.708  0.00  0.00    +0.000 A 
ATOM     22  C   UNL     1     -43.271 -66.656  36.118  0.00  0.00    +0.000 A 
ATOM     23  C   UNL     1     -42.853 -68.241  40.048  0.00  0.00    +0.000 A 
ATOM     24  C   UNL     1     -42.894 -66.736  42.432  0.00  0.00    +0.000 A 
ATOM     25  C   UNL     1     -43.405 -68.382  37.786  0.00  0.00    +0.000 A 
ATOM     26  C   UNL     1     -44.784 -68.483  37.596  0.00  0.00    +0.000 A 
ATOM     27  C   UNL     1     -42.634 -67.522  37.005  0.00  0.00    +0.000 A 
ATOM     28  C   UNL     1     -42.290 -68.752  41.212  0.00  0.00    +0.000 A 
ATOM     29  C   UNL     1     -42.308 -68.008  42.396  0.00  0.00    +0.000 A 
ENDROOT
BRANCH  11  30
ATOM     30  O   UNL     1     -44.690 -60.563  36.942  0.00  0.00    +0.000 OA
ATOM     31  H   UNL     1     -44.763 -60.688  35.976  0.00  0.00    +0.000 HD
ENDBRANCH  11  30
BRANCH  16  32
ATOM     32  O   UNL     1     -47.328 -59.687  35.855  0.00  0.00    +0.000 OA
ATOM     33  H   UNL     1     -46.728 -59.011  35.487  0.00  0.00    +0.000 HD
ENDBRANCH  16  32
BRANCH  28  34
ATOM     34  O   UNL     1     -41.707 -69.987  41.236  0.00  0.00    +0.000 OA
ATOM     35  H   UNL     1     -42.138 -70.525  40.548  0.00  0.00    +0.000 HD
ENDBRANCH  28  34
TORSDOF 3
ENDMDL
MODEL 3
REMARK VINA RESULT:      -7.8     19.185     21.453
REMARK  Name = 14132199_RiccardinD.pdbqt.pdb
REMARK  3 active torsions:
REMARK  status: ('A' for Active; 'I' for Inactive)
REMARK    1  A    between atoms: C_11  and  O_30
REMARK    2  A    between atoms: C_16  and  O_32
REMARK    3  A    between atoms: C_28  and  O_34
REMARK                            x       y       z     vdW  Elec       q    Type
REMARK                         _______ _______ _______ _____ _____    ______ ____
ROOT
ATOM      1  O   UNL     1     -60.231 -73.315  23.398  0.00  0.00    +0.000 OA
ATOM      2  C   UNL     1     -66.797 -74.966  24.989  0.00  0.00    +0.000 C 
ATOM      3  C   UNL     1     -68.111 -74.754  25.525  0.00  0.00    +0.000 A 
ATOM      4  C   UNL     1     -68.455 -73.552  26.196  0.00  0.00    +0.000 A 
ATOM      5  C   UNL     1     -65.358 -75.023  24.450  0.00  0.00    +0.000 C 
ATOM      6  C   UNL     1     -63.953 -70.191  26.518  0.00  0.00    +0.000 C 
ATOM      7  C   UNL     1     -67.430 -72.523  26.480  0.00  0.00    +0.000 A 
ATOM      8  C   UNL     1     -65.224 -70.794  26.750  0.00  0.00    +0.000 A 
ATOM      9  C   UNL     1     -62.520 -70.002  26.016  0.00  0.00    +0.000 C 
ATOM     10  C   UNL     1     -64.005 -74.870  24.026  0.00  0.00    +0.000 A 
ATOM     11  C   UNL     1     -67.433 -71.244  25.903  0.00  0.00    +0.000 A 
ATOM     12  C   UNL     1     -61.315 -70.352  25.347  0.00  0.00    +0.000 A 
ATOM     13  C   UNL     1     -66.341 -72.859  27.296  0.00  0.00    +0.000 A 
ATOM     14  C   UNL     1     -66.333 -70.391  26.014  0.00  0.00    +0.000 A 
ATOM     15  C   UNL     1     -65.244 -72.012  27.425  0.00  0.00    +0.000 A 
ATOM     16  C   UNL     1     -69.798 -73.403  26.588  0.00  0.00    +0.000 A 
ATOM     17  C   UNL     1     -69.059 -75.758  25.316  0.00  0.00    +0.000 A 
ATOM     18  C   UNL     1     -70.736 -74.416  26.393  0.00  0.00    +0.000 A 
ATOM     19  C   UNL     1     -70.364 -75.599  25.765  0.00  0.00    +0.000 A 
ATOM     20  C   UNL     1     -61.327 -71.589  24.714  0.00  0.00    +0.000 A 
ATOM     21  C   UNL     1     -62.967 -75.214  24.894  0.00  0.00    +0.000 A 
ATOM     22  C   UNL     1     -63.732 -74.180  22.844  0.00  0.00    +0.000 A 
ATOM     23  C   UNL     1     -60.223 -72.081  24.028  0.00  0.00    +0.000 A 
ATOM     24  C   UNL     1     -60.173 -69.566  25.303  0.00  0.00    +0.000 A 
ATOM     25  C   UNL     1     -61.425 -74.007  23.497  0.00  0.00    +0.000 A 
ATOM     26  C   UNL     1     -61.667 -74.793  24.625  0.00  0.00    +0.000 A 
ATOM     27  C   UNL     1     -62.434 -73.755  22.568  0.00  0.00    +0.000 A 
ATOM     28  C   UNL     1     -59.078 -71.293  23.984  0.00  0.00    +0.000 A 
ATOM     29  C   UNL     1     -59.050 -70.044  24.615  0.00  0.00    +0.000 A 
ENDROOT
BRANCH  11  30
ATOM     30  O   UNL     1     -68.531 -70.827  25.198  0.00  0.00    +0.000 OA
ATOM     31  H   UNL     1     -68.253 -70.655  24.277  0.00  0.00    +0.000 HD
ENDBRANCH  11  30
BRANCH  16  32
ATOM     32  O   UNL     1     -70.269 -72.252  27.162  0.00  0.00    +0.000 OA
ATOM     33  H   UNL     1     -69.804 -71.511  26.729  0.00  0.00    +0.000 HD
ENDBRANCH  16  32
BRANCH  28  34
ATOM     34  O   UNL     1     -57.954 -71.708  23.329  0.00  0.00    +0.000 OA
ATOM     35  H   UNL     1     -58.237 -72.078  22.473  0.00  0.00    +0.000 HD
ENDBRANCH  28  34
TORSDOF 3
ENDMDL
MODEL 4
REMARK VINA RESULT:      -7.8      4.718      9.750
REMARK  Name = 14132199_RiccardinD.pdbqt.pdb
REMARK  3 active torsions:
REMARK  status: ('A' for Active; 'I' for Inactive)
REMARK    1  A    between atoms: C_11  and  O_30
REMARK    2  A    between atoms: C_16  and  O_32
REMARK    3  A    between atoms: C_28  and  O_34
REMARK                            x       y       z     vdW  Elec       q    Type
REMARK                         _______ _______ _______ _____ _____    ______ ____
ROOT
ATOM      1  O   UNL     1     -45.865 -58.665  36.019  0.00  0.00    +0.000 OA
ATOM      2  C   UNL     1     -47.692 -64.526  32.752  0.00  0.00    +0.000 C 
ATOM      3  C   UNL     1     -47.653 -65.518  31.717  0.00  0.00    +0.000 A 
ATOM      4  C   UNL     1     -46.817 -65.374  30.580  0.00  0.00    +0.000 A 
ATOM      5  C   UNL     1     -47.595 -63.388  33.781  0.00  0.00    +0.000 C 
ATOM      6  C   UNL     1     -44.113 -60.444  30.812  0.00  0.00    +0.000 C 
ATOM      7  C   UNL     1     -46.047 -64.130  30.358  0.00  0.00    +0.000 A 
ATOM      8  C   UNL     1     -44.694 -61.660  30.347  0.00  0.00    +0.000 A 
ATOM      9  C   UNL     1     -43.807 -59.250  31.719  0.00  0.00    +0.000 C 
ATOM     10  C   UNL     1     -47.349 -62.248  34.604  0.00  0.00    +0.000 A 
ATOM     11  C   UNL     1     -44.645 -64.067  30.385  0.00  0.00    +0.000 A 
ATOM     12  C   UNL     1     -43.911 -58.429  32.875  0.00  0.00    +0.000 A 
ATOM     13  C   UNL     1     -46.742 -62.922  30.202  0.00  0.00    +0.000 A 
ATOM     14  C   UNL     1     -43.969 -62.846  30.402  0.00  0.00    +0.000 A 
ATOM     15  C   UNL     1     -46.079 -61.699  30.206  0.00  0.00    +0.000 A 
ATOM     16  C   UNL     1     -46.774 -66.454  29.679  0.00  0.00    +0.000 A 
ATOM     17  C   UNL     1     -48.434 -66.662  31.895  0.00  0.00    +0.000 A 
ATOM     18  C   UNL     1     -47.570 -67.586  29.852  0.00  0.00    +0.000 A 
ATOM     19  C   UNL     1     -48.408 -67.686  30.956  0.00  0.00    +0.000 A 
ATOM     20  C   UNL     1     -44.778 -58.897  33.857  0.00  0.00    +0.000 A 
ATOM     21  C   UNL     1     -48.070 -61.073  34.388  0.00  0.00    +0.000 A 
ATOM     22  C   UNL     1     -46.250 -62.250  35.464  0.00  0.00    +0.000 A 
ATOM     23  C   UNL     1     -44.999 -58.202  35.041  0.00  0.00    +0.000 A 
ATOM     24  C   UNL     1     -43.235 -57.234  33.066  0.00  0.00    +0.000 A 
ATOM     25  C   UNL     1     -46.476 -59.871  35.729  0.00  0.00    +0.000 A 
ATOM     26  C   UNL     1     -47.641 -59.878  34.961  0.00  0.00    +0.000 A 
ATOM     27  C   UNL     1     -45.814 -61.059  36.041  0.00  0.00    +0.000 A 
ATOM     28  C   UNL     1     -44.321 -57.004  35.230  0.00  0.00    +0.000 A 
ATOM     29  C   UNL     1     -43.444 -56.520  34.253  0.00  0.00    +0.000 A 
ENDROOT
BRANCH  11  30
ATOM     30  O   UNL     1     -43.922 -65.231  30.413  0.00  0.00    +0.000 OA
ATOM     31  H   UNL     1     -43.336 -65.204  31.194  0.00  0.00    +0.000 HD
ENDBRANCH  11  30
BRANCH  16  32
ATOM     32  O   UNL     1     -45.938 -66.469  28.594  0.00  0.00    +0.000 OA
ATOM     33  H   UNL     1     -46.278 -67.153  27.986  0.00  0.00    +0.000 HD
ENDBRANCH  16  32
BRANCH  28  34
ATOM     34  O   UNL     1     -44.487 -56.265  36.368  0.00  0.00    +0.000 OA
ATOM     35  H   UNL     1     -45.278 -56.607  36.822  0.00  0.00    +0.000 HD
ENDBRANCH  28  34
TORSDOF 3
ENDMDL
MODEL 5
REMARK VINA RESULT:      -7.7      3.715      8.141
REMARK  Name = 14132199_RiccardinD.pdbqt.pdb
REMARK  3 active torsions:
REMARK  status: ('A' for Active; 'I' for Inactive)
REMARK    1  A    between atoms: C_11  and  O_30
REMARK    2  A    between atoms: C_16  and  O_32
REMARK    3  A    between atoms: C_28  and  O_34
REMARK                            x       y       z     vdW  Elec       q    Type
REMARK                         _______ _______ _______ _____ _____    ______ ____
ROOT
ATOM      1  O   UNL     1     -45.139 -58.907  32.836  0.00  0.00    +0.000 OA
ATOM      2  C   UNL     1     -47.338 -65.456  32.040  0.00  0.00    +0.000 C 
ATOM      3  C   UNL     1     -47.547 -66.696  31.349  0.00  0.00    +0.000 A 
ATOM      4  C   UNL     1     -47.163 -66.865  29.993  0.00  0.00    +0.000 A 
ATOM      5  C   UNL     1     -47.019 -64.078  32.641  0.00  0.00    +0.000 C 
ATOM      6  C   UNL     1     -45.069 -62.042  27.987  0.00  0.00    +0.000 C 
ATOM      7  C   UNL     1     -46.647 -65.725  29.203  0.00  0.00    +0.000 A 
ATOM      8  C   UNL     1     -45.643 -63.343  28.084  0.00  0.00    +0.000 A 
ATOM      9  C   UNL     1     -44.602 -60.641  28.390  0.00  0.00    +0.000 C 
ATOM     10  C   UNL     1     -46.630 -62.754  33.003  0.00  0.00    +0.000 A 
ATOM     11  C   UNL     1     -45.334 -65.647  28.717  0.00  0.00    +0.000 A 
ATOM     12  C   UNL     1     -44.395 -59.534  29.257  0.00  0.00    +0.000 A 
ATOM     13  C   UNL     1     -47.476 -64.612  29.000  0.00  0.00    +0.000 A 
ATOM     14  C   UNL     1     -44.822 -64.462  28.182  0.00  0.00    +0.000 A 
ATOM     15  C   UNL     1     -46.982 -63.430  28.456  0.00  0.00    +0.000 A 
ATOM     16  C   UNL     1     -47.314 -68.151  29.444  0.00  0.00    +0.000 A 
ATOM     17  C   UNL     1     -48.098 -67.752  32.077  0.00  0.00    +0.000 A 
ATOM     18  C   UNL     1     -47.883 -69.198  30.170  0.00  0.00    +0.000 A 
ATOM     19  C   UNL     1     -48.284 -68.995  31.485  0.00  0.00    +0.000 A 
ATOM     20  C   UNL     1     -44.826 -59.719  30.566  0.00  0.00    +0.000 A 
ATOM     21  C   UNL     1     -47.501 -61.690  32.763  0.00  0.00    +0.000 A 
ATOM     22  C   UNL     1     -45.312 -62.509  33.390  0.00  0.00    +0.000 A 
ATOM     23  C   UNL     1     -44.707 -58.726  31.532  0.00  0.00    +0.000 A 
ATOM     24  C   UNL     1     -43.823 -58.327  28.884  0.00  0.00    +0.000 A 
ATOM     25  C   UNL     1     -45.682 -60.151  33.099  0.00  0.00    +0.000 A 
ATOM     26  C   UNL     1     -47.031 -60.380  32.822  0.00  0.00    +0.000 A 
ATOM     27  C   UNL     1     -44.834 -61.202  33.451  0.00  0.00    +0.000 A 
ATOM     28  C   UNL     1     -44.133 -57.517  31.157  0.00  0.00    +0.000 A 
ATOM     29  C   UNL     1     -43.693 -57.316  29.844  0.00  0.00    +0.000 A 
ENDROOT
BRANCH  11  30
ATOM     30  O   UNL     1     -44.526 -66.751  28.785  0.00  0.00    +0.000 OA
ATOM     31  H   UNL     1     -44.803 -67.283  29.555  0.00  0.00    +0.000 HD
ENDBRANCH  11  30
BRANCH  16  32
ATOM     32  O   UNL     1     -46.896 -68.459  28.176  0.00  0.00    +0.000 OA
ATOM     33  H   UNL     1     -47.258 -67.772  27.586  0.00  0.00    +0.000 HD
ENDBRANCH  16  32
BRANCH  28  34
ATOM     34  O   UNL     1     -43.982 -56.495  32.050  0.00  0.00    +0.000 OA
ATOM     35  H   UNL     1     -44.853 -56.071  32.157  0.00  0.00    +0.000 HD
ENDBRANCH  28  34
TORSDOF 3
ENDMDL
MODEL 6
REMARK VINA RESULT:      -7.7     31.844     35.937
REMARK  Name = 14132199_RiccardinD.pdbqt.pdb
REMARK  3 active torsions:
REMARK  status: ('A' for Active; 'I' for Inactive)
REMARK    1  A    between atoms: C_11  and  O_30
REMARK    2  A    between atoms: C_16  and  O_32
REMARK    3  A    between atoms: C_28  and  O_34
REMARK                            x       y       z     vdW  Elec       q    Type
REMARK                         _______ _______ _______ _____ _____    ______ ____
ROOT
ATOM      1  O   UNL     1     -41.672 -77.193  56.247  0.00  0.00    +0.000 OA
ATOM      2  C   UNL     1     -44.102 -76.377  62.712  0.00  0.00    +0.000 C 
ATOM      3  C   UNL     1     -44.105 -75.890  64.062  0.00  0.00    +0.000 A 
ATOM      4  C   UNL     1     -43.036 -75.109  64.572  0.00  0.00    +0.000 A 
ATOM      5  C   UNL     1     -43.958 -76.796  61.240  0.00  0.00    +0.000 C 
ATOM      6  C   UNL     1     -39.027 -74.570  60.660  0.00  0.00    +0.000 C 
ATOM      7  C   UNL     1     -41.816 -74.875  63.768  0.00  0.00    +0.000 A 
ATOM      8  C   UNL     1     -39.723 -74.599  61.903  0.00  0.00    +0.000 A 
ATOM      9  C   UNL     1     -38.709 -74.812  59.182  0.00  0.00    +0.000 C 
ATOM     10  C   UNL     1     -43.638 -77.066  59.876  0.00  0.00    +0.000 A 
ATOM     11  C   UNL     1     -41.431 -73.615  63.287  0.00  0.00    +0.000 A 
ATOM     12  C   UNL     1     -38.924 -75.299  57.865  0.00  0.00    +0.000 A 
ATOM     13  C   UNL     1     -41.041 -75.977  63.378  0.00  0.00    +0.000 A 
ATOM     14  C   UNL     1     -40.409 -73.473  62.346  0.00  0.00    +0.000 A 
ATOM     15  C   UNL     1     -40.012 -75.847  62.450  0.00  0.00    +0.000 A 
ATOM     16  C   UNL     1     -43.189 -74.592  65.872  0.00  0.00    +0.000 A 
ATOM     17  C   UNL     1     -45.228 -76.170  64.843  0.00  0.00    +0.000 A 
ATOM     18  C   UNL     1     -44.304 -74.890  66.655  0.00  0.00    +0.000 A 
ATOM     19  C   UNL     1     -45.320 -75.688  66.143  0.00  0.00    +0.000 A 
ATOM     20  C   UNL     1     -40.125 -75.972  57.671  0.00  0.00    +0.000 A 
ATOM     21  C   UNL     1     -42.852 -78.175  59.559  0.00  0.00    +0.000 A 
ATOM     22  C   UNL     1     -43.927 -76.109  58.903  0.00  0.00    +0.000 A 
ATOM     23  C   UNL     1     -40.477 -76.519  56.442  0.00  0.00    +0.000 A 
ATOM     24  C   UNL     1     -38.035 -75.157  56.809  0.00  0.00    +0.000 A 
ATOM     25  C   UNL     1     -42.486 -77.264  57.363  0.00  0.00    +0.000 A 
ATOM     26  C   UNL     1     -42.281 -78.284  58.293  0.00  0.00    +0.000 A 
ATOM     27  C   UNL     1     -43.359 -76.210  57.635  0.00  0.00    +0.000 A 
ATOM     28  C   UNL     1     -39.585 -76.377  55.385  0.00  0.00    +0.000 A 
ATOM     29  C   UNL     1     -38.373 -75.701  55.563  0.00  0.00    +0.000 A 
ENDROOT
BRANCH  11  30
ATOM     30  O   UNL     1     -42.083 -72.497  63.737  0.00  0.00    +0.000 OA
ATOM     31  H   UNL     1     -41.582 -71.713  63.440  0.00  0.00    +0.000 HD
ENDBRANCH  11  30
BRANCH  16  32
ATOM     32  O   UNL     1     -42.266 -73.752  66.438  0.00  0.00    +0.000 OA
ATOM     33  H   UNL     1     -42.768 -73.076  66.932  0.00  0.00    +0.000 HD
ENDBRANCH  16  32
BRANCH  28  34
ATOM     34  O   UNL     1     -39.862 -76.888  54.149  0.00  0.00    +0.000 OA
ATOM     35  H   UNL     1     -40.396 -76.225  53.674  0.00  0.00    +0.000 HD
ENDBRANCH  28  34
TORSDOF 3
ENDMDL
MODEL 7
REMARK VINA RESULT:      -7.4     29.723     33.025
REMARK  Name = 14132199_RiccardinD.pdbqt.pdb
REMARK  3 active torsions:
REMARK  status: ('A' for Active; 'I' for Inactive)
REMARK    1  A    between atoms: C_11  and  O_30
REMARK    2  A    between atoms: C_16  and  O_32
REMARK    3  A    between atoms: C_28  and  O_34
REMARK                            x       y       z     vdW  Elec       q    Type
REMARK                         _______ _______ _______ _____ _____    ______ ____
ROOT
ATOM      1  O   UNL     1     -26.649 -48.916  49.246  0.00  0.00    +0.000 OA
ATOM      2  C   UNL     1     -29.277 -51.063  55.316  0.00  0.00    +0.000 C 
ATOM      3  C   UNL     1     -30.222 -51.706  56.183  0.00  0.00    +0.000 A 
ATOM      4  C   UNL     1     -31.413 -52.290  55.682  0.00  0.00    +0.000 A 
ATOM      5  C   UNL     1     -28.359 -50.439  54.253  0.00  0.00    +0.000 C 
ATOM      6  C   UNL     1     -31.772 -51.430  50.132  0.00  0.00    +0.000 C 
ATOM      7  C   UNL     1     -31.788 -52.145  54.257  0.00  0.00    +0.000 A 
ATOM      8  C   UNL     1     -32.094 -51.713  51.491  0.00  0.00    +0.000 A 
ATOM      9  C   UNL     1     -30.992 -50.938  48.910  0.00  0.00    +0.000 C 
ATOM     10  C   UNL     1     -27.655 -49.933  53.119  0.00  0.00    +0.000 A 
ATOM     11  C   UNL     1     -31.847 -53.218  53.356  0.00  0.00    +0.000 A 
ATOM     12  C   UNL     1     -29.909 -50.346  48.205  0.00  0.00    +0.000 A 
ATOM     13  C   UNL     1     -32.008 -50.859  53.744  0.00  0.00    +0.000 A 
ATOM     14  C   UNL     1     -31.976 -53.010  51.981  0.00  0.00    +0.000 A 
ATOM     15  C   UNL     1     -32.150 -50.640  52.377  0.00  0.00    +0.000 A 
ATOM     16  C   UNL     1     -32.217 -52.989  56.602  0.00  0.00    +0.000 A 
ATOM     17  C   UNL     1     -29.899 -51.783  57.540  0.00  0.00    +0.000 A 
ATOM     18  C   UNL     1     -31.900 -53.046  57.959  0.00  0.00    +0.000 A 
ATOM     19  C   UNL     1     -30.744 -52.434  58.430  0.00  0.00    +0.000 A 
ATOM     20  C   UNL     1     -28.841 -49.936  48.997  0.00  0.00    +0.000 A 
ATOM     21  C   UNL     1     -27.931 -48.647  52.653  0.00  0.00    +0.000 A 
ATOM     22  C   UNL     1     -26.863 -50.799  52.364  0.00  0.00    +0.000 A 
ATOM     23  C   UNL     1     -27.712 -49.328  48.459  0.00  0.00    +0.000 A 
ATOM     24  C   UNL     1     -29.863 -50.153  46.833  0.00  0.00    +0.000 A 
ATOM     25  C   UNL     1     -26.796 -49.169  50.598  0.00  0.00    +0.000 A 
ATOM     26  C   UNL     1     -27.491 -48.255  51.391  0.00  0.00    +0.000 A 
ATOM     27  C   UNL     1     -26.419 -50.415  51.100  0.00  0.00    +0.000 A 
ATOM     28  C   UNL     1     -27.668 -49.135  47.084  0.00  0.00    +0.000 A 
ATOM     29  C   UNL     1     -28.733 -49.543  46.273  0.00  0.00    +0.000 A 
ENDROOT
BRANCH  11  30
ATOM     30  O   UNL     1     -31.759 -54.500  53.830  0.00  0.00    +0.000 OA
ATOM     31  H   UNL     1     -31.262 -54.479  54.671  0.00  0.00    +0.000 HD
ENDBRANCH  11  30
BRANCH  16  32
ATOM     32  O   UNL     1     -33.343 -53.670  56.220  0.00  0.00    +0.000 OA
ATOM     33  H   UNL     1     -33.110 -54.170  55.415  0.00  0.00    +0.000 HD
ENDBRANCH  16  32
BRANCH  28  34
ATOM     34  O   UNL     1     -26.592 -48.544  46.483  0.00  0.00    +0.000 OA
ATOM     35  H   UNL     1     -25.802 -48.791  46.997  0.00  0.00    +0.000 HD
ENDBRANCH  28  34
TORSDOF 3
ENDMDL
MODEL 8
REMARK VINA RESULT:      -7.2     30.156     31.919
REMARK  Name = 14132199_RiccardinD.pdbqt.pdb
REMARK  3 active torsions:
REMARK  status: ('A' for Active; 'I' for Inactive)
REMARK    1  A    between atoms: C_11  and  O_30
REMARK    2  A    between atoms: C_16  and  O_32
REMARK    3  A    between atoms: C_28  and  O_34
REMARK                            x       y       z     vdW  Elec       q    Type
REMARK                         _______ _______ _______ _____ _____    ______ ____
ROOT
ATOM      1  O   UNL     1     -75.672 -62.556  26.986  0.00  0.00    +0.000 OA
ATOM      2  C   UNL     1     -77.007 -62.227  33.803  0.00  0.00    +0.000 C 
ATOM      3  C   UNL     1     -77.405 -61.607  35.034  0.00  0.00    +0.000 A 
ATOM      4  C   UNL     1     -77.738 -60.229  35.099  0.00  0.00    +0.000 A 
ATOM      5  C   UNL     1     -76.629 -62.741  32.404  0.00  0.00    +0.000 C 
ATOM      6  C   UNL     1     -77.003 -57.848  30.053  0.00  0.00    +0.000 C 
ATOM      7  C   UNL     1     -77.563 -59.350  33.921  0.00  0.00    +0.000 A 
ATOM      8  C   UNL     1     -77.166 -58.050  31.455  0.00  0.00    +0.000 A 
ATOM      9  C   UNL     1     -76.730 -58.150  28.578  0.00  0.00    +0.000 C 
ATOM     10  C   UNL     1     -76.323 -63.013  31.038  0.00  0.00    +0.000 A 
ATOM     11  C   UNL     1     -78.627 -58.740  33.241  0.00  0.00    +0.000 A 
ATOM     12  C   UNL     1     -76.406 -58.950  27.449  0.00  0.00    +0.000 A 
ATOM     13  C   UNL     1     -76.277 -59.183  33.388  0.00  0.00    +0.000 A 
ATOM     14  C   UNL     1     -78.442 -58.113  32.007  0.00  0.00    +0.000 A 
ATOM     15  C   UNL     1     -76.077 -58.549  32.165  0.00  0.00    +0.000 A 
ATOM     16  C   UNL     1     -78.218 -59.747  36.331  0.00  0.00    +0.000 A 
ATOM     17  C   UNL     1     -77.505 -62.425  36.162  0.00  0.00    +0.000 A 
ATOM     18  C   UNL     1     -78.297 -60.563  37.459  0.00  0.00    +0.000 A 
ATOM     19  C   UNL     1     -77.931 -61.901  37.376  0.00  0.00    +0.000 A 
ATOM     20  C   UNL     1     -76.208 -60.300  27.716  0.00  0.00    +0.000 A 
ATOM     21  C   UNL     1     -75.024 -62.814  30.569  0.00  0.00    +0.000 A 
ATOM     22  C   UNL     1     -77.362 -63.264  30.141  0.00  0.00    +0.000 A 
ATOM     23  C   UNL     1     -75.873 -61.211  26.721  0.00  0.00    +0.000 A 
ATOM     24  C   UNL     1     -76.272 -58.478  26.151  0.00  0.00    +0.000 A 
ATOM     25  C   UNL     1     -75.843 -62.918  28.310  0.00  0.00    +0.000 A 
ATOM     26  C   UNL     1     -74.776 -62.777  29.199  0.00  0.00    +0.000 A 
ATOM     27  C   UNL     1     -77.123 -63.228  28.769  0.00  0.00    +0.000 A 
ATOM     28  C   UNL     1     -75.739 -60.737  25.421  0.00  0.00    +0.000 A 
ATOM     29  C   UNL     1     -75.937 -59.381  25.135  0.00  0.00    +0.000 A 
ENDROOT
BRANCH  11  30
ATOM     30  O   UNL     1     -79.882 -58.775  33.789  0.00  0.00    +0.000 OA
ATOM     31  H   UNL     1     -79.993 -57.980  34.346  0.00  0.00    +0.000 HD
ENDBRANCH  11  30
BRANCH  16  32
ATOM     32  O   UNL     1     -78.655 -58.458  36.492  0.00  0.00    +0.000 OA
ATOM     33  H   UNL     1     -79.379 -58.487  37.146  0.00  0.00    +0.000 HD
ENDBRANCH  16  32
BRANCH  28  34
ATOM     34  O   UNL     1     -75.412 -61.571  24.390  0.00  0.00    +0.000 OA
ATOM     35  H   UNL     1     -74.757 -61.107  23.837  0.00  0.00    +0.000 HD
ENDBRANCH  28  34
TORSDOF 3
ENDMDL
MODEL 9
REMARK VINA RESULT:      -7.2     12.788     14.138
REMARK  Name = 14132199_RiccardinD.pdbqt.pdb
REMARK  3 active torsions:
REMARK  status: ('A' for Active; 'I' for Inactive)
REMARK    1  A    between atoms: C_11  and  O_30
REMARK    2  A    between atoms: C_16  and  O_32
REMARK    3  A    between atoms: C_28  and  O_34
REMARK                            x       y       z     vdW  Elec       q    Type
REMARK                         _______ _______ _______ _____ _____    ______ ____
ROOT
ATOM      1  O   UNL     1     -38.149 -55.926  35.089  0.00  0.00    +0.000 OA
ATOM      2  C   UNL     1     -43.834 -52.031  34.156  0.00  0.00    +0.000 C 
ATOM      3  C   UNL     1     -44.786 -51.254  33.415  0.00  0.00    +0.000 A 
ATOM      4  C   UNL     1     -44.617 -50.994  32.030  0.00  0.00    +0.000 A 
ATOM      5  C   UNL     1     -42.740 -52.902  34.794  0.00  0.00    +0.000 C 
ATOM      6  C   UNL     1     -39.764 -53.218  30.250  0.00  0.00    +0.000 C 
ATOM      7  C   UNL     1     -43.383 -51.409  31.326  0.00  0.00    +0.000 A 
ATOM      8  C   UNL     1     -40.946 -52.429  30.349  0.00  0.00    +0.000 A 
ATOM      9  C   UNL     1     -38.613 -54.144  30.653  0.00  0.00    +0.000 C 
ATOM     10  C   UNL     1     -41.640 -53.722  35.183  0.00  0.00    +0.000 A 
ATOM     11  C   UNL     1     -43.354 -52.382  30.316  0.00  0.00    +0.000 A 
ATOM     12  C   UNL     1     -37.836 -54.957  31.522  0.00  0.00    +0.000 A 
ATOM     13  C   UNL     1     -42.155 -50.877  31.743  0.00  0.00    +0.000 A 
ATOM     14  C   UNL     1     -42.150 -52.908  29.843  0.00  0.00    +0.000 A 
ATOM     15  C   UNL     1     -40.948 -51.384  31.270  0.00  0.00    +0.000 A 
ATOM     16  C   UNL     1     -45.662 -50.315  31.377  0.00  0.00    +0.000 A 
ATOM     17  C   UNL     1     -45.918 -50.804  34.098  0.00  0.00    +0.000 A 
ATOM     18  C   UNL     1     -46.781 -49.851  32.068  0.00  0.00    +0.000 A 
ATOM     19  C   UNL     1     -46.905 -50.088  33.431  0.00  0.00    +0.000 A 
ATOM     20  C   UNL     1     -38.322 -55.068  32.821  0.00  0.00    +0.000 A 
ATOM     21  C   UNL     1     -40.441 -53.127  35.577  0.00  0.00    +0.000 A 
ATOM     22  C   UNL     1     -41.701 -55.099  34.960  0.00  0.00    +0.000 A 
ATOM     23  C   UNL     1     -37.669 -55.816  33.794  0.00  0.00    +0.000 A 
ATOM     24  C   UNL     1     -36.665 -55.609  31.166  0.00  0.00    +0.000 A 
ATOM     25  C   UNL     1     -39.329 -55.245  35.328  0.00  0.00    +0.000 A 
ATOM     26  C   UNL     1     -39.280 -53.891  35.663  0.00  0.00    +0.000 A 
ATOM     27  C   UNL     1     -40.543 -55.870  35.043  0.00  0.00    +0.000 A 
ATOM     28  C   UNL     1     -36.495 -56.469  33.436  0.00  0.00    +0.000 A 
ATOM     29  C   UNL     1     -35.994 -56.369  32.133  0.00  0.00    +0.000 A 
ENDROOT
BRANCH  11  30
ATOM     30  O   UNL     1     -44.534 -52.843  29.793  0.00  0.00    +0.000 OA
ATOM     31  H   UNL     1     -44.511 -52.707  28.826  0.00  0.00    +0.000 HD
ENDBRANCH  11  30
BRANCH  16  32
ATOM     32  O   UNL     1     -45.654 -50.086  30.026  0.00  0.00    +0.000 OA
ATOM     33  H   UNL     1     -46.518 -50.383  29.686  0.00  0.00    +0.000 HD
ENDBRANCH  16  32
BRANCH  28  34
ATOM     34  O   UNL     1     -35.798 -57.223  34.337  0.00  0.00    +0.000 OA
ATOM     35  H   UNL     1     -35.899 -58.156  34.073  0.00  0.00    +0.000 HD
ENDBRANCH  28  34
TORSDOF 3
ENDMDL
