MODEL 1
REMARK VINA RESULT:      -4.4      0.000      0.000
REMARK  Name = 146026348_FluorouracilMononitrate.pdbqt.pdb
REMARK  2 active torsions:
REMARK  status: ('A' for Active; 'I' for Inactive)
REMARK    1  A    between atoms: N_4  and  O_10
REMARK    2  A    between atoms: O_10  and  N_13
REMARK                            x       y       z     vdW  Elec       q    Type
REMARK                         _______ _______ _______ _____ _____    ______ ____
ROOT
ATOM      1  F   UNL     1     -52.120 -41.297  37.401  0.00  0.00    +0.000 F 
ATOM      2  O   UNL     1     -49.400 -41.702  37.896  0.00  0.00    +0.000 OA
ATOM      3  O   UNL     1     -50.506 -42.162  42.417  0.00  0.00    +0.000 OA
ATOM      4  N   UNL     1     -49.884 -41.779  40.184  0.00  0.00    +0.000 N 
ATOM      5  N   UNL     1     -51.611 -41.380  38.640  0.00  0.00    +0.000 N 
ATOM      6  C   UNL     1     -50.215 -41.617  38.810  0.00  0.00    +0.000 A 
ATOM      7  C   UNL     1     -50.767 -41.868  41.262  0.00  0.00    +0.000 A 
ATOM      8  C   UNL     1     -52.120 -41.608  40.829  0.00  0.00    +0.000 A 
ATOM      9  C   UNL     1     -52.443 -41.403  39.698  0.00  0.00    +0.000 A 
ENDROOT
BRANCH   4  10
ATOM     10  O   UNL     1     -48.543 -42.110  40.452  0.00  0.00    +0.000 OA
BRANCH  10  13
ATOM     11  O   UNL     1     -47.128 -41.360  42.030  0.00  0.00    +0.000 OA
ATOM     12  O   UNL     1     -47.899 -39.990  40.440  0.00  0.00    +0.000 OA
ATOM     13  N   UNL     1     -47.789 -41.061  41.032  0.00  0.00    +0.000 N 
ENDBRANCH  10  13
ENDBRANCH   4  10
TORSDOF 2
ENDMDL
MODEL 2
REMARK VINA RESULT:      -4.0     18.765     20.194
REMARK  Name = 146026348_FluorouracilMononitrate.pdbqt.pdb
REMARK  2 active torsions:
REMARK  status: ('A' for Active; 'I' for Inactive)
REMARK    1  A    between atoms: N_4  and  O_10
REMARK    2  A    between atoms: O_10  and  N_13
REMARK                            x       y       z     vdW  Elec       q    Type
REMARK                         _______ _______ _______ _____ _____    ______ ____
ROOT
ATOM      1  F   UNL     1     -64.386 -42.540  53.991  0.00  0.00    +0.000 F 
ATOM      2  O   UNL     1     -66.414 -44.126  52.904  0.00  0.00    +0.000 OA
ATOM      3  O   UNL     1     -65.732 -41.861  48.868  0.00  0.00    +0.000 OA
ATOM      4  N   UNL     1     -66.219 -42.911  50.912  0.00  0.00    +0.000 N 
ATOM      5  N   UNL     1     -64.883 -42.341  52.760  0.00  0.00    +0.000 N 
ATOM      6  C   UNL     1     -65.898 -43.212  52.265  0.00  0.00    +0.000 A 
ATOM      7  C   UNL     1     -65.566 -42.012  50.068  0.00  0.00    +0.000 A 
ATOM      8  C   UNL     1     -64.572 -41.263  50.801  0.00  0.00    +0.000 A 
ATOM      9  C   UNL     1     -64.307 -41.432  51.952  0.00  0.00    +0.000 A 
ENDROOT
BRANCH   4  10
ATOM     10  O   UNL     1     -67.145 -43.776  50.301  0.00  0.00    +0.000 OA
BRANCH  10  13
ATOM     11  O   UNL     1     -68.885 -42.630  51.149  0.00  0.00    +0.000 OA
ATOM     12  O   UNL     1     -68.954 -43.440  49.066  0.00  0.00    +0.000 OA
ATOM     13  N   UNL     1     -68.447 -43.233  50.166  0.00  0.00    +0.000 N 
ENDBRANCH  10  13
ENDBRANCH   4  10
TORSDOF 2
ENDMDL
MODEL 3
REMARK VINA RESULT:      -3.9     36.901     37.766
REMARK  Name = 146026348_FluorouracilMononitrate.pdbqt.pdb
REMARK  2 active torsions:
REMARK  status: ('A' for Active; 'I' for Inactive)
REMARK    1  A    between atoms: N_4  and  O_10
REMARK    2  A    between atoms: O_10  and  N_13
REMARK                            x       y       z     vdW  Elec       q    Type
REMARK                         _______ _______ _______ _____ _____    ______ ____
ROOT
ATOM      1  F   UNL     1     -60.288 -78.520  54.003  0.00  0.00    +0.000 F 
ATOM      2  O   UNL     1     -59.169 -78.019  51.491  0.00  0.00    +0.000 OA
ATOM      3  O   UNL     1     -57.239 -74.186  53.350  0.00  0.00    +0.000 OA
ATOM      4  N   UNL     1     -58.317 -76.009  52.334  0.00  0.00    +0.000 N 
ATOM      5  N   UNL     1     -59.629 -77.388  53.713  0.00  0.00    +0.000 N 
ATOM      6  C   UNL     1     -59.062 -77.219  52.416  0.00  0.00    +0.000 A 
ATOM      7  C   UNL     1     -58.003 -75.136  53.377  0.00  0.00    +0.000 A 
ATOM      8  C   UNL     1     -58.685 -75.531  54.588  0.00  0.00    +0.000 A 
ATOM      9  C   UNL     1     -59.372 -76.501  54.694  0.00  0.00    +0.000 A 
ENDROOT
BRANCH   4  10
ATOM     10  O   UNL     1     -57.638 -75.794  51.121  0.00  0.00    +0.000 OA
BRANCH  10  13
ATOM     11  O   UNL     1     -59.336 -74.842  49.994  0.00  0.00    +0.000 OA
ATOM     12  O   UNL     1     -57.346 -73.832  50.134  0.00  0.00    +0.000 OA
ATOM     13  N   UNL     1     -58.158 -74.730  50.343  0.00  0.00    +0.000 N 
ENDBRANCH  10  13
ENDBRANCH   4  10
TORSDOF 2
ENDMDL
MODEL 4
REMARK VINA RESULT:      -3.8      1.858      2.494
REMARK  Name = 146026348_FluorouracilMononitrate.pdbqt.pdb
REMARK  2 active torsions:
REMARK  status: ('A' for Active; 'I' for Inactive)
REMARK    1  A    between atoms: N_4  and  O_10
REMARK    2  A    between atoms: O_10  and  N_13
REMARK                            x       y       z     vdW  Elec       q    Type
REMARK                         _______ _______ _______ _____ _____    ______ ____
ROOT
ATOM      1  F   UNL     1     -51.323 -42.020  38.785  0.00  0.00    +0.000 F 
ATOM      2  O   UNL     1     -48.841 -41.505  37.609  0.00  0.00    +0.000 OA
ATOM      3  O   UNL     1     -47.078 -41.265  41.935  0.00  0.00    +0.000 OA
ATOM      4  N   UNL     1     -47.948 -41.217  39.753  0.00  0.00    +0.000 N 
ATOM      5  N   UNL     1     -50.238 -41.680  39.497  0.00  0.00    +0.000 N 
ATOM      6  C   UNL     1     -48.999 -41.462  38.826  0.00  0.00    +0.000 A 
ATOM      7  C   UNL     1     -48.006 -41.318  41.144  0.00  0.00    +0.000 A 
ATOM      8  C   UNL     1     -49.363 -41.560  41.576  0.00  0.00    +0.000 A 
ATOM      9  C   UNL     1     -50.292 -41.710  40.843  0.00  0.00    +0.000 A 
ENDROOT
BRANCH   4  10
ATOM     10  O   UNL     1     -46.664 -41.080  39.194  0.00  0.00    +0.000 OA
BRANCH  10  13
ATOM     11  O   UNL     1     -45.593 -39.252  39.947  0.00  0.00    +0.000 OA
ATOM     12  O   UNL     1     -46.589 -39.252  37.945  0.00  0.00    +0.000 OA
ATOM     13  N   UNL     1     -46.244 -39.738  39.019  0.00  0.00    +0.000 N 
ENDBRANCH  10  13
ENDBRANCH   4  10
TORSDOF 2
ENDMDL
MODEL 5
REMARK VINA RESULT:      -3.8     35.324     36.407
REMARK  Name = 146026348_FluorouracilMononitrate.pdbqt.pdb
REMARK  2 active torsions:
REMARK  status: ('A' for Active; 'I' for Inactive)
REMARK    1  A    between atoms: N_4  and  O_10
REMARK    2  A    between atoms: O_10  and  N_13
REMARK                            x       y       z     vdW  Elec       q    Type
REMARK                         _______ _______ _______ _____ _____    ______ ____
ROOT
ATOM      1  F   UNL     1     -38.231 -63.408  66.277  0.00  0.00    +0.000 F 
ATOM      2  O   UNL     1     -36.184 -63.394  64.375  0.00  0.00    +0.000 OA
ATOM      3  O   UNL     1     -33.400 -61.630  67.693  0.00  0.00    +0.000 OA
ATOM      4  N   UNL     1     -34.799 -62.362  65.955  0.00  0.00    +0.000 N 
ATOM      5  N   UNL     1     -37.032 -62.850  66.504  0.00  0.00    +0.000 N 
ATOM      6  C   UNL     1     -36.029 -62.910  65.493  0.00  0.00    +0.000 A 
ATOM      7  C   UNL     1     -34.491 -61.952  67.253  0.00  0.00    +0.000 A 
ATOM      8  C   UNL     1     -35.668 -61.998  68.089  0.00  0.00    +0.000 A 
ATOM      9  C   UNL     1     -36.738 -62.389  67.734  0.00  0.00    +0.000 A 
ENDROOT
BRANCH   4  10
ATOM     10  O   UNL     1     -33.717 -62.458  65.061  0.00  0.00    +0.000 OA
BRANCH  10  13
ATOM     11  O   UNL     1     -34.241 -60.767  63.675  0.00  0.00    +0.000 OA
ATOM     12  O   UNL     1     -32.262 -60.823  64.715  0.00  0.00    +0.000 OA
ATOM     13  N   UNL     1     -33.380 -61.240  64.420  0.00  0.00    +0.000 N 
ENDBRANCH  10  13
ENDBRANCH   4  10
TORSDOF 2
ENDMDL
MODEL 6
REMARK VINA RESULT:      -3.8     30.508     31.826
REMARK  Name = 146026348_FluorouracilMononitrate.pdbqt.pdb
REMARK  2 active torsions:
REMARK  status: ('A' for Active; 'I' for Inactive)
REMARK    1  A    between atoms: N_4  and  O_10
REMARK    2  A    between atoms: O_10  and  N_13
REMARK                            x       y       z     vdW  Elec       q    Type
REMARK                         _______ _______ _______ _____ _____    ______ ____
ROOT
ATOM      1  F   UNL     1     -48.502 -46.700  68.566  0.00  0.00    +0.000 F 
ATOM      2  O   UNL     1     -49.351 -48.700  70.323  0.00  0.00    +0.000 OA
ATOM      3  O   UNL     1     -45.044 -48.634  72.146  0.00  0.00    +0.000 OA
ATOM      4  N   UNL     1     -47.168 -48.816  71.158  0.00  0.00    +0.000 N 
ATOM      5  N   UNL     1     -47.666 -47.339  69.398  0.00  0.00    +0.000 N 
ATOM      6  C   UNL     1     -48.181 -48.329  70.286  0.00  0.00    +0.000 A 
ATOM      7  C   UNL     1     -45.866 -48.330  71.297  0.00  0.00    +0.000 A 
ATOM      8  C   UNL     1     -45.593 -47.325  70.296  0.00  0.00    +0.000 A 
ATOM      9  C   UNL     1     -46.388 -46.926  69.500  0.00  0.00    +0.000 A 
ENDROOT
BRANCH   4  10
ATOM     10  O   UNL     1     -47.596 -49.731  72.137  0.00  0.00    +0.000 OA
BRANCH  10  13
ATOM     11  O   UNL     1     -46.730 -51.511  71.070  0.00  0.00    +0.000 OA
ATOM     12  O   UNL     1     -48.778 -51.597  71.963  0.00  0.00    +0.000 OA
ATOM     13  N   UNL     1     -47.708 -51.066  71.677  0.00  0.00    +0.000 N 
ENDBRANCH  10  13
ENDBRANCH   4  10
TORSDOF 2
ENDMDL
MODEL 7
REMARK VINA RESULT:      -3.7     30.134     31.337
REMARK  Name = 146026348_FluorouracilMononitrate.pdbqt.pdb
REMARK  2 active torsions:
REMARK  status: ('A' for Active; 'I' for Inactive)
REMARK    1  A    between atoms: N_4  and  O_10
REMARK    2  A    between atoms: O_10  and  N_13
REMARK                            x       y       z     vdW  Elec       q    Type
REMARK                         _______ _______ _______ _____ _____    ______ ____
ROOT
ATOM      1  F   UNL     1     -47.947 -45.273  69.098  0.00  0.00    +0.000 F 
ATOM      2  O   UNL     1     -46.081 -46.495  70.783  0.00  0.00    +0.000 OA
ATOM      3  O   UNL     1     -47.999 -50.590  69.587  0.00  0.00    +0.000 OA
ATOM      4  N   UNL     1     -47.110 -48.550  70.339  0.00  0.00    +0.000 N 
ATOM      5  N   UNL     1     -47.978 -46.582  69.389  0.00  0.00    +0.000 N 
ATOM      6  C   UNL     1     -46.973 -47.137  70.234  0.00  0.00    +0.000 A 
ATOM      7  C   UNL     1     -47.981 -49.370  69.620  0.00  0.00    +0.000 A 
ATOM      8  C   UNL     1     -48.886 -48.572  68.826  0.00  0.00    +0.000 A 
ATOM      9  C   UNL     1     -48.855 -47.381  68.752  0.00  0.00    +0.000 A 
ENDROOT
BRANCH   4  10
ATOM     10  O   UNL     1     -46.109 -49.204  71.078  0.00  0.00    +0.000 OA
BRANCH  10  13
ATOM     11  O   UNL     1     -45.259 -48.966  73.147  0.00  0.00    +0.000 OA
ATOM     12  O   UNL     1     -47.454 -49.259  72.838  0.00  0.00    +0.000 OA
ATOM     13  N   UNL     1     -46.284 -49.140  72.483  0.00  0.00    +0.000 N 
ENDBRANCH  10  13
ENDBRANCH   4  10
TORSDOF 2
ENDMDL
MODEL 8
REMARK VINA RESULT:      -3.7     36.419     37.378
REMARK  Name = 146026348_FluorouracilMononitrate.pdbqt.pdb
REMARK  2 active torsions:
REMARK  status: ('A' for Active; 'I' for Inactive)
REMARK    1  A    between atoms: N_4  and  O_10
REMARK    2  A    between atoms: O_10  and  N_13
REMARK                            x       y       z     vdW  Elec       q    Type
REMARK                         _______ _______ _______ _____ _____    ______ ____
ROOT
ATOM      1  F   UNL     1     -67.760 -74.695  25.057  0.00  0.00    +0.000 F 
ATOM      2  O   UNL     1     -65.625 -72.899  25.231  0.00  0.00    +0.000 OA
ATOM      3  O   UNL     1     -67.560 -71.307  29.180  0.00  0.00    +0.000 OA
ATOM      4  N   UNL     1     -66.639 -71.963  27.121  0.00  0.00    +0.000 N 
ATOM      5  N   UNL     1     -67.703 -73.719  25.977  0.00  0.00    +0.000 N 
ATOM      6  C   UNL     1     -66.566 -72.860  26.019  0.00  0.00    +0.000 A 
ATOM      7  C   UNL     1     -67.579 -71.966  28.154  0.00  0.00    +0.000 A 
ATOM      8  C   UNL     1     -68.618 -72.933  27.886  0.00  0.00    +0.000 A 
ATOM      9  C   UNL     1     -68.638 -73.666  26.945  0.00  0.00    +0.000 A 
ENDROOT
BRANCH   4  10
ATOM     10  O   UNL     1     -65.517 -71.135  27.306  0.00  0.00    +0.000 OA
BRANCH  10  13
ATOM     11  O   UNL     1     -66.492 -69.449  26.181  0.00  0.00    +0.000 OA
ATOM     12  O   UNL     1     -64.306 -69.861  25.956  0.00  0.00    +0.000 OA
ATOM     13  N   UNL     1     -65.437 -70.051  26.397  0.00  0.00    +0.000 N 
ENDBRANCH  10  13
ENDBRANCH   4  10
TORSDOF 2
ENDMDL
MODEL 9
REMARK VINA RESULT:      -3.6     18.454     19.233
REMARK  Name = 146026348_FluorouracilMononitrate.pdbqt.pdb
REMARK  2 active torsions:
REMARK  status: ('A' for Active; 'I' for Inactive)
REMARK    1  A    between atoms: N_4  and  O_10
REMARK    2  A    between atoms: O_10  and  N_13
REMARK                            x       y       z     vdW  Elec       q    Type
REMARK                         _______ _______ _______ _____ _____    ______ ____
ROOT
ATOM      1  F   UNL     1     -64.622 -43.200  54.819  0.00  0.00    +0.000 F 
ATOM      2  O   UNL     1     -62.951 -40.973  54.579  0.00  0.00    +0.000 OA
ATOM      3  O   UNL     1     -64.650 -40.428  50.256  0.00  0.00    +0.000 OA
ATOM      4  N   UNL     1     -63.652 -40.757  52.356  0.00  0.00    +0.000 N 
ATOM      5  N   UNL     1     -64.461 -42.533  53.666  0.00  0.00    +0.000 N 
ATOM      6  C   UNL     1     -63.612 -41.388  53.631  0.00  0.00    +0.000 A 
ATOM      7  C   UNL     1     -64.499 -41.059  51.289  0.00  0.00    +0.000 A 
ATOM      8  C   UNL     1     -65.267 -42.249  51.576  0.00  0.00    +0.000 A 
ATOM      9  C   UNL     1     -65.224 -42.853  52.604  0.00  0.00    +0.000 A 
ENDROOT
BRANCH   4  10
ATOM     10  O   UNL     1     -62.919 -39.561  52.247  0.00  0.00    +0.000 OA
BRANCH  10  13
ATOM     11  O   UNL     1     -64.692 -38.260  52.718  0.00  0.00    +0.000 OA
ATOM     12  O   UNL     1     -62.699 -37.862  53.653  0.00  0.00    +0.000 OA
ATOM     13  N   UNL     1     -63.493 -38.461  52.930  0.00  0.00    +0.000 N 
ENDBRANCH  10  13
ENDBRANCH   4  10
TORSDOF 2
ENDMDL
