MODEL 1
REMARK VINA RESULT:      -8.1      0.000      0.000
REMARK  Name = 179268_Nortopsentin.pdbqt.pdb
REMARK  2 active torsions:
REMARK  status: ('A' for Active; 'I' for Inactive)
REMARK    1  A    between atoms: C_3  and  C_9
REMARK    2  A    between atoms: C_4  and  C_20
REMARK                            x       y       z     vdW  Elec       q    Type
REMARK                         _______ _______ _______ _____ _____    ______ ____
ROOT
ATOM      1  N   UNL     1     -44.986 -62.038  39.165  0.00  0.00    +0.000 N 
ATOM      2  N   UNL     1     -47.076 -62.749  39.312  0.00  0.00    +0.000 NA
ATOM      3  C   UNL     1     -45.469 -62.042  37.885  0.00  0.00    +0.000 A 
ATOM      4  C   UNL     1     -45.987 -62.472  39.998  0.00  0.00    +0.000 A 
ATOM      5  C   UNL     1     -46.767 -62.486  38.000  0.00  0.00    +0.000 A 
ATOM      6  H   UNL     1     -44.061 -61.768  39.460  0.00  0.00    +0.000 HD
ENDROOT
BRANCH   3   9
ATOM      7 BR   UNL     1     -40.844 -57.430  34.725  0.00  0.00    +0.000 Br
ATOM      8  N   UNL     1     -44.053 -61.704  34.550  0.00  0.00    +0.000 N 
ATOM      9  C   UNL     1     -44.745 -61.653  36.658  0.00  0.00    +0.000 A 
ATOM     10  C   UNL     1     -43.846 -60.566  36.462  0.00  0.00    +0.000 A 
ATOM     11  C   UNL     1     -43.428 -60.624  35.129  0.00  0.00    +0.000 A 
ATOM     12  C   UNL     1     -44.850 -62.330  35.466  0.00  0.00    +0.000 A 
ATOM     13  C   UNL     1     -43.341 -59.536  37.279  0.00  0.00    +0.000 A 
ATOM     14  C   UNL     1     -42.531 -59.705  34.571  0.00  0.00    +0.000 A 
ATOM     15  C   UNL     1     -42.446 -58.609  36.744  0.00  0.00    +0.000 A 
ATOM     16  C   UNL     1     -42.055 -58.700  35.414  0.00  0.00    +0.000 A 
ATOM     17  H   UNL     1     -43.941 -61.994  33.588  0.00  0.00    +0.000 HD
ENDBRANCH   3   9
BRANCH   4  20
ATOM     18 BR   UNL     1     -48.336 -60.316  46.505  0.00  0.00    +0.000 Br
ATOM     19  N   UNL     1     -45.127 -63.306  43.446  0.00  0.00    +0.000 N 
ATOM     20  C   UNL     1     -45.854 -62.607  41.470  0.00  0.00    +0.000 A 
ATOM     21  C   UNL     1     -46.590 -61.924  42.478  0.00  0.00    +0.000 A 
ATOM     22  C   UNL     1     -46.112 -62.382  43.709  0.00  0.00    +0.000 A 
ATOM     23  C   UNL     1     -44.963 -63.449  42.095  0.00  0.00    +0.000 A 
ATOM     24  C   UNL     1     -47.618 -60.960  42.470  0.00  0.00    +0.000 A 
ATOM     25  C   UNL     1     -46.608 -61.927  44.934  0.00  0.00    +0.000 A 
ATOM     26  C   UNL     1     -48.126 -60.491  43.683  0.00  0.00    +0.000 A 
ATOM     27  C   UNL     1     -47.624 -60.972  44.885  0.00  0.00    +0.000 A 
ATOM     28  H   UNL     1     -44.601 -63.805  44.152  0.00  0.00    +0.000 HD
ENDBRANCH   4  20
TORSDOF 2
ENDMDL
MODEL 2
REMARK VINA RESULT:      -7.6     21.013     22.562
REMARK  Name = 179268_Nortopsentin.pdbqt.pdb
REMARK  2 active torsions:
REMARK  status: ('A' for Active; 'I' for Inactive)
REMARK    1  A    between atoms: C_3  and  C_9
REMARK    2  A    between atoms: C_4  and  C_20
REMARK                            x       y       z     vdW  Elec       q    Type
REMARK                         _______ _______ _______ _____ _____    ______ ____
ROOT
ATOM      1  N   UNL     1     -36.680 -44.018  49.919  0.00  0.00    +0.000 N 
ATOM      2  N   UNL     1     -34.675 -43.631  49.068  0.00  0.00    +0.000 NA
ATOM      3  C   UNL     1     -36.898 -43.436  48.700  0.00  0.00    +0.000 A 
ATOM      4  C   UNL     1     -35.324 -44.118  50.105  0.00  0.00    +0.000 A 
ATOM      5  C   UNL     1     -35.641 -43.204  48.190  0.00  0.00    +0.000 A 
ATOM      6  H   UNL     1     -37.381 -44.324  50.575  0.00  0.00    +0.000 HD
ENDROOT
BRANCH   3   9
ATOM      7 BR   UNL     1     -43.386 -40.258  49.373  0.00  0.00    +0.000 Br
ATOM      8  N   UNL     1     -39.820 -43.079  46.560  0.00  0.00    +0.000 N 
ATOM      9  C   UNL     1     -38.203 -43.130  48.080  0.00  0.00    +0.000 A 
ATOM     10  C   UNL     1     -39.299 -42.403  48.625  0.00  0.00    +0.000 A 
ATOM     11  C   UNL     1     -40.300 -42.388  47.648  0.00  0.00    +0.000 A 
ATOM     12  C   UNL     1     -38.555 -43.530  46.812  0.00  0.00    +0.000 A 
ATOM     13  C   UNL     1     -39.549 -41.754  49.850  0.00  0.00    +0.000 A 
ATOM     14  C   UNL     1     -41.536 -41.758  47.833  0.00  0.00    +0.000 A 
ATOM     15  C   UNL     1     -40.774 -41.119  50.056  0.00  0.00    +0.000 A 
ATOM     16  C   UNL     1     -41.742 -41.126  49.059  0.00  0.00    +0.000 A 
ATOM     17  H   UNL     1     -40.327 -43.232  45.698  0.00  0.00    +0.000 HD
ENDBRANCH   3   9
BRANCH   4  20
ATOM     18 BR   UNL     1     -32.039 -49.875  53.031  0.00  0.00    +0.000 Br
ATOM     19  N   UNL     1     -33.905 -44.876  53.382  0.00  0.00    +0.000 N 
ATOM     20  C   UNL     1     -34.683 -44.698  51.311  0.00  0.00    +0.000 A 
ATOM     21  C   UNL     1     -34.117 -45.995  51.460  0.00  0.00    +0.000 A 
ATOM     22  C   UNL     1     -33.637 -46.079  52.769  0.00  0.00    +0.000 A 
ATOM     23  C   UNL     1     -34.538 -44.034  52.509  0.00  0.00    +0.000 A 
ATOM     24  C   UNL     1     -33.963 -47.109  50.612  0.00  0.00    +0.000 A 
ATOM     25  C   UNL     1     -33.010 -47.221  53.277  0.00  0.00    +0.000 A 
ATOM     26  C   UNL     1     -33.340 -48.259  51.099  0.00  0.00    +0.000 A 
ATOM     27  C   UNL     1     -32.876 -48.304  52.407  0.00  0.00    +0.000 A 
ATOM     28  H   UNL     1     -33.668 -44.651  54.339  0.00  0.00    +0.000 HD
ENDBRANCH   4  20
TORSDOF 2
ENDMDL
MODEL 3
REMARK VINA RESULT:      -7.5      2.218      2.786
REMARK  Name = 179268_Nortopsentin.pdbqt.pdb
REMARK  2 active torsions:
REMARK  status: ('A' for Active; 'I' for Inactive)
REMARK    1  A    between atoms: C_3  and  C_9
REMARK    2  A    between atoms: C_4  and  C_20
REMARK                            x       y       z     vdW  Elec       q    Type
REMARK                         _______ _______ _______ _____ _____    ______ ____
ROOT
ATOM      1  N   UNL     1     -45.267 -62.319  38.860  0.00  0.00    +0.000 N 
ATOM      2  N   UNL     1     -47.409 -62.709  39.250  0.00  0.00    +0.000 NA
ATOM      3  C   UNL     1     -45.872 -62.333  37.634  0.00  0.00    +0.000 A 
ATOM      4  C   UNL     1     -46.228 -62.550  39.811  0.00  0.00    +0.000 A 
ATOM      5  C   UNL     1     -47.200 -62.577  37.899  0.00  0.00    +0.000 A 
ATOM      6  H   UNL     1     -44.288 -62.167  39.048  0.00  0.00    +0.000 HD
ENDROOT
BRANCH   3   9
ATOM      7 BR   UNL     1     -46.718 -60.810  30.590  0.00  0.00    +0.000 Br
ATOM      8  N   UNL     1     -43.626 -61.982  34.792  0.00  0.00    +0.000 N 
ATOM      9  C   UNL     1     -45.229 -62.131  36.320  0.00  0.00    +0.000 A 
ATOM     10  C   UNL     1     -45.836 -61.814  35.071  0.00  0.00    +0.000 A 
ATOM     11  C   UNL     1     -44.805 -61.727  34.131  0.00  0.00    +0.000 A 
ATOM     12  C   UNL     1     -43.873 -62.226  36.114  0.00  0.00    +0.000 A 
ATOM     13  C   UNL     1     -47.158 -61.591  34.638  0.00  0.00    +0.000 A 
ATOM     14  C   UNL     1     -45.027 -61.429  32.781  0.00  0.00    +0.000 A 
ATOM     15  C   UNL     1     -47.402 -61.293  33.298  0.00  0.00    +0.000 A 
ATOM     16  C   UNL     1     -46.350 -61.215  32.394  0.00  0.00    +0.000 A 
ATOM     17  H   UNL     1     -42.709 -61.988  34.365  0.00  0.00    +0.000 HD
ENDBRANCH   3   9
BRANCH   4  20
ATOM     18 BR   UNL     1     -48.220 -60.304  46.407  0.00  0.00    +0.000 Br
ATOM     19  N   UNL     1     -45.030 -63.162  43.205  0.00  0.00    +0.000 N 
ATOM     20  C   UNL     1     -45.968 -62.610  41.271  0.00  0.00    +0.000 A 
ATOM     21  C   UNL     1     -46.675 -61.943  42.311  0.00  0.00    +0.000 A 
ATOM     22  C   UNL     1     -46.064 -62.308  43.514  0.00  0.00    +0.000 A 
ATOM     23  C   UNL     1     -44.963 -63.350  41.851  0.00  0.00    +0.000 A 
ATOM     24  C   UNL     1     -47.775 -61.065  42.352  0.00  0.00    +0.000 A 
ATOM     25  C   UNL     1     -46.495 -61.841  44.758  0.00  0.00    +0.000 A 
ATOM     26  C   UNL     1     -48.222 -60.585  43.585  0.00  0.00    +0.000 A 
ATOM     27  C   UNL     1     -47.588 -60.972  44.759  0.00  0.00    +0.000 A 
ATOM     28  H   UNL     1     -44.410 -63.586  43.882  0.00  0.00    +0.000 HD
ENDBRANCH   4  20
TORSDOF 2
ENDMDL
MODEL 4
REMARK VINA RESULT:      -7.5     21.066     21.863
REMARK  Name = 179268_Nortopsentin.pdbqt.pdb
REMARK  2 active torsions:
REMARK  status: ('A' for Active; 'I' for Inactive)
REMARK    1  A    between atoms: C_3  and  C_9
REMARK    2  A    between atoms: C_4  and  C_20
REMARK                            x       y       z     vdW  Elec       q    Type
REMARK                         _______ _______ _______ _____ _____    ______ ____
ROOT
ATOM      1  N   UNL     1     -35.049 -45.768  50.392  0.00  0.00    +0.000 N 
ATOM      2  N   UNL     1     -35.951 -46.249  52.354  0.00  0.00    +0.000 NA
ATOM      3  C   UNL     1     -36.267 -45.146  50.404  0.00  0.00    +0.000 A 
ATOM      4  C   UNL     1     -34.895 -46.424  51.588  0.00  0.00    +0.000 A 
ATOM      5  C   UNL     1     -36.810 -45.458  51.630  0.00  0.00    +0.000 A 
ATOM      6  H   UNL     1     -34.373 -45.755  49.644  0.00  0.00    +0.000 HD
ENDROOT
BRANCH   3   9
ATOM      7 BR   UNL     1     -35.129 -40.727  44.763  0.00  0.00    +0.000 Br
ATOM      8  N   UNL     1     -38.408 -43.370  48.058  0.00  0.00    +0.000 N 
ATOM      9  C   UNL     1     -36.859 -44.324  49.330  0.00  0.00    +0.000 A 
ATOM     10  C   UNL     1     -36.198 -43.539  48.342  0.00  0.00    +0.000 A 
ATOM     11  C   UNL     1     -37.196 -42.952  47.558  0.00  0.00    +0.000 A 
ATOM     12  C   UNL     1     -38.214 -44.198  49.128  0.00  0.00    +0.000 A 
ATOM     13  C   UNL     1     -34.852 -43.265  48.030  0.00  0.00    +0.000 A 
ATOM     14  C   UNL     1     -36.918 -42.105  46.479  0.00  0.00    +0.000 A 
ATOM     15  C   UNL     1     -34.552 -42.423  46.959  0.00  0.00    +0.000 A 
ATOM     16  C   UNL     1     -35.573 -41.859  46.204  0.00  0.00    +0.000 A 
ATOM     17  H   UNL     1     -39.312 -43.104  47.690  0.00  0.00    +0.000 HD
ENDBRANCH   3   9
BRANCH   4  20
ATOM     18 BR   UNL     1     -32.380 -52.573  54.481  0.00  0.00    +0.000 Br
ATOM     19  N   UNL     1     -31.571 -47.792  52.226  0.00  0.00    +0.000 N 
ATOM     20  C   UNL     1     -33.698 -47.219  51.961  0.00  0.00    +0.000 A 
ATOM     21  C   UNL     1     -33.660 -48.505  52.567  0.00  0.00    +0.000 A 
ATOM     22  C   UNL     1     -32.312 -48.840  52.722  0.00  0.00    +0.000 A 
ATOM     23  C   UNL     1     -32.400 -46.806  51.764  0.00  0.00    +0.000 A 
ATOM     24  C   UNL     1     -34.637 -49.422  53.000  0.00  0.00    +0.000 A 
ATOM     25  C   UNL     1     -31.888 -50.045  53.289  0.00  0.00    +0.000 A 
ATOM     26  C   UNL     1     -34.235 -50.632  53.571  0.00  0.00    +0.000 A 
ATOM     27  C   UNL     1     -32.886 -50.928  53.707  0.00  0.00    +0.000 A 
ATOM     28  H   UNL     1     -30.560 -47.758  52.208  0.00  0.00    +0.000 HD
ENDBRANCH   4  20
TORSDOF 2
ENDMDL
MODEL 5
REMARK VINA RESULT:      -7.4     20.698     21.864
REMARK  Name = 179268_Nortopsentin.pdbqt.pdb
REMARK  2 active torsions:
REMARK  status: ('A' for Active; 'I' for Inactive)
REMARK    1  A    between atoms: C_3  and  C_9
REMARK    2  A    between atoms: C_4  and  C_20
REMARK                            x       y       z     vdW  Elec       q    Type
REMARK                         _______ _______ _______ _____ _____    ______ ____
ROOT
ATOM      1  N   UNL     1     -34.853 -45.757  50.546  0.00  0.00    +0.000 N 
ATOM      2  N   UNL     1     -35.601 -46.750  52.375  0.00  0.00    +0.000 NA
ATOM      3  C   UNL     1     -35.878 -44.975  51.000  0.00  0.00    +0.000 A 
ATOM      4  C   UNL     1     -34.716 -46.819  51.403  0.00  0.00    +0.000 A 
ATOM      5  C   UNL     1     -36.329 -45.609  52.136  0.00  0.00    +0.000 A 
ATOM      6  H   UNL     1     -34.288 -45.594  49.726  0.00  0.00    +0.000 HD
ENDROOT
BRANCH   3   9
ATOM      7 BR   UNL     1     -40.547 -41.869  46.395  0.00  0.00    +0.000 Br
ATOM      8  N   UNL     1     -36.579 -41.557  49.965  0.00  0.00    +0.000 N 
ATOM      9  C   UNL     1     -36.383 -43.726  50.396  0.00  0.00    +0.000 A 
ATOM     10  C   UNL     1     -37.420 -43.558  49.434  0.00  0.00    +0.000 A 
ATOM     11  C   UNL     1     -37.520 -42.185  49.183  0.00  0.00    +0.000 A 
ATOM     12  C   UNL     1     -35.888 -42.479  50.701  0.00  0.00    +0.000 A 
ATOM     13  C   UNL     1     -38.287 -44.429  48.747  0.00  0.00    +0.000 A 
ATOM     14  C   UNL     1     -38.441 -41.640  48.281  0.00  0.00    +0.000 A 
ATOM     15  C   UNL     1     -39.214 -43.907  47.844  0.00  0.00    +0.000 A 
ATOM     16  C   UNL     1     -39.282 -42.537  47.623  0.00  0.00    +0.000 A 
ATOM     17  H   UNL     1     -36.419 -40.559  49.994  0.00  0.00    +0.000 HD
ENDBRANCH   3   9
BRANCH   4  20
ATOM     18 BR   UNL     1     -32.184 -53.133  53.900  0.00  0.00    +0.000 Br
ATOM     19  N   UNL     1     -31.989 -49.052  50.450  0.00  0.00    +0.000 N 
ATOM     20  C   UNL     1     -33.706 -47.897  51.250  0.00  0.00    +0.000 A 
ATOM     21  C   UNL     1     -33.559 -49.071  52.039  0.00  0.00    +0.000 A 
ATOM     22  C   UNL     1     -32.473 -49.777  51.515  0.00  0.00    +0.000 A 
ATOM     23  C   UNL     1     -32.728 -47.912  50.282  0.00  0.00    +0.000 A 
ATOM     24  C   UNL     1     -34.240 -49.609  53.149  0.00  0.00    +0.000 A 
ATOM     25  C   UNL     1     -32.031 -50.994  52.041  0.00  0.00    +0.000 A 
ATOM     26  C   UNL     1     -33.814 -50.823  53.692  0.00  0.00    +0.000 A 
ATOM     27  C   UNL     1     -32.731 -51.494  53.141  0.00  0.00    +0.000 A 
ATOM     28  H   UNL     1     -31.201 -49.323  49.878  0.00  0.00    +0.000 HD
ENDBRANCH   4  20
TORSDOF 2
ENDMDL
MODEL 6
REMARK VINA RESULT:      -7.3     20.887     22.495
REMARK  Name = 179268_Nortopsentin.pdbqt.pdb
REMARK  2 active torsions:
REMARK  status: ('A' for Active; 'I' for Inactive)
REMARK    1  A    between atoms: C_3  and  C_9
REMARK    2  A    between atoms: C_4  and  C_20
REMARK                            x       y       z     vdW  Elec       q    Type
REMARK                         _______ _______ _______ _____ _____    ______ ____
ROOT
ATOM      1  N   UNL     1     -35.333 -45.600  51.847  0.00  0.00    +0.000 N 
ATOM      2  N   UNL     1     -33.465 -45.323  52.999  0.00  0.00    +0.000 NA
ATOM      3  C   UNL     1     -35.088 -44.255  51.839  0.00  0.00    +0.000 A 
ATOM      4  C   UNL     1     -34.331 -46.211  52.558  0.00  0.00    +0.000 A 
ATOM      5  C   UNL     1     -33.924 -44.105  52.559  0.00  0.00    +0.000 A 
ATOM      6  H   UNL     1     -36.110 -46.074  51.412  0.00  0.00    +0.000 HD
ENDROOT
BRANCH   3   9
ATOM      7 BR   UNL     1     -40.386 -42.644  47.151  0.00  0.00    +0.000 Br
ATOM      8  N   UNL     1     -36.659 -41.179  50.694  0.00  0.00    +0.000 N 
ATOM      9  C   UNL     1     -35.901 -43.203  51.196  0.00  0.00    +0.000 A 
ATOM     10  C   UNL     1     -36.940 -43.347  50.233  0.00  0.00    +0.000 A 
ATOM     11  C   UNL     1     -37.397 -42.058  49.937  0.00  0.00    +0.000 A 
ATOM     12  C   UNL     1     -35.754 -41.861  51.457  0.00  0.00    +0.000 A 
ATOM     13  C   UNL     1     -37.543 -44.438  49.578  0.00  0.00    +0.000 A 
ATOM     14  C   UNL     1     -38.425 -41.806  49.021  0.00  0.00    +0.000 A 
ATOM     15  C   UNL     1     -38.570 -44.210  48.662  0.00  0.00    +0.000 A 
ATOM     16  C   UNL     1     -38.995 -42.914  48.395  0.00  0.00    +0.000 A 
ATOM     17  H   UNL     1     -36.768 -40.173  50.689  0.00  0.00    +0.000 HD
ENDBRANCH   3   9
BRANCH   4  20
ATOM     18 BR   UNL     1     -31.267 -52.474  50.585  0.00  0.00    +0.000 Br
ATOM     19  N   UNL     1     -34.616 -49.675  53.675  0.00  0.00    +0.000 N 
ATOM     20  C   UNL     1     -34.240 -47.674  52.793  0.00  0.00    +0.000 A 
ATOM     21  C   UNL     1     -33.428 -48.619  52.105  0.00  0.00    +0.000 A 
ATOM     22  C   UNL     1     -33.685 -49.866  52.679  0.00  0.00    +0.000 A 
ATOM     23  C   UNL     1     -34.958 -48.352  53.751  0.00  0.00    +0.000 A 
ATOM     24  C   UNL     1     -32.498 -48.540  51.050  0.00  0.00    +0.000 A 
ATOM     25  C   UNL     1     -33.059 -51.042  52.254  0.00  0.00    +0.000 A 
ATOM     26  C   UNL     1     -31.863 -49.702  50.609  0.00  0.00    +0.000 A 
ATOM     27  C   UNL     1     -32.145 -50.924  51.206  0.00  0.00    +0.000 A 
ATOM     28  H   UNL     1     -34.990 -50.408  54.262  0.00  0.00    +0.000 HD
ENDBRANCH   4  20
TORSDOF 2
ENDMDL
MODEL 7
REMARK VINA RESULT:      -7.3     25.446     27.973
REMARK  Name = 179268_Nortopsentin.pdbqt.pdb
REMARK  2 active torsions:
REMARK  status: ('A' for Active; 'I' for Inactive)
REMARK    1  A    between atoms: C_3  and  C_9
REMARK    2  A    between atoms: C_4  and  C_20
REMARK                            x       y       z     vdW  Elec       q    Type
REMARK                         _______ _______ _______ _____ _____    ______ ____
ROOT
ATOM      1  N   UNL     1     -66.228 -43.713  39.450  0.00  0.00    +0.000 N 
ATOM      2  N   UNL     1     -64.703 -44.974  38.460  0.00  0.00    +0.000 NA
ATOM      3  C   UNL     1     -66.682 -44.999  39.556  0.00  0.00    +0.000 A 
ATOM      4  C   UNL     1     -65.030 -43.739  38.781  0.00  0.00    +0.000 A 
ATOM      5  C   UNL     1     -65.721 -45.764  38.935  0.00  0.00    +0.000 A 
ATOM      6  H   UNL     1     -66.682 -42.883  39.796  0.00  0.00    +0.000 HD
ENDROOT
BRANCH   3   9
ATOM      7 BR   UNL     1     -70.017 -47.025  45.673  0.00  0.00    +0.000 Br
ATOM      8  N   UNL     1     -70.055 -46.063  40.414  0.00  0.00    +0.000 N 
ATOM      9  C   UNL     1     -67.931 -45.453  40.199  0.00  0.00    +0.000 A 
ATOM     10  C   UNL     1     -68.164 -45.769  41.568  0.00  0.00    +0.000 A 
ATOM     11  C   UNL     1     -69.506 -46.148  41.672  0.00  0.00    +0.000 A 
ATOM     12  C   UNL     1     -69.111 -45.644  39.518  0.00  0.00    +0.000 A 
ATOM     13  C   UNL     1     -67.374 -45.772  42.734  0.00  0.00    +0.000 A 
ATOM     14  C   UNL     1     -70.098 -46.531  42.881  0.00  0.00    +0.000 A 
ATOM     15  C   UNL     1     -67.944 -46.150  43.950  0.00  0.00    +0.000 A 
ATOM     16  C   UNL     1     -69.282 -46.521  44.012  0.00  0.00    +0.000 A 
ATOM     17  H   UNL     1     -71.015 -46.278  40.182  0.00  0.00    +0.000 HD
ENDBRANCH   3   9
BRANCH   4  20
ATOM     18 BR   UNL     1     -59.099 -39.875  40.327  0.00  0.00    +0.000 Br
ATOM     19  N   UNL     1     -63.565 -40.654  37.492  0.00  0.00    +0.000 N 
ATOM     20  C   UNL     1     -64.217 -42.538  38.466  0.00  0.00    +0.000 A 
ATOM     21  C   UNL     1     -63.002 -42.122  39.078  0.00  0.00    +0.000 A 
ATOM     22  C   UNL     1     -62.616 -40.937  38.448  0.00  0.00    +0.000 A 
ATOM     23  C   UNL     1     -64.539 -41.616  37.496  0.00  0.00    +0.000 A 
ATOM     24  C   UNL     1     -62.188 -42.635  40.107  0.00  0.00    +0.000 A 
ATOM     25  C   UNL     1     -61.457 -40.235  38.791  0.00  0.00    +0.000 A 
ATOM     26  C   UNL     1     -61.026 -41.949  40.467  0.00  0.00    +0.000 A 
ATOM     27  C   UNL     1     -60.677 -40.774  39.816  0.00  0.00    +0.000 A 
ATOM     28  H   UNL     1     -63.544 -39.850  36.879  0.00  0.00    +0.000 HD
ENDBRANCH   4  20
TORSDOF 2
ENDMDL
MODEL 8
REMARK VINA RESULT:      -7.2     21.089     22.581
REMARK  Name = 179268_Nortopsentin.pdbqt.pdb
REMARK  2 active torsions:
REMARK  status: ('A' for Active; 'I' for Inactive)
REMARK    1  A    between atoms: C_3  and  C_9
REMARK    2  A    between atoms: C_4  and  C_20
REMARK                            x       y       z     vdW  Elec       q    Type
REMARK                         _______ _______ _______ _____ _____    ______ ____
ROOT
ATOM      1  N   UNL     1     -35.273 -45.029  50.541  0.00  0.00    +0.000 N 
ATOM      2  N   UNL     1     -34.954 -43.740  52.310  0.00  0.00    +0.000 NA
ATOM      3  C   UNL     1     -36.183 -44.014  50.430  0.00  0.00    +0.000 A 
ATOM      4  C   UNL     1     -34.550 -44.829  51.690  0.00  0.00    +0.000 A 
ATOM      5  C   UNL     1     -35.968 -43.226  51.538  0.00  0.00    +0.000 A 
ATOM      6  H   UNL     1     -35.144 -45.797  49.899  0.00  0.00    +0.000 HD
ENDROOT
BRANCH   3   9
ATOM      7 BR   UNL     1     -42.279 -40.731  48.262  0.00  0.00    +0.000 Br
ATOM      8  N   UNL     1     -38.169 -44.035  47.381  0.00  0.00    +0.000 N 
ATOM      9  C   UNL     1     -37.173 -43.818  49.353  0.00  0.00    +0.000 A 
ATOM     10  C   UNL     1     -38.338 -42.998  49.353  0.00  0.00    +0.000 A 
ATOM     11  C   UNL     1     -38.942 -43.155  48.102  0.00  0.00    +0.000 A 
ATOM     12  C   UNL     1     -37.099 -44.440  48.129  0.00  0.00    +0.000 A 
ATOM     13  C   UNL     1     -38.945 -42.137  50.287  0.00  0.00    +0.000 A 
ATOM     14  C   UNL     1     -40.122 -42.496  47.737  0.00  0.00    +0.000 A 
ATOM     15  C   UNL     1     -40.121 -41.468  49.944  0.00  0.00    +0.000 A 
ATOM     16  C   UNL     1     -40.690 -41.651  48.690  0.00  0.00    +0.000 A 
ATOM     17  H   UNL     1     -38.361 -44.339  46.436  0.00  0.00    +0.000 HD
ENDBRANCH   3   9
BRANCH   4  20
ATOM     18 BR   UNL     1     -32.684 -51.502  53.811  0.00  0.00    +0.000 Br
ATOM     19  N   UNL     1     -31.444 -46.401  52.790  0.00  0.00    +0.000 N 
ATOM     20  C   UNL     1     -33.460 -45.719  52.163  0.00  0.00    +0.000 A 
ATOM     21  C   UNL     1     -33.545 -47.100  52.496  0.00  0.00    +0.000 A 
ATOM     22  C   UNL     1     -32.265 -47.501  52.886  0.00  0.00    +0.000 A 
ATOM     23  C   UNL     1     -32.158 -45.318  52.353  0.00  0.00    +0.000 A 
ATOM     24  C   UNL     1     -34.583 -48.052  52.504  0.00  0.00    +0.000 A 
ATOM     25  C   UNL     1     -31.966 -48.807  53.286  0.00  0.00    +0.000 A 
ATOM     26  C   UNL     1     -34.307 -49.362  52.901  0.00  0.00    +0.000 A 
ATOM     27  C   UNL     1     -33.021 -49.722  53.282  0.00  0.00    +0.000 A 
ATOM     28  H   UNL     1     -30.457 -46.397  53.010  0.00  0.00    +0.000 HD
ENDBRANCH   4  20
TORSDOF 2
ENDMDL
MODEL 9
REMARK VINA RESULT:      -7.0     25.551     28.083
REMARK  Name = 179268_Nortopsentin.pdbqt.pdb
REMARK  2 active torsions:
REMARK  status: ('A' for Active; 'I' for Inactive)
REMARK    1  A    between atoms: C_3  and  C_9
REMARK    2  A    between atoms: C_4  and  C_20
REMARK                            x       y       z     vdW  Elec       q    Type
REMARK                         _______ _______ _______ _____ _____    ______ ____
ROOT
ATOM      1  N   UNL     1     -65.547 -43.978  40.123  0.00  0.00    +0.000 N 
ATOM      2  N   UNL     1     -64.366 -45.046  38.587  0.00  0.00    +0.000 NA
ATOM      3  C   UNL     1     -66.292 -45.071  39.775  0.00  0.00    +0.000 A 
ATOM      4  C   UNL     1     -64.392 -43.998  39.383  0.00  0.00    +0.000 A 
ATOM      5  C   UNL     1     -65.541 -45.720  38.822  0.00  0.00    +0.000 A 
ATOM      6  H   UNL     1     -65.792 -43.273  40.801  0.00  0.00    +0.000 HD
ENDROOT
BRANCH   3   9
ATOM      7 BR   UNL     1     -70.214 -46.913  45.595  0.00  0.00    +0.000 Br
ATOM      8  N   UNL     1     -69.774 -45.958  40.353  0.00  0.00    +0.000 N 
ATOM      9  C   UNL     1     -67.611 -45.459  40.313  0.00  0.00    +0.000 A 
ATOM     10  C   UNL     1     -67.971 -45.760  41.658  0.00  0.00    +0.000 A 
ATOM     11  C   UNL     1     -69.335 -46.070  41.652  0.00  0.00    +0.000 A 
ATOM     12  C   UNL     1     -68.740 -45.589  39.538  0.00  0.00    +0.000 A 
ATOM     13  C   UNL     1     -67.279 -45.803  42.884  0.00  0.00    +0.000 A 
ATOM     14  C   UNL     1     -70.042 -46.420  42.807  0.00  0.00    +0.000 A 
ATOM     15  C   UNL     1     -67.965 -46.149  44.049  0.00  0.00    +0.000 A 
ATOM     16  C   UNL     1     -69.321 -46.450  44.001  0.00  0.00    +0.000 A 
ATOM     17  H   UNL     1     -70.722 -46.123  40.043  0.00  0.00    +0.000 HD
ENDBRANCH   3   9
BRANCH   4  20
ATOM     18 BR   UNL     1     -61.908 -37.613  37.022  0.00  0.00    +0.000 Br
ATOM     19  N   UNL     1     -61.457 -41.953  40.114  0.00  0.00    +0.000 N 
ATOM     20  C   UNL     1     -63.319 -42.976  39.473  0.00  0.00    +0.000 A 
ATOM     21  C   UNL     1     -63.220 -41.750  38.757  0.00  0.00    +0.000 A 
ATOM     22  C   UNL     1     -62.042 -41.129  39.179  0.00  0.00    +0.000 A 
ATOM     23  C   UNL     1     -62.222 -43.073  40.299  0.00  0.00    +0.000 A 
ATOM     24  C   UNL     1     -64.015 -41.103  37.791  0.00  0.00    +0.000 A 
ATOM     25  C   UNL     1     -61.615 -39.893  38.685  0.00  0.00    +0.000 A 
ATOM     26  C   UNL     1     -63.607 -39.868  37.284  0.00  0.00    +0.000 A 
ATOM     27  C   UNL     1     -62.428 -39.284  37.729  0.00  0.00    +0.000 A 
ATOM     28  H   UNL     1     -60.588 -41.757  40.592  0.00  0.00    +0.000 HD
ENDBRANCH   4  20
TORSDOF 2
ENDMDL
