MODEL 1
REMARK VINA RESULT:      -4.4      0.000      0.000
REMARK  Name = 21574552_Mertensene.pdbqt.pdb
REMARK  1 active torsions:
REMARK  status: ('A' for Active; 'I' for Inactive)
REMARK    1  A    between atoms: C_4  and  C_13
REMARK                            x       y       z     vdW  Elec       q    Type
REMARK                         _______ _______ _______ _____ _____    ______ ____
ROOT
ATOM      1 BR   UNL     1     -42.317 -77.160  66.593  0.00  0.00    +0.000 Br
ATOM      2 CL   UNL     1     -41.704 -75.548  60.902  0.00  0.00    +0.000 Cl
ATOM      3 CL   UNL     1     -38.891 -76.789  62.368  0.00  0.00    +0.000 Cl
ATOM      4  C   UNL     1     -42.800 -75.028  64.554  0.00  0.00    +0.000 C 
ATOM      5  C   UNL     1     -42.151 -74.637  63.298  0.00  0.00    +0.000 C 
ATOM      6  C   UNL     1     -41.020 -74.895  62.411  0.00  0.00    +0.000 C 
ATOM      7  C   UNL     1     -41.860 -76.109  65.146  0.00  0.00    +0.000 C 
ATOM      8  C   UNL     1     -40.171 -75.950  63.132  0.00  0.00    +0.000 C 
ATOM      9  C   UNL     1     -40.702 -76.415  64.371  0.00  0.00    +0.000 C 
ATOM     10  C   UNL     1     -42.862 -73.822  65.519  0.00  0.00    +0.000 C 
ATOM     11  C   UNL     1     -40.217 -73.632  62.084  0.00  0.00    +0.000 C 
ENDROOT
BRANCH   4  13
ATOM     12 CL   UNL     1     -46.794 -76.764  63.779  0.00  0.00    +0.000 Cl
ATOM     13  C   UNL     1     -44.130 -75.600  64.292  0.00  0.00    +0.000 C 
ATOM     14  C   UNL     1     -45.214 -76.069  64.080  0.00  0.00    +0.000 C 
ENDBRANCH   4  13
TORSDOF 1
ENDMDL
MODEL 2
REMARK VINA RESULT:      -4.3     28.273     29.999
REMARK  Name = 21574552_Mertensene.pdbqt.pdb
REMARK  1 active torsions:
REMARK  status: ('A' for Active; 'I' for Inactive)
REMARK    1  A    between atoms: C_4  and  C_13
REMARK                            x       y       z     vdW  Elec       q    Type
REMARK                         _______ _______ _______ _____ _____    ______ ____
ROOT
ATOM      1 BR   UNL     1     -43.677 -62.495  38.691  0.00  0.00    +0.000 Br
ATOM      2 CL   UNL     1     -48.346 -62.533  35.008  0.00  0.00    +0.000 Cl
ATOM      3 CL   UNL     1     -46.249 -59.871  34.663  0.00  0.00    +0.000 Cl
ATOM      4  C   UNL     1     -46.638 -62.823  38.444  0.00  0.00    +0.000 C 
ATOM      5  C   UNL     1     -47.655 -62.331  37.508  0.00  0.00    +0.000 C 
ATOM      6  C   UNL     1     -47.896 -61.464  36.358  0.00  0.00    +0.000 C 
ATOM      7  C   UNL     1     -45.348 -62.069  38.032  0.00  0.00    +0.000 C 
ATOM      8  C   UNL     1     -46.555 -60.768  36.087  0.00  0.00    +0.000 C 
ATOM      9  C   UNL     1     -45.481 -61.167  36.935  0.00  0.00    +0.000 C 
ATOM     10  C   UNL     1     -47.016 -62.434  39.891  0.00  0.00    +0.000 C 
ATOM     11  C   UNL     1     -49.030 -60.460  36.594  0.00  0.00    +0.000 C 
ENDROOT
BRANCH   4  13
ATOM     12 CL   UNL     1     -46.096 -67.187  37.980  0.00  0.00    +0.000 Cl
ATOM     13  C   UNL     1     -46.451 -64.273  38.288  0.00  0.00    +0.000 C 
ATOM     14  C   UNL     1     -46.301 -65.458  38.161  0.00  0.00    +0.000 C 
ENDBRANCH   4  13
TORSDOF 1
ENDMDL
MODEL 3
REMARK VINA RESULT:      -4.3     29.851     31.662
REMARK  Name = 21574552_Mertensene.pdbqt.pdb
REMARK  1 active torsions:
REMARK  status: ('A' for Active; 'I' for Inactive)
REMARK    1  A    between atoms: C_4  and  C_13
REMARK                            x       y       z     vdW  Elec       q    Type
REMARK                         _______ _______ _______ _____ _____    ______ ____
ROOT
ATOM      1 BR   UNL     1     -47.297 -61.242  32.936  0.00  0.00    +0.000 Br
ATOM      2 CL   UNL     1     -44.689 -62.488  38.133  0.00  0.00    +0.000 Cl
ATOM      3 CL   UNL     1     -45.525 -65.197  36.244  0.00  0.00    +0.000 Cl
ATOM      4  C   UNL     1     -47.261 -60.723  35.879  0.00  0.00    +0.000 C 
ATOM      5  C   UNL     1     -46.837 -61.490  37.056  0.00  0.00    +0.000 C 
ATOM      6  C   UNL     1     -46.335 -62.780  37.520  0.00  0.00    +0.000 C 
ATOM      7  C   UNL     1     -47.150 -61.734  34.710  0.00  0.00    +0.000 C 
ATOM      8  C   UNL     1     -46.307 -63.676  36.274  0.00  0.00    +0.000 C 
ATOM      9  C   UNL     1     -46.698 -63.040  35.059  0.00  0.00    +0.000 C 
ATOM     10  C   UNL     1     -48.734 -60.283  36.035  0.00  0.00    +0.000 C 
ATOM     11  C   UNL     1     -47.182 -63.382  38.645  0.00  0.00    +0.000 C 
ENDROOT
BRANCH   4  13
ATOM     12 CL   UNL     1     -44.555 -57.296  35.178  0.00  0.00    +0.000 Cl
ATOM     13  C   UNL     1     -46.359 -59.583  35.653  0.00  0.00    +0.000 C 
ATOM     14  C   UNL     1     -45.625 -58.653  35.465  0.00  0.00    +0.000 C 
ENDBRANCH   4  13
TORSDOF 1
ENDMDL
MODEL 4
REMARK VINA RESULT:      -4.2     12.265     13.349
REMARK  Name = 21574552_Mertensene.pdbqt.pdb
REMARK  1 active torsions:
REMARK  status: ('A' for Active; 'I' for Inactive)
REMARK    1  A    between atoms: C_4  and  C_13
REMARK                            x       y       z     vdW  Elec       q    Type
REMARK                         _______ _______ _______ _____ _____    ______ ____
ROOT
ATOM      1 BR   UNL     1     -33.941 -65.629  68.379  0.00  0.00    +0.000 Br
ATOM      2 CL   UNL     1     -35.966 -65.535  62.789  0.00  0.00    +0.000 Cl
ATOM      3 CL   UNL     1     -34.037 -68.226  63.587  0.00  0.00    +0.000 Cl
ATOM      4  C   UNL     1     -34.275 -64.008  65.890  0.00  0.00    +0.000 C 
ATOM      5  C   UNL     1     -34.384 -64.323  64.462  0.00  0.00    +0.000 C 
ATOM      6  C   UNL     1     -34.327 -65.394  63.470  0.00  0.00    +0.000 C 
ATOM      7  C   UNL     1     -33.927 -65.365  66.552  0.00  0.00    +0.000 C 
ATOM      8  C   UNL     1     -33.948 -66.655  64.257  0.00  0.00    +0.000 C 
ATOM      9  C   UNL     1     -33.815 -66.476  65.665  0.00  0.00    +0.000 C 
ATOM     10  C   UNL     1     -33.118 -63.012  66.128  0.00  0.00    +0.000 C 
ATOM     11  C   UNL     1     -33.342 -65.104  62.333  0.00  0.00    +0.000 C 
ENDROOT
BRANCH   4  13
ATOM     12 CL   UNL     1     -38.126 -62.504  67.462  0.00  0.00    +0.000 Cl
ATOM     13  C   UNL     1     -35.558 -63.504  66.407  0.00  0.00    +0.000 C 
ATOM     14  C   UNL     1     -36.603 -63.095  66.831  0.00  0.00    +0.000 C 
ENDBRANCH   4  13
TORSDOF 1
ENDMDL
MODEL 5
REMARK VINA RESULT:      -4.1     24.831     26.042
REMARK  Name = 21574552_Mertensene.pdbqt.pdb
REMARK  1 active torsions:
REMARK  status: ('A' for Active; 'I' for Inactive)
REMARK    1  A    between atoms: C_4  and  C_13
REMARK                            x       y       z     vdW  Elec       q    Type
REMARK                         _______ _______ _______ _____ _____    ______ ____
ROOT
ATOM      1 BR   UNL     1     -43.052 -62.492  39.291  0.00  0.00    +0.000 Br
ATOM      2 CL   UNL     1     -44.112 -67.968  41.351  0.00  0.00    +0.000 Cl
ATOM      3 CL   UNL     1     -41.823 -67.784  38.835  0.00  0.00    +0.000 Cl
ATOM      4  C   UNL     1     -45.137 -64.503  40.027  0.00  0.00    +0.000 C 
ATOM      5  C   UNL     1     -45.183 -65.969  40.076  0.00  0.00    +0.000 C 
ATOM      6  C   UNL     1     -44.446 -67.194  39.782  0.00  0.00    +0.000 C 
ATOM      7  C   UNL     1     -43.773 -64.190  39.362  0.00  0.00    +0.000 C 
ATOM      8  C   UNL     1     -43.146 -66.734  39.108  0.00  0.00    +0.000 C 
ATOM      9  C   UNL     1     -42.983 -65.322  39.004  0.00  0.00    +0.000 C 
ATOM     10  C   UNL     1     -46.276 -63.966  39.132  0.00  0.00    +0.000 C 
ATOM     11  C   UNL     1     -45.236 -68.172  38.907  0.00  0.00    +0.000 C 
ENDROOT
BRANCH   4  13
ATOM     12 CL   UNL     1     -45.269 -62.828  44.118  0.00  0.00    +0.000 Cl
ATOM     13  C   UNL     1     -45.182 -63.939  41.385  0.00  0.00    +0.000 C 
ATOM     14  C   UNL     1     -45.218 -63.483  42.494  0.00  0.00    +0.000 C 
ENDBRANCH   4  13
TORSDOF 1
ENDMDL
MODEL 6
REMARK VINA RESULT:      -4.0      2.455      5.066
REMARK  Name = 21574552_Mertensene.pdbqt.pdb
REMARK  1 active torsions:
REMARK  status: ('A' for Active; 'I' for Inactive)
REMARK    1  A    between atoms: C_4  and  C_13
REMARK                            x       y       z     vdW  Elec       q    Type
REMARK                         _______ _______ _______ _____ _____    ______ ____
ROOT
ATOM      1 BR   UNL     1     -42.128 -76.187  60.114  0.00  0.00    +0.000 Br
ATOM      2 CL   UNL     1     -41.742 -76.335  66.046  0.00  0.00    +0.000 Cl
ATOM      3 CL   UNL     1     -44.863 -76.854  64.783  0.00  0.00    +0.000 Cl
ATOM      4  C   UNL     1     -41.107 -74.818  62.567  0.00  0.00    +0.000 C 
ATOM      5  C   UNL     1     -41.523 -74.777  63.973  0.00  0.00    +0.000 C 
ATOM      6  C   UNL     1     -42.543 -75.205  64.927  0.00  0.00    +0.000 C 
ATOM      7  C   UNL     1     -42.246 -75.593  61.858  0.00  0.00    +0.000 C 
ATOM      8  C   UNL     1     -43.608 -75.924  64.087  0.00  0.00    +0.000 C 
ATOM      9  C   UNL     1     -43.314 -76.030  62.696  0.00  0.00    +0.000 C 
ATOM     10  C   UNL     1     -41.032 -73.384  61.994  0.00  0.00    +0.000 C 
ATOM     11  C   UNL     1     -43.131 -74.043  65.734  0.00  0.00    +0.000 C 
ENDROOT
BRANCH   4  13
ATOM     12 CL   UNL     1     -37.272 -76.982  62.156  0.00  0.00    +0.000 Cl
ATOM     13  C   UNL     1     -39.835 -75.542  62.425  0.00  0.00    +0.000 C 
ATOM     14  C   UNL     1     -38.795 -76.131  62.312  0.00  0.00    +0.000 C 
ENDBRANCH   4  13
TORSDOF 1
ENDMDL
MODEL 7
REMARK VINA RESULT:      -3.9     25.543     27.666
REMARK  Name = 21574552_Mertensene.pdbqt.pdb
REMARK  1 active torsions:
REMARK  status: ('A' for Active; 'I' for Inactive)
REMARK    1  A    between atoms: C_4  and  C_13
REMARK                            x       y       z     vdW  Elec       q    Type
REMARK                         _______ _______ _______ _____ _____    ______ ____
ROOT
ATOM      1 BR   UNL     1     -28.836 -53.061  52.383  0.00  0.00    +0.000 Br
ATOM      2 CL   UNL     1     -30.281 -51.755  58.002  0.00  0.00    +0.000 Cl
ATOM      3 CL   UNL     1     -28.060 -54.311  57.633  0.00  0.00    +0.000 Cl
ATOM      4  C   UNL     1     -31.056 -52.532  54.313  0.00  0.00    +0.000 C 
ATOM      5  C   UNL     1     -31.222 -52.689  55.763  0.00  0.00    +0.000 C 
ATOM      6  C   UNL     1     -30.596 -53.183  56.986  0.00  0.00    +0.000 C 
ATOM      7  C   UNL     1     -29.691 -53.201  54.013  0.00  0.00    +0.000 C 
ATOM      8  C   UNL     1     -29.284 -53.839  56.535  0.00  0.00    +0.000 C 
ATOM      9  C   UNL     1     -29.008 -53.749  55.139  0.00  0.00    +0.000 C 
ATOM     10  C   UNL     1     -32.174 -53.295  53.566  0.00  0.00    +0.000 C 
ATOM     11  C   UNL     1     -31.490 -54.155  57.764  0.00  0.00    +0.000 C 
ENDROOT
BRANCH   4  13
ATOM     12 CL   UNL     1     -30.929 -48.244  53.241  0.00  0.00    +0.000 Cl
ATOM     13  C   UNL     1     -31.015 -51.107  53.949  0.00  0.00    +0.000 C 
ATOM     14  C   UNL     1     -30.980 -49.944  53.656  0.00  0.00    +0.000 C 
ENDBRANCH   4  13
TORSDOF 1
ENDMDL
MODEL 8
REMARK VINA RESULT:      -3.9     54.514     55.806
REMARK  Name = 21574552_Mertensene.pdbqt.pdb
REMARK  1 active torsions:
REMARK  status: ('A' for Active; 'I' for Inactive)
REMARK    1  A    between atoms: C_4  and  C_13
REMARK                            x       y       z     vdW  Elec       q    Type
REMARK                         _______ _______ _______ _____ _____    ______ ____
ROOT
ATOM      1 BR   UNL     1     -75.404 -66.343  21.239  0.00  0.00    +0.000 Br
ATOM      2 CL   UNL     1     -73.225 -67.095  15.758  0.00  0.00    +0.000 Cl
ATOM      3 CL   UNL     1     -76.302 -68.453  16.293  0.00  0.00    +0.000 Cl
ATOM      4  C   UNL     1     -73.048 -67.179  19.601  0.00  0.00    +0.000 C 
ATOM      5  C   UNL     1     -72.873 -67.736  18.255  0.00  0.00    +0.000 C 
ATOM      6  C   UNL     1     -73.570 -68.242  17.076  0.00  0.00    +0.000 C 
ATOM      7  C   UNL     1     -74.582 -67.189  19.819  0.00  0.00    +0.000 C 
ATOM      8  C   UNL     1     -75.060 -68.223  17.445  0.00  0.00    +0.000 C 
ATOM      9  C   UNL     1     -75.359 -67.697  18.736  0.00  0.00    +0.000 C 
ATOM     10  C   UNL     1     -72.377 -68.098  20.647  0.00  0.00    +0.000 C 
ATOM     11  C   UNL     1     -73.097 -69.637  16.655  0.00  0.00    +0.000 C 
ENDROOT
BRANCH   4  13
ATOM     12 CL   UNL     1     -71.528 -63.030  19.786  0.00  0.00    +0.000 Cl
ATOM     13  C   UNL     1     -72.536 -65.801  19.660  0.00  0.00    +0.000 C 
ATOM     14  C   UNL     1     -72.121 -64.676  19.710  0.00  0.00    +0.000 C 
ENDBRANCH   4  13
TORSDOF 1
ENDMDL
MODEL 9
REMARK VINA RESULT:      -3.9     24.150     25.484
REMARK  Name = 21574552_Mertensene.pdbqt.pdb
REMARK  1 active torsions:
REMARK  status: ('A' for Active; 'I' for Inactive)
REMARK    1  A    between atoms: C_4  and  C_13
REMARK                            x       y       z     vdW  Elec       q    Type
REMARK                         _______ _______ _______ _____ _____    ______ ____
ROOT
ATOM      1 BR   UNL     1     -32.336 -63.267  45.594  0.00  0.00    +0.000 Br
ATOM      2 CL   UNL     1     -32.156 -57.331  45.876  0.00  0.00    +0.000 Cl
ATOM      3 CL   UNL     1     -29.738 -58.940  47.654  0.00  0.00    +0.000 Cl
ATOM      4  C   UNL     1     -33.895 -60.759  46.052  0.00  0.00    +0.000 C 
ATOM      5  C   UNL     1     -33.566 -59.415  46.539  0.00  0.00    +0.000 C 
ATOM      6  C   UNL     1     -32.509 -58.576  47.098  0.00  0.00    +0.000 C 
ATOM      7  C   UNL     1     -32.596 -61.572  46.277  0.00  0.00    +0.000 C 
ATOM      8  C   UNL     1     -31.309 -59.513  47.293  0.00  0.00    +0.000 C 
ATOM      9  C   UNL     1     -31.506 -60.854  46.852  0.00  0.00    +0.000 C 
ATOM     10  C   UNL     1     -35.033 -61.368  46.903  0.00  0.00    +0.000 C 
ATOM     11  C   UNL     1     -32.921 -57.887  48.403  0.00  0.00    +0.000 C 
ENDROOT
BRANCH   4  13
ATOM     12 CL   UNL     1     -34.923 -60.648  41.752  0.00  0.00    +0.000 Cl
ATOM     13  C   UNL     1     -34.230 -60.722  44.620  0.00  0.00    +0.000 C 
ATOM     14  C   UNL     1     -34.506 -60.691  43.452  0.00  0.00    +0.000 C 
ENDBRANCH   4  13
TORSDOF 1
ENDMDL
