MODEL 1
REMARK VINA RESULT:      -8.8      0.000      0.000
REMARK  Name = 222284_BetaSitosterol.pdbqt.pdb
REMARK  5 active torsions:
REMARK  status: ('A' for Active; 'I' for Inactive)
REMARK    1  A    between atoms: C_5  and  C_22
REMARK    2  A    between atoms: C_19  and  O_20
REMARK    3  A    between atoms: C_22  and  C_24
REMARK    4  A    between atoms: C_25  and  C_26
REMARK    5  A    between atoms: C_26  and  C_30
REMARK                            x       y       z     vdW  Elec       q    Type
REMARK                         _______ _______ _______ _____ _____    ______ ____
ROOT
ATOM      1  C   UNL     1     -45.210 -62.713  36.912  0.00  0.00    +0.000 C 
ATOM      2  C   UNL     1     -46.603 -62.649  36.101  0.00  0.00    +0.000 C 
ATOM      3  C   UNL     1     -46.803 -63.374  34.829  0.00  0.00    +0.000 C 
ATOM      4  C   UNL     1     -45.909 -64.456  34.277  0.00  0.00    +0.000 C 
ATOM      5  C   UNL     1     -45.645 -62.869  38.361  0.00  0.00    +0.000 C 
ATOM      6  C   UNL     1     -44.511 -63.883  36.377  0.00  0.00    +0.000 C 
ATOM      7  C   UNL     1     -46.126 -65.131  32.896  0.00  0.00    +0.000 C 
ATOM      8  C   UNL     1     -47.653 -62.609  37.071  0.00  0.00    +0.000 C 
ATOM      9  C   UNL     1     -44.804 -64.696  35.139  0.00  0.00    +0.000 C 
ATOM     10  C   UNL     1     -47.065 -62.786  38.445  0.00  0.00    +0.000 C 
ATOM     11  C   UNL     1     -47.977 -63.188  34.059  0.00  0.00    +0.000 C 
ATOM     12  C   UNL     1     -44.457 -61.376  36.686  0.00  0.00    +0.000 C 
ATOM     13  C   UNL     1     -47.637 -64.907  32.268  0.00  0.00    +0.000 C 
ATOM     14  C   UNL     1     -46.006 -66.614  33.021  0.00  0.00    +0.000 C 
ATOM     15  C   UNL     1     -48.332 -63.961  32.824  0.00  0.00    +0.000 C 
ATOM     16  C   UNL     1     -45.112 -64.537  31.876  0.00  0.00    +0.000 C 
ATOM     17  C   UNL     1     -48.333 -66.113  31.883  0.00  0.00    +0.000 C 
ATOM     18  C   UNL     1     -46.892 -67.801  32.608  0.00  0.00    +0.000 C 
ATOM     19  C   UNL     1     -48.138 -67.528  31.971  0.00  0.00    +0.000 C 
ENDROOT
BRANCH  19  20
ATOM     20  O   UNL     1     -48.674 -68.391  31.060  0.00  0.00    +0.000 OA
ATOM     21  H   UNL     1     -49.576 -68.130  30.810  0.00  0.00    +0.000 HD
ENDBRANCH  19  20
BRANCH   5  22
ATOM     22  C   UNL     1     -44.762 -63.121  39.456  0.00  0.00    +0.000 C 
ATOM     23  C   UNL     1     -43.363 -63.649  39.261  0.00  0.00    +0.000 C 
BRANCH  22  24
ATOM     24  C   UNL     1     -45.136 -62.871  40.804  0.00  0.00    +0.000 C 
ATOM     25  C   UNL     1     -45.542 -62.573  42.255  0.00  0.00    +0.000 C 
BRANCH  25  26
ATOM     26  C   UNL     1     -45.908 -62.281  43.604  0.00  0.00    +0.000 C 
ATOM     27  C   UNL     1     -46.711 -61.118  43.914  0.00  0.00    +0.000 C 
ATOM     28  C   UNL     1     -47.216 -60.170  42.843  0.00  0.00    +0.000 C 
ATOM     29  C   UNL     1     -47.097 -60.719  45.321  0.00  0.00    +0.000 C 
BRANCH  26  30
ATOM     30  C   UNL     1     -45.490 -63.141  44.654  0.00  0.00    +0.000 C 
ATOM     31  C   UNL     1     -45.027 -64.108  45.750  0.00  0.00    +0.000 C 
ENDBRANCH  26  30
ENDBRANCH  25  26
ENDBRANCH  22  24
ENDBRANCH   5  22
TORSDOF 5
ENDMDL
MODEL 2
REMARK VINA RESULT:      -8.7      4.644      7.298
REMARK  Name = 222284_BetaSitosterol.pdbqt.pdb
REMARK  5 active torsions:
REMARK  status: ('A' for Active; 'I' for Inactive)
REMARK    1  A    between atoms: C_5  and  C_22
REMARK    2  A    between atoms: C_19  and  O_20
REMARK    3  A    between atoms: C_22  and  C_24
REMARK    4  A    between atoms: C_25  and  C_26
REMARK    5  A    between atoms: C_26  and  C_30
REMARK                            x       y       z     vdW  Elec       q    Type
REMARK                         _______ _______ _______ _____ _____    ______ ____
ROOT
ATOM      1  C   UNL     1     -44.597 -61.381  36.814  0.00  0.00    +0.000 C 
ATOM      2  C   UNL     1     -43.116 -60.763  36.656  0.00  0.00    +0.000 C 
ATOM      3  C   UNL     1     -42.869 -59.494  35.942  0.00  0.00    +0.000 C 
ATOM      4  C   UNL     1     -43.917 -58.488  35.536  0.00  0.00    +0.000 C 
ATOM      5  C   UNL     1     -44.637 -61.854  38.259  0.00  0.00    +0.000 C 
ATOM      6  C   UNL     1     -45.506 -60.269  36.532  0.00  0.00    +0.000 C 
ATOM      7  C   UNL     1     -43.608 -57.205  34.716  0.00  0.00    +0.000 C 
ATOM      8  C   UNL     1     -42.411 -61.048  37.868  0.00  0.00    +0.000 C 
ATOM      9  C   UNL     1     -45.216 -58.922  35.915  0.00  0.00    +0.000 C 
ATOM     10  C   UNL     1     -43.356 -61.675  38.856  0.00  0.00    +0.000 C 
ATOM     11  C   UNL     1     -41.550 -59.043  35.686  0.00  0.00    +0.000 C 
ATOM     12  C   UNL     1     -44.734 -62.567  35.825  0.00  0.00    +0.000 C 
ATOM     13  C   UNL     1     -42.010 -56.788  34.698  0.00  0.00    +0.000 C 
ATOM     14  C   UNL     1     -44.281 -56.024  35.333  0.00  0.00    +0.000 C 
ATOM     15  C   UNL     1     -41.191 -57.720  35.081  0.00  0.00    +0.000 C 
ATOM     16  C   UNL     1     -44.041 -57.431  33.238  0.00  0.00    +0.000 C 
ATOM     17  C   UNL     1     -41.720 -55.432  35.104  0.00  0.00    +0.000 C 
ATOM     18  C   UNL     1     -43.806 -54.632  35.783  0.00  0.00    +0.000 C 
ATOM     19  C   UNL     1     -42.426 -54.306  35.634  0.00  0.00    +0.000 C 
ENDROOT
BRANCH  19  20
ATOM     20  O   UNL     1     -42.020 -53.023  35.406  0.00  0.00    +0.000 OA
ATOM     21  H   UNL     1     -41.934 -52.840  34.455  0.00  0.00    +0.000 HD
ENDBRANCH  19  20
BRANCH   5  22
ATOM     22  C   UNL     1     -45.803 -62.343  38.926  0.00  0.00    +0.000 C 
ATOM     23  C   UNL     1     -46.888 -63.103  38.205  0.00  0.00    +0.000 C 
BRANCH  22  24
ATOM     24  C   UNL     1     -46.009 -62.164  40.321  0.00  0.00    +0.000 C 
ATOM     25  C   UNL     1     -46.203 -61.965  41.831  0.00  0.00    +0.000 C 
BRANCH  25  26
ATOM     26  C   UNL     1     -46.368 -61.789  43.239  0.00  0.00    +0.000 C 
ATOM     27  C   UNL     1     -47.130 -60.674  43.758  0.00  0.00    +0.000 C 
ATOM     28  C   UNL     1     -47.802 -59.657  42.853  0.00  0.00    +0.000 C 
ATOM     29  C   UNL     1     -47.308 -60.397  45.234  0.00  0.00    +0.000 C 
BRANCH  26  30
ATOM     30  C   UNL     1     -45.787 -62.719  44.142  0.00  0.00    +0.000 C 
ATOM     31  C   UNL     1     -45.111 -63.705  45.101  0.00  0.00    +0.000 C 
ENDBRANCH  26  30
ENDBRANCH  25  26
ENDBRANCH  22  24
ENDBRANCH   5  22
TORSDOF 5
ENDMDL
MODEL 3
REMARK VINA RESULT:      -8.6      1.048      2.058
REMARK  Name = 222284_BetaSitosterol.pdbqt.pdb
REMARK  5 active torsions:
REMARK  status: ('A' for Active; 'I' for Inactive)
REMARK    1  A    between atoms: C_5  and  C_22
REMARK    2  A    between atoms: C_19  and  O_20
REMARK    3  A    between atoms: C_22  and  C_24
REMARK    4  A    between atoms: C_25  and  C_26
REMARK    5  A    between atoms: C_26  and  C_30
REMARK                            x       y       z     vdW  Elec       q    Type
REMARK                         _______ _______ _______ _____ _____    ______ ____
ROOT
ATOM      1  C   UNL     1     -45.903 -62.805  37.061  0.00  0.00    +0.000 C 
ATOM      2  C   UNL     1     -46.968 -62.654  35.860  0.00  0.00    +0.000 C 
ATOM      3  C   UNL     1     -46.886 -63.473  34.632  0.00  0.00    +0.000 C 
ATOM      4  C   UNL     1     -46.036 -64.704  34.445  0.00  0.00    +0.000 C 
ATOM      5  C   UNL     1     -46.765 -62.762  38.313  0.00  0.00    +0.000 C 
ATOM      6  C   UNL     1     -45.255 -64.098  36.835  0.00  0.00    +0.000 C 
ATOM      7  C   UNL     1     -45.929 -65.482  33.105  0.00  0.00    +0.000 C 
ATOM      8  C   UNL     1     -48.241 -62.392  36.457  0.00  0.00    +0.000 C 
ATOM      9  C   UNL     1     -45.283 -64.989  35.617  0.00  0.00    +0.000 C 
ATOM     10  C   UNL     1     -48.119 -62.500  37.953  0.00  0.00    +0.000 C 
ATOM     11  C   UNL     1     -47.739 -63.224  33.529  0.00  0.00    +0.000 C 
ATOM     12  C   UNL     1     -44.931 -61.598  37.000  0.00  0.00    +0.000 C 
ATOM     13  C   UNL     1     -47.138 -65.140  32.032  0.00  0.00    +0.000 C 
ATOM     14  C   UNL     1     -46.068 -66.948  33.347  0.00  0.00    +0.000 C 
ATOM     15  C   UNL     1     -47.821 -64.067  32.292  0.00  0.00    +0.000 C 
ATOM     16  C   UNL     1     -44.584 -65.119  32.413  0.00  0.00    +0.000 C 
ATOM     17  C   UNL     1     -47.856 -66.286  31.523  0.00  0.00    +0.000 C 
ATOM     18  C   UNL     1     -46.956 -68.055  32.752  0.00  0.00    +0.000 C 
ATOM     19  C   UNL     1     -47.903 -67.698  31.748  0.00  0.00    +0.000 C 
ENDROOT
BRANCH  19  20
ATOM     20  O   UNL     1     -48.265 -68.576  30.769  0.00  0.00    +0.000 OA
ATOM     21  H   UNL     1     -47.573 -68.660  30.091  0.00  0.00    +0.000 HD
ENDBRANCH  19  20
BRANCH   5  22
ATOM     22  C   UNL     1     -46.292 -63.009  39.640  0.00  0.00    +0.000 C 
ATOM     23  C   UNL     1     -45.219 -64.025  39.939  0.00  0.00    +0.000 C 
BRANCH  22  24
ATOM     24  C   UNL     1     -46.789 -62.298  40.765  0.00  0.00    +0.000 C 
ATOM     25  C   UNL     1     -47.334 -61.509  41.964  0.00  0.00    +0.000 C 
BRANCH  25  26
ATOM     26  C   UNL     1     -47.833 -60.758  43.072  0.00  0.00    +0.000 C 
ATOM     27  C   UNL     1     -47.309 -60.974  44.403  0.00  0.00    +0.000 C 
ATOM     28  C   UNL     1     -46.208 -61.977  44.691  0.00  0.00    +0.000 C 
ATOM     29  C   UNL     1     -47.820 -60.252  45.631  0.00  0.00    +0.000 C 
BRANCH  26  30
ATOM     30  C   UNL     1     -48.847 -59.785  42.870  0.00  0.00    +0.000 C 
ATOM     31  C   UNL     1     -49.967 -58.752  42.696  0.00  0.00    +0.000 C 
ENDBRANCH  26  30
ENDBRANCH  25  26
ENDBRANCH  22  24
ENDBRANCH   5  22
TORSDOF 5
ENDMDL
MODEL 4
REMARK VINA RESULT:      -8.3     18.056     19.571
REMARK  Name = 222284_BetaSitosterol.pdbqt.pdb
REMARK  5 active torsions:
REMARK  status: ('A' for Active; 'I' for Inactive)
REMARK    1  A    between atoms: C_5  and  C_22
REMARK    2  A    between atoms: C_19  and  O_20
REMARK    3  A    between atoms: C_22  and  C_24
REMARK    4  A    between atoms: C_25  and  C_26
REMARK    5  A    between atoms: C_26  and  C_30
REMARK                            x       y       z     vdW  Elec       q    Type
REMARK                         _______ _______ _______ _____ _____    ______ ____
ROOT
ATOM      1  C   UNL     1     -63.924 -67.684  40.245  0.00  0.00    +0.000 C 
ATOM      2  C   UNL     1     -63.852 -69.263  39.925  0.00  0.00    +0.000 C 
ATOM      3  C   UNL     1     -65.064 -70.104  39.853  0.00  0.00    +0.000 C 
ATOM      4  C   UNL     1     -66.484 -69.604  39.771  0.00  0.00    +0.000 C 
ATOM      5  C   UNL     1     -62.935 -67.073  39.265  0.00  0.00    +0.000 C 
ATOM      6  C   UNL     1     -65.316 -67.307  39.991  0.00  0.00    +0.000 C 
ATOM      7  C   UNL     1     -67.727 -70.535  39.776  0.00  0.00    +0.000 C 
ATOM      8  C   UNL     1     -62.796 -69.452  38.979  0.00  0.00    +0.000 C 
ATOM      9  C   UNL     1     -66.528 -68.183  39.791  0.00  0.00    +0.000 C 
ATOM     10  C   UNL     1     -62.269 -68.109  38.549  0.00  0.00    +0.000 C 
ATOM     11  C   UNL     1     -64.971 -71.511  39.718  0.00  0.00    +0.000 C 
ATOM     12  C   UNL     1     -63.475 -67.467  41.713  0.00  0.00    +0.000 C 
ATOM     13  C   UNL     1     -67.385 -72.114  39.430  0.00  0.00    +0.000 C 
ATOM     14  C   UNL     1     -68.679 -70.131  38.700  0.00  0.00    +0.000 C 
ATOM     15  C   UNL     1     -66.131 -72.439  39.514  0.00  0.00    +0.000 C 
ATOM     16  C   UNL     1     -68.379 -70.505  41.189  0.00  0.00    +0.000 C 
ATOM     17  C   UNL     1     -68.158 -72.694  38.357  0.00  0.00    +0.000 C 
ATOM     18  C   UNL     1     -69.383 -70.876  37.553  0.00  0.00    +0.000 C 
ATOM     19  C   UNL     1     -69.119 -72.267  37.386  0.00  0.00    +0.000 C 
ENDROOT
BRANCH  19  20
ATOM     20  O   UNL     1     -70.061 -73.113  36.879  0.00  0.00    +0.000 OA
ATOM     21  H   UNL     1     -69.664 -73.942  36.564  0.00  0.00    +0.000 HD
ENDBRANCH  19  20
BRANCH   5  22
ATOM     22  C   UNL     1     -62.752 -65.670  39.056  0.00  0.00    +0.000 C 
ATOM     23  C   UNL     1     -63.340 -64.945  37.872  0.00  0.00    +0.000 C 
BRANCH  22  24
ATOM     24  C   UNL     1     -62.018 -64.860  39.964  0.00  0.00    +0.000 C 
ATOM     25  C   UNL     1     -61.241 -63.993  40.966  0.00  0.00    +0.000 C 
BRANCH  25  26
ATOM     26  C   UNL     1     -60.535 -63.182  41.907  0.00  0.00    +0.000 C 
ATOM     27  C   UNL     1     -61.085 -62.931  43.221  0.00  0.00    +0.000 C 
ATOM     28  C   UNL     1     -62.409 -63.518  43.674  0.00  0.00    +0.000 C 
ATOM     29  C   UNL     1     -60.420 -62.046  44.251  0.00  0.00    +0.000 C 
BRANCH  26  30
ATOM     30  C   UNL     1     -59.278 -62.622  41.557  0.00  0.00    +0.000 C 
ATOM     31  C   UNL     1     -57.913 -62.005  41.231  0.00  0.00    +0.000 C 
ENDBRANCH  26  30
ENDBRANCH  25  26
ENDBRANCH  22  24
ENDBRANCH   5  22
TORSDOF 5
ENDMDL
MODEL 5
REMARK VINA RESULT:      -7.9      3.636     10.048
REMARK  Name = 222284_BetaSitosterol.pdbqt.pdb
REMARK  5 active torsions:
REMARK  status: ('A' for Active; 'I' for Inactive)
REMARK    1  A    between atoms: C_5  and  C_22
REMARK    2  A    between atoms: C_19  and  O_20
REMARK    3  A    between atoms: C_22  and  C_24
REMARK    4  A    between atoms: C_25  and  C_26
REMARK    5  A    between atoms: C_26  and  C_30
REMARK                            x       y       z     vdW  Elec       q    Type
REMARK                         _______ _______ _______ _____ _____    ______ ____
ROOT
ATOM      1  C   UNL     1     -47.239 -63.444  33.006  0.00  0.00    +0.000 C 
ATOM      2  C   UNL     1     -47.702 -62.569  34.279  0.00  0.00    +0.000 C 
ATOM      3  C   UNL     1     -47.172 -62.816  35.635  0.00  0.00    +0.000 C 
ATOM      4  C   UNL     1     -45.972 -63.664  35.976  0.00  0.00    +0.000 C 
ATOM      5  C   UNL     1     -47.045 -62.409  31.909  0.00  0.00    +0.000 C 
ATOM      6  C   UNL     1     -45.997 -64.097  33.426  0.00  0.00    +0.000 C 
ATOM      7  C   UNL     1     -45.505 -63.953  37.428  0.00  0.00    +0.000 C 
ATOM      8  C   UNL     1     -47.888 -61.226  33.820  0.00  0.00    +0.000 C 
ATOM      9  C   UNL     1     -45.400 -64.233  34.805  0.00  0.00    +0.000 C 
ATOM     10  C   UNL     1     -47.446 -61.127  32.385  0.00  0.00    +0.000 C 
ATOM     11  C   UNL     1     -47.699 -62.137  36.762  0.00  0.00    +0.000 C 
ATOM     12  C   UNL     1     -48.380 -64.433  32.658  0.00  0.00    +0.000 C 
ATOM     13  C   UNL     1     -46.134 -62.920  38.554  0.00  0.00    +0.000 C 
ATOM     14  C   UNL     1     -44.030 -63.757  37.545  0.00  0.00    +0.000 C 
ATOM     15  C   UNL     1     -47.155 -62.224  38.156  0.00  0.00    +0.000 C 
ATOM     16  C   UNL     1     -45.947 -65.391  37.827  0.00  0.00    +0.000 C 
ATOM     17  C   UNL     1     -45.165 -62.265  39.403  0.00  0.00    +0.000 C 
ATOM     18  C   UNL     1     -43.127 -62.948  38.491  0.00  0.00    +0.000 C 
ATOM     19  C   UNL     1     -43.742 -62.163  39.511  0.00  0.00    +0.000 C 
ENDROOT
BRANCH  19  20
ATOM     20  O   UNL     1     -43.121 -61.935  40.703  0.00  0.00    +0.000 OA
ATOM     21  H   UNL     1     -42.935 -60.989  40.833  0.00  0.00    +0.000 HD
ENDBRANCH  19  20
BRANCH   5  22
ATOM     22  C   UNL     1     -46.489 -62.679  30.620  0.00  0.00    +0.000 C 
ATOM     23  C   UNL     1     -45.726 -61.641  29.835  0.00  0.00    +0.000 C 
BRANCH  22  24
ATOM     24  C   UNL     1     -46.601 -63.952  29.999  0.00  0.00    +0.000 C 
ATOM     25  C   UNL     1     -46.702 -65.339  29.346  0.00  0.00    +0.000 C 
BRANCH  25  26
ATOM     26  C   UNL     1     -46.778 -66.630  28.741  0.00  0.00    +0.000 C 
ATOM     27  C   UNL     1     -46.353 -66.827  27.372  0.00  0.00    +0.000 C 
ATOM     28  C   UNL     1     -45.796 -65.699  26.523  0.00  0.00    +0.000 C 
ATOM     29  C   UNL     1     -46.447 -68.152  26.649  0.00  0.00    +0.000 C 
BRANCH  26  30
ATOM     30  C   UNL     1     -47.266 -67.735  29.487  0.00  0.00    +0.000 C 
ATOM     31  C   UNL     1     -47.808 -68.894  30.331  0.00  0.00    +0.000 C 
ENDBRANCH  26  30
ENDBRANCH  25  26
ENDBRANCH  22  24
ENDBRANCH   5  22
TORSDOF 5
ENDMDL
MODEL 6
REMARK VINA RESULT:      -7.8     24.133     28.961
REMARK  Name = 222284_BetaSitosterol.pdbqt.pdb
REMARK  5 active torsions:
REMARK  status: ('A' for Active; 'I' for Inactive)
REMARK    1  A    between atoms: C_5  and  C_22
REMARK    2  A    between atoms: C_19  and  O_20
REMARK    3  A    between atoms: C_22  and  C_24
REMARK    4  A    between atoms: C_25  and  C_26
REMARK    5  A    between atoms: C_26  and  C_30
REMARK                            x       y       z     vdW  Elec       q    Type
REMARK                         _______ _______ _______ _____ _____    ______ ____
ROOT
ATOM      1  C   UNL     1     -43.920 -38.977  50.851  0.00  0.00    +0.000 C 
ATOM      2  C   UNL     1     -44.881 -39.345  52.093  0.00  0.00    +0.000 C 
ATOM      3  C   UNL     1     -46.157 -38.641  52.332  0.00  0.00    +0.000 C 
ATOM      4  C   UNL     1     -46.867 -37.738  51.354  0.00  0.00    +0.000 C 
ATOM      5  C   UNL     1     -43.481 -40.334  50.323  0.00  0.00    +0.000 C 
ATOM      6  C   UNL     1     -44.769 -38.229  49.922  0.00  0.00    +0.000 C 
ATOM      7  C   UNL     1     -48.169 -36.961  51.687  0.00  0.00    +0.000 C 
ATOM      8  C   UNL     1     -44.802 -40.761  52.280  0.00  0.00    +0.000 C 
ATOM      9  C   UNL     1     -46.134 -37.622  50.141  0.00  0.00    +0.000 C 
ATOM     10  C   UNL     1     -43.981 -41.362  51.172  0.00  0.00    +0.000 C 
ATOM     11  C   UNL     1     -46.913 -38.875  53.507  0.00  0.00    +0.000 C 
ATOM     12  C   UNL     1     -42.718 -38.163  51.394  0.00  0.00    +0.000 C 
ATOM     13  C   UNL     1     -48.967 -37.526  53.018  0.00  0.00    +0.000 C 
ATOM     14  C   UNL     1     -49.160 -37.117  50.582  0.00  0.00    +0.000 C 
ATOM     15  C   UNL     1     -48.273 -38.309  53.787  0.00  0.00    +0.000 C 
ATOM     16  C   UNL     1     -47.815 -35.471  51.961  0.00  0.00    +0.000 C 
ATOM     17  C   UNL     1     -50.360 -37.849  52.815  0.00  0.00    +0.000 C 
ATOM     18  C   UNL     1     -50.635 -37.549  50.515  0.00  0.00    +0.000 C 
ATOM     19  C   UNL     1     -51.288 -37.919  51.728  0.00  0.00    +0.000 C 
ENDROOT
BRANCH  19  20
ATOM     20  O   UNL     1     -52.626 -37.720  51.903  0.00  0.00    +0.000 OA
ATOM     21  H   UNL     1     -53.102 -37.730  51.056  0.00  0.00    +0.000 HD
ENDBRANCH  19  20
BRANCH   5  22
ATOM     22  C   UNL     1     -42.732 -40.540  49.122  0.00  0.00    +0.000 C 
ATOM     23  C   UNL     1     -43.260 -40.149  47.764  0.00  0.00    +0.000 C 
BRANCH  22  24
ATOM     24  C   UNL     1     -41.430 -41.109  49.130  0.00  0.00    +0.000 C 
ATOM     25  C   UNL     1     -40.014 -41.702  49.154  0.00  0.00    +0.000 C 
BRANCH  25  26
ATOM     26  C   UNL     1     -38.689 -42.236  49.174  0.00  0.00    +0.000 C 
ATOM     27  C   UNL     1     -38.345 -43.382  48.361  0.00  0.00    +0.000 C 
ATOM     28  C   UNL     1     -39.347 -44.058  47.444  0.00  0.00    +0.000 C 
ATOM     29  C   UNL     1     -36.979 -44.030  48.365  0.00  0.00    +0.000 C 
BRANCH  26  30
ATOM     30  C   UNL     1     -37.695 -41.635  49.992  0.00  0.00    +0.000 C 
ATOM     31  C   UNL     1     -36.636 -40.938  50.854  0.00  0.00    +0.000 C 
ENDBRANCH  26  30
ENDBRANCH  25  26
ENDBRANCH  22  24
ENDBRANCH   5  22
TORSDOF 5
ENDMDL
MODEL 7
REMARK VINA RESULT:      -7.8     24.710     26.776
REMARK  Name = 222284_BetaSitosterol.pdbqt.pdb
REMARK  5 active torsions:
REMARK  status: ('A' for Active; 'I' for Inactive)
REMARK    1  A    between atoms: C_5  and  C_22
REMARK    2  A    between atoms: C_19  and  O_20
REMARK    3  A    between atoms: C_22  and  C_24
REMARK    4  A    between atoms: C_25  and  C_26
REMARK    5  A    between atoms: C_26  and  C_30
REMARK                            x       y       z     vdW  Elec       q    Type
REMARK                         _______ _______ _______ _____ _____    ______ ____
ROOT
ATOM      1  C   UNL     1     -32.610 -48.704  52.192  0.00  0.00    +0.000 C 
ATOM      2  C   UNL     1     -33.162 -50.107  52.764  0.00  0.00    +0.000 C 
ATOM      3  C   UNL     1     -32.275 -51.092  53.416  0.00  0.00    +0.000 C 
ATOM      4  C   UNL     1     -30.867 -50.835  53.891  0.00  0.00    +0.000 C 
ATOM      5  C   UNL     1     -33.664 -47.698  52.628  0.00  0.00    +0.000 C 
ATOM      6  C   UNL     1     -31.311 -48.514  52.840  0.00  0.00    +0.000 C 
ATOM      7  C   UNL     1     -29.950 -51.931  54.500  0.00  0.00    +0.000 C 
ATOM      8  C   UNL     1     -34.466 -49.859  53.299  0.00  0.00    +0.000 C 
ATOM      9  C   UNL     1     -30.469 -49.499  53.615  0.00  0.00    +0.000 C 
ATOM     10  C   UNL     1     -34.748 -48.381  53.251  0.00  0.00    +0.000 C 
ATOM     11  C   UNL     1     -32.748 -52.377  53.777  0.00  0.00    +0.000 C 
ATOM     12  C   UNL     1     -32.530 -48.809  50.647  0.00  0.00    +0.000 C 
ATOM     13  C   UNL     1     -30.759 -53.282  55.001  0.00  0.00    +0.000 C 
ATOM     14  C   UNL     1     -29.295 -51.424  55.742  0.00  0.00    +0.000 C 
ATOM     15  C   UNL     1     -31.970 -53.400  54.548  0.00  0.00    +0.000 C 
ATOM     16  C   UNL     1     -28.919 -52.385  53.427  0.00  0.00    +0.000 C 
ATOM     17  C   UNL     1     -30.512 -53.680  56.367  0.00  0.00    +0.000 C 
ATOM     18  C   UNL     1     -29.174 -51.949  57.183  0.00  0.00    +0.000 C 
ATOM     19  C   UNL     1     -29.811 -53.182  57.511  0.00  0.00    +0.000 C 
ENDROOT
BRANCH  19  20
ATOM     20  O   UNL     1     -29.304 -54.010  58.468  0.00  0.00    +0.000 OA
ATOM     21  H   UNL     1     -29.999 -54.556  58.872  0.00  0.00    +0.000 HD
ENDBRANCH  19  20
BRANCH   5  22
ATOM     22  C   UNL     1     -33.549 -46.280  52.485  0.00  0.00    +0.000 C 
ATOM     23  C   UNL     1     -32.671 -45.446  53.384  0.00  0.00    +0.000 C 
BRANCH  22  24
ATOM     24  C   UNL     1     -34.240 -45.562  51.472  0.00  0.00    +0.000 C 
ATOM     25  C   UNL     1     -34.977 -44.805  50.357  0.00  0.00    +0.000 C 
BRANCH  25  26
ATOM     26  C   UNL     1     -35.646 -44.102  49.310  0.00  0.00    +0.000 C 
ATOM     27  C   UNL     1     -37.082 -44.198  49.160  0.00  0.00    +0.000 C 
ATOM     28  C   UNL     1     -37.945 -45.020  50.099  0.00  0.00    +0.000 C 
ATOM     29  C   UNL     1     -37.854 -43.522  48.048  0.00  0.00    +0.000 C 
BRANCH  26  30
ATOM     30  C   UNL     1     -34.902 -43.295  48.410  0.00  0.00    +0.000 C 
ATOM     31  C   UNL     1     -34.145 -42.403  47.419  0.00  0.00    +0.000 C 
ENDBRANCH  26  30
ENDBRANCH  25  26
ENDBRANCH  22  24
ENDBRANCH   5  22
TORSDOF 5
ENDMDL
MODEL 8
REMARK VINA RESULT:      -7.7     24.161     27.203
REMARK  Name = 222284_BetaSitosterol.pdbqt.pdb
REMARK  5 active torsions:
REMARK  status: ('A' for Active; 'I' for Inactive)
REMARK    1  A    between atoms: C_5  and  C_22
REMARK    2  A    between atoms: C_19  and  O_20
REMARK    3  A    between atoms: C_22  and  C_24
REMARK    4  A    between atoms: C_25  and  C_26
REMARK    5  A    between atoms: C_26  and  C_30
REMARK                            x       y       z     vdW  Elec       q    Type
REMARK                         _______ _______ _______ _____ _____    ______ ____
ROOT
ATOM      1  C   UNL     1     -31.995 -50.993  52.367  0.00  0.00    +0.000 C 
ATOM      2  C   UNL     1     -32.664 -51.868  53.545  0.00  0.00    +0.000 C 
ATOM      3  C   UNL     1     -31.861 -52.463  54.632  0.00  0.00    +0.000 C 
ATOM      4  C   UNL     1     -30.430 -52.121  54.964  0.00  0.00    +0.000 C 
ATOM      5  C   UNL     1     -32.950 -49.820  52.203  0.00  0.00    +0.000 C 
ATOM      6  C   UNL     1     -30.677 -50.613  52.877  0.00  0.00    +0.000 C 
ATOM      7  C   UNL     1     -29.608 -52.835  56.071  0.00  0.00    +0.000 C 
ATOM      8  C   UNL     1     -33.934 -51.277  53.838  0.00  0.00    +0.000 C 
ATOM      9  C   UNL     1     -29.918 -51.141  54.070  0.00  0.00    +0.000 C 
ATOM     10  C   UNL     1     -34.083 -50.006  53.046  0.00  0.00    +0.000 C 
ATOM     11  C   UNL     1     -32.444 -53.348  55.572  0.00  0.00    +0.000 C 
ATOM     12  C   UNL     1     -31.943 -51.865  51.086  0.00  0.00    +0.000 C 
ATOM     13  C   UNL     1     -30.529 -53.679  57.153  0.00  0.00    +0.000 C 
ATOM     14  C   UNL     1     -28.896 -51.830  56.914  0.00  0.00    +0.000 C 
ATOM     15  C   UNL     1     -31.751 -53.907  56.778  0.00  0.00    +0.000 C 
ATOM     16  C   UNL     1     -28.634 -53.850  55.406  0.00  0.00    +0.000 C 
ATOM     17  C   UNL     1     -30.302 -53.357  58.543  0.00  0.00    +0.000 C 
ATOM     18  C   UNL     1     -28.805 -51.568  58.428  0.00  0.00    +0.000 C 
ATOM     19  C   UNL     1     -29.546 -52.412  59.307  0.00  0.00    +0.000 C 
ENDROOT
BRANCH  19  20
ATOM     20  O   UNL     1     -29.104 -52.687  60.567  0.00  0.00    +0.000 OA
ATOM     21  H   UNL     1     -29.133 -51.899  61.135  0.00  0.00    +0.000 HD
ENDBRANCH  19  20
BRANCH   5  22
ATOM     22  C   UNL     1     -32.710 -48.681  51.374  0.00  0.00    +0.000 C 
ATOM     23  C   UNL     1     -31.624 -48.657  50.328  0.00  0.00    +0.000 C 
BRANCH  22  24
ATOM     24  C   UNL     1     -33.493 -47.499  51.466  0.00  0.00    +0.000 C 
ATOM     25  C   UNL     1     -34.345 -46.223  51.537  0.00  0.00    +0.000 C 
BRANCH  25  26
ATOM     26  C   UNL     1     -35.128 -45.029  51.587  0.00  0.00    +0.000 C 
ATOM     27  C   UNL     1     -34.680 -43.887  52.353  0.00  0.00    +0.000 C 
ATOM     28  C   UNL     1     -33.370 -43.883  53.117  0.00  0.00    +0.000 C 
ATOM     29  C   UNL     1     -35.477 -42.608  52.491  0.00  0.00    +0.000 C 
BRANCH  26  30
ATOM     30  C   UNL     1     -36.354 -44.956  50.874  0.00  0.00    +0.000 C 
ATOM     31  C   UNL     1     -37.654 -44.903  50.063  0.00  0.00    +0.000 C 
ENDBRANCH  26  30
ENDBRANCH  25  26
ENDBRANCH  22  24
ENDBRANCH   5  22
TORSDOF 5
ENDMDL
MODEL 9
REMARK VINA RESULT:      -7.6      6.507     11.645
REMARK  Name = 222284_BetaSitosterol.pdbqt.pdb
REMARK  5 active torsions:
REMARK  status: ('A' for Active; 'I' for Inactive)
REMARK    1  A    between atoms: C_5  and  C_22
REMARK    2  A    between atoms: C_19  and  O_20
REMARK    3  A    between atoms: C_22  and  C_24
REMARK    4  A    between atoms: C_25  and  C_26
REMARK    5  A    between atoms: C_26  and  C_30
REMARK                            x       y       z     vdW  Elec       q    Type
REMARK                         _______ _______ _______ _____ _____    ______ ____
ROOT
ATOM      1  C   UNL     1     -44.819 -59.777  33.986  0.00  0.00    +0.000 C 
ATOM      2  C   UNL     1     -44.860 -58.762  35.238  0.00  0.00    +0.000 C 
ATOM      3  C   UNL     1     -44.227 -57.428  35.186  0.00  0.00    +0.000 C 
ATOM      4  C   UNL     1     -43.738 -56.728  33.943  0.00  0.00    +0.000 C 
ATOM      5  C   UNL     1     -46.231 -60.340  33.933  0.00  0.00    +0.000 C 
ATOM      6  C   UNL     1     -44.472 -58.945  32.832  0.00  0.00    +0.000 C 
ATOM      7  C   UNL     1     -43.008 -55.357  33.957  0.00  0.00    +0.000 C 
ATOM      8  C   UNL     1     -46.135 -58.921  35.867  0.00  0.00    +0.000 C 
ATOM      9  C   UNL     1     -43.945 -57.532  32.789  0.00  0.00    +0.000 C 
ATOM     10  C   UNL     1     -46.981 -59.854  35.042  0.00  0.00    +0.000 C 
ATOM     11  C   UNL     1     -44.146 -56.612  36.341  0.00  0.00    +0.000 C 
ATOM     12  C   UNL     1     -43.778 -60.884  34.295  0.00  0.00    +0.000 C 
ATOM     13  C   UNL     1     -43.194 -54.511  35.363  0.00  0.00    +0.000 C 
ATOM     14  C   UNL     1     -43.584 -54.455  32.916  0.00  0.00    +0.000 C 
ATOM     15  C   UNL     1     -43.637 -55.202  36.370  0.00  0.00    +0.000 C 
ATOM     16  C   UNL     1     -41.482 -55.592  33.761  0.00  0.00    +0.000 C 
ATOM     17  C   UNL     1     -43.681 -53.159  35.212  0.00  0.00    +0.000 C 
ATOM     18  C   UNL     1     -44.138 -53.020  32.926  0.00  0.00    +0.000 C 
ATOM     19  C   UNL     1     -44.165 -52.313  34.164  0.00  0.00    +0.000 C 
ENDROOT
BRANCH  19  20
ATOM     20  O   UNL     1     -44.034 -50.956  34.210  0.00  0.00    +0.000 OA
ATOM     21  H   UNL     1     -44.271 -50.546  33.361  0.00  0.00    +0.000 HD
ENDBRANCH  19  20
BRANCH   5  22
ATOM     22  C   UNL     1     -46.737 -61.180  32.893  0.00  0.00    +0.000 C 
ATOM     23  C   UNL     1     -47.631 -62.362  33.171  0.00  0.00    +0.000 C 
BRANCH  22  24
ATOM     24  C   UNL     1     -46.446 -60.945  31.521  0.00  0.00    +0.000 C 
ATOM     25  C   UNL     1     -46.118 -60.668  30.047  0.00  0.00    +0.000 C 
BRANCH  25  26
ATOM     26  C   UNL     1     -45.818 -60.391  28.678  0.00  0.00    +0.000 C 
ATOM     27  C   UNL     1     -46.200 -61.321  27.638  0.00  0.00    +0.000 C 
ATOM     28  C   UNL     1     -46.943 -62.611  27.933  0.00  0.00    +0.000 C 
ATOM     29  C   UNL     1     -45.875 -61.119  26.175  0.00  0.00    +0.000 C 
BRANCH  26  30
ATOM     30  C   UNL     1     -45.146 -59.189  28.329  0.00  0.00    +0.000 C 
ATOM     31  C   UNL     1     -44.374 -57.917  27.961  0.00  0.00    +0.000 C 
ENDBRANCH  26  30
ENDBRANCH  25  26
ENDBRANCH  22  24
ENDBRANCH   5  22
TORSDOF 5
ENDMDL
