MODEL 1
REMARK VINA RESULT:      -6.2      0.000      0.000
REMARK  Name = 25023738_BI-D-1870.pdbqt.pdb
REMARK  4 active torsions:
REMARK  status: ('A' for Active; 'I' for Inactive)
REMARK    1  A    between atoms: N_2  and  C_26
REMARK    2  A    between atoms: N_14  and  C_16
REMARK    3  A    between atoms: C_20  and  O_24
REMARK    4  A    between atoms: C_27  and  C_28
REMARK                            x       y       z     vdW  Elec       q    Type
REMARK                         _______ _______ _______ _____ _____    ______ ____
ROOT
ATOM      1  O   UNL     1     -47.063 -61.404  33.796  0.00  0.00    +0.000 OA
ATOM      2  N   UNL     1     -46.163 -63.317  36.731  0.00  0.00    +0.000 N 
ATOM      3  N   UNL     1     -46.235 -63.577  33.926  0.00  0.00    +0.000 N 
ATOM      4  N   UNL     1     -45.313 -65.539  36.916  0.00  0.00    +0.000 NA
ATOM      5  N   UNL     1     -44.924 -66.877  35.032  0.00  0.00    +0.000 NA
ATOM      6  C   UNL     1     -46.611 -62.250  35.983  0.00  0.00    +0.000 C 
ATOM      7  C   UNL     1     -45.745 -64.524  36.133  0.00  0.00    +0.000 A 
ATOM      8  C   UNL     1     -46.664 -62.352  34.479  0.00  0.00    +0.000 C 
ATOM      9  C   UNL     1     -45.785 -64.637  34.761  0.00  0.00    +0.000 A 
ATOM     10  C   UNL     1     -47.054 -60.966  36.676  0.00  0.00    +0.000 C 
ATOM     11  C   UNL     1     -46.214 -63.862  32.495  0.00  0.00    +0.000 C 
ATOM     12  C   UNL     1     -45.356 -65.853  34.275  0.00  0.00    +0.000 A 
ATOM     13  C   UNL     1     -44.915 -66.688  36.350  0.00  0.00    +0.000 A 
ATOM     14  N   UNL     1     -44.466 -67.752  37.120  0.00  0.00    +0.000 N 
ATOM     15  H   UNL     1     -44.206 -68.537  36.536  0.00  0.00    +0.000 HD
ENDROOT
BRANCH  14  16
ATOM     16  C   UNL     1     -44.323 -67.901  38.504  0.00  0.00    +0.000 A 
ATOM     17  C   UNL     1     -45.350 -68.512  39.235  0.00  0.00    +0.000 A 
ATOM     18  C   UNL     1     -45.243 -68.678  40.615  0.00  0.00    +0.000 A 
ATOM     19  F   UNL     1     -46.248 -69.268  41.279  0.00  0.00    +0.000 F 
ATOM     20  C   UNL     1     -44.114 -68.237  41.291  0.00  0.00    +0.000 A 
ATOM     21  C   UNL     1     -43.092 -67.630  40.574  0.00  0.00    +0.000 A 
ATOM     22  F   UNL     1     -41.996 -67.201  41.216  0.00  0.00    +0.000 F 
ATOM     23  C   UNL     1     -43.191 -67.462  39.196  0.00  0.00    +0.000 A 
BRANCH  20  24
ATOM     24  O   UNL     1     -44.016 -68.402  42.644  0.00  0.00    +0.000 OA
ATOM     25  H   UNL     1     -44.201 -67.541  43.067  0.00  0.00    +0.000 HD
ENDBRANCH  20  24
ENDBRANCH  14  16
BRANCH   2  26
ATOM     26  C   UNL     1     -46.111 -63.224  38.188  0.00  0.00    +0.000 C 
ATOM     27  C   UNL     1     -46.063 -63.125  39.718  0.00  0.00    +0.000 C 
BRANCH  27  28
ATOM     28  C   UNL     1     -46.013 -63.036  41.127  0.00  0.00    +0.000 C 
ATOM     29  C   UNL     1     -44.901 -63.703  41.878  0.00  0.00    +0.000 C 
ATOM     30  C   UNL     1     -47.099 -62.319  41.868  0.00  0.00    +0.000 C 
ENDBRANCH  27  28
ENDBRANCH   2  26
TORSDOF 4
ENDMDL
MODEL 2
REMARK VINA RESULT:      -6.1     10.208     14.362
REMARK  Name = 25023738_BI-D-1870.pdbqt.pdb
REMARK  4 active torsions:
REMARK  status: ('A' for Active; 'I' for Inactive)
REMARK    1  A    between atoms: N_2  and  C_26
REMARK    2  A    between atoms: N_14  and  C_16
REMARK    3  A    between atoms: C_20  and  O_24
REMARK    4  A    between atoms: C_27  and  C_28
REMARK                            x       y       z     vdW  Elec       q    Type
REMARK                         _______ _______ _______ _____ _____    ______ ____
ROOT
ATOM      1  O   UNL     1     -41.585 -59.496  34.324  0.00  0.00    +0.000 OA
ATOM      2  N   UNL     1     -42.845 -56.373  33.001  0.00  0.00    +0.000 N 
ATOM      3  N   UNL     1     -42.670 -57.765  35.445  0.00  0.00    +0.000 N 
ATOM      4  N   UNL     1     -43.960 -54.575  34.104  0.00  0.00    +0.000 NA
ATOM      5  N   UNL     1     -44.416 -54.624  36.403  0.00  0.00    +0.000 NA
ATOM      6  C   UNL     1     -42.238 -57.611  33.011  0.00  0.00    +0.000 C 
ATOM      7  C   UNL     1     -43.375 -55.794  34.172  0.00  0.00    +0.000 A 
ATOM      8  C   UNL     1     -42.126 -58.386  34.300  0.00  0.00    +0.000 C 
ATOM      9  C   UNL     1     -43.283 -56.485  35.360  0.00  0.00    +0.000 A 
ATOM     10  C   UNL     1     -41.681 -58.197  31.718  0.00  0.00    +0.000 C 
ATOM     11  C   UNL     1     -42.655 -58.360  36.778  0.00  0.00    +0.000 C 
ATOM     12  C   UNL     1     -43.829 -55.835  36.444  0.00  0.00    +0.000 A 
ATOM     13  C   UNL     1     -44.465 -54.022  35.217  0.00  0.00    +0.000 A 
ATOM     14  N   UNL     1     -45.072 -52.774  35.188  0.00  0.00    +0.000 N 
ATOM     15  H   UNL     1     -45.396 -52.507  36.109  0.00  0.00    +0.000 HD
ENDROOT
BRANCH  14  16
ATOM     16  C   UNL     1     -45.293 -51.874  34.139  0.00  0.00    +0.000 A 
ATOM     17  C   UNL     1     -46.305 -50.912  34.266  0.00  0.00    +0.000 A 
ATOM     18  C   UNL     1     -46.554 -49.999  33.242  0.00  0.00    +0.000 A 
ATOM     19  F   UNL     1     -47.531 -49.095  33.402  0.00  0.00    +0.000 F 
ATOM     20  C   UNL     1     -45.802 -50.027  32.076  0.00  0.00    +0.000 A 
ATOM     21  C   UNL     1     -44.799 -50.977  31.942  0.00  0.00    +0.000 A 
ATOM     22  F   UNL     1     -44.065 -51.013  30.820  0.00  0.00    +0.000 F 
ATOM     23  C   UNL     1     -44.544 -51.891  32.960  0.00  0.00    +0.000 A 
BRANCH  20  24
ATOM     24  O   UNL     1     -46.052 -49.129  31.076  0.00  0.00    +0.000 OA
ATOM     25  H   UNL     1     -46.401 -48.313  31.484  0.00  0.00    +0.000 HD
ENDBRANCH  20  24
ENDBRANCH  14  16
BRANCH   2  26
ATOM     26  C   UNL     1     -42.958 -55.620  31.755  0.00  0.00    +0.000 C 
ATOM     27  C   UNL     1     -43.072 -54.826  30.447  0.00  0.00    +0.000 C 
BRANCH  27  28
ATOM     28  C   UNL     1     -43.182 -54.098  29.242  0.00  0.00    +0.000 C 
ATOM     29  C   UNL     1     -41.944 -53.673  28.512  0.00  0.00    +0.000 C 
ATOM     30  C   UNL     1     -44.532 -53.710  28.725  0.00  0.00    +0.000 C 
ENDBRANCH  27  28
ENDBRANCH   2  26
TORSDOF 4
ENDMDL
MODEL 3
REMARK VINA RESULT:      -5.8     25.439     27.913
REMARK  Name = 25023738_BI-D-1870.pdbqt.pdb
REMARK  4 active torsions:
REMARK  status: ('A' for Active; 'I' for Inactive)
REMARK    1  A    between atoms: N_2  and  C_26
REMARK    2  A    between atoms: N_14  and  C_16
REMARK    3  A    between atoms: C_20  and  O_24
REMARK    4  A    between atoms: C_27  and  C_28
REMARK                            x       y       z     vdW  Elec       q    Type
REMARK                         _______ _______ _______ _____ _____    ______ ____
ROOT
ATOM      1  O   UNL     1     -28.838 -42.036  53.480  0.00  0.00    +0.000 OA
ATOM      2  N   UNL     1     -30.581 -45.196  53.231  0.00  0.00    +0.000 N 
ATOM      3  N   UNL     1     -27.970 -44.195  53.581  0.00  0.00    +0.000 N 
ATOM      4  N   UNL     1     -29.740 -47.427  53.328  0.00  0.00    +0.000 NA
ATOM      5  N   UNL     1     -27.459 -47.879  53.624  0.00  0.00    +0.000 NA
ATOM      6  C   UNL     1     -30.399 -43.830  53.263  0.00  0.00    +0.000 C 
ATOM      7  C   UNL     1     -29.503 -46.095  53.367  0.00  0.00    +0.000 A 
ATOM      8  C   UNL     1     -29.016 -43.257  53.449  0.00  0.00    +0.000 C 
ATOM      9  C   UNL     1     -28.232 -45.592  53.537  0.00  0.00    +0.000 A 
ATOM     10  C   UNL     1     -31.596 -42.898  53.111  0.00  0.00    +0.000 C 
ATOM     11  C   UNL     1     -26.569 -43.831  53.767  0.00  0.00    +0.000 C 
ATOM     12  C   UNL     1     -27.250 -46.550  53.660  0.00  0.00    +0.000 A 
ATOM     13  C   UNL     1     -28.716 -48.284  53.457  0.00  0.00    +0.000 A 
ATOM     14  N   UNL     1     -28.918 -49.657  53.422  0.00  0.00    +0.000 N 
ATOM     15  H   UNL     1     -28.044 -50.155  53.534  0.00  0.00    +0.000 HD
ENDROOT
BRANCH  14  16
ATOM     16  C   UNL     1     -30.081 -50.419  53.267  0.00  0.00    +0.000 A 
ATOM     17  C   UNL     1     -30.732 -50.912  54.406  0.00  0.00    +0.000 A 
ATOM     18  C   UNL     1     -31.893 -51.675  54.291  0.00  0.00    +0.000 A 
ATOM     19  F   UNL     1     -32.486 -52.128  55.405  0.00  0.00    +0.000 F 
ATOM     20  C   UNL     1     -32.426 -51.962  53.042  0.00  0.00    +0.000 A 
ATOM     21  C   UNL     1     -31.787 -51.478  51.909  0.00  0.00    +0.000 A 
ATOM     22  F   UNL     1     -32.293 -51.748  50.696  0.00  0.00    +0.000 F 
ATOM     23  C   UNL     1     -30.629 -50.715  52.016  0.00  0.00    +0.000 A 
BRANCH  20  24
ATOM     24  O   UNL     1     -33.564 -52.711  52.937  0.00  0.00    +0.000 OA
ATOM     25  H   UNL     1     -33.315 -53.593  52.601  0.00  0.00    +0.000 HD
ENDBRANCH  20  24
ENDBRANCH  14  16
BRANCH   2  26
ATOM     26  C   UNL     1     -31.918 -45.756  53.050  0.00  0.00    +0.000 C 
ATOM     27  C   UNL     1     -33.323 -46.339  52.858  0.00  0.00    +0.000 C 
BRANCH  27  28
ATOM     28  C   UNL     1     -34.616 -46.880  52.682  0.00  0.00    +0.000 C 
ATOM     29  C   UNL     1     -34.854 -48.339  52.929  0.00  0.00    +0.000 C 
ATOM     30  C   UNL     1     -35.732 -46.006  52.199  0.00  0.00    +0.000 C 
ENDBRANCH  27  28
ENDBRANCH   2  26
TORSDOF 4
ENDMDL
MODEL 4
REMARK VINA RESULT:      -5.6     23.702     25.569
REMARK  Name = 25023738_BI-D-1870.pdbqt.pdb
REMARK  4 active torsions:
REMARK  status: ('A' for Active; 'I' for Inactive)
REMARK    1  A    between atoms: N_2  and  C_26
REMARK    2  A    between atoms: N_14  and  C_16
REMARK    3  A    between atoms: C_20  and  O_24
REMARK    4  A    between atoms: C_27  and  C_28
REMARK                            x       y       z     vdW  Elec       q    Type
REMARK                         _______ _______ _______ _____ _____    ______ ____
ROOT
ATOM      1  O   UNL     1     -55.673 -41.616  27.490  0.00  0.00    +0.000 OA
ATOM      2  N   UNL     1     -54.860 -41.659  31.015  0.00  0.00    +0.000 N 
ATOM      3  N   UNL     1     -53.577 -41.684  28.506  0.00  0.00    +0.000 N 
ATOM      4  N   UNL     1     -52.737 -41.728  32.102  0.00  0.00    +0.000 NA
ATOM      5  N   UNL     1     -50.729 -41.782  30.895  0.00  0.00    +0.000 NA
ATOM      6  C   UNL     1     -55.639 -41.630  29.878  0.00  0.00    +0.000 C 
ATOM      7  C   UNL     1     -53.452 -41.701  30.953  0.00  0.00    +0.000 A 
ATOM      8  C   UNL     1     -54.988 -41.643  28.517  0.00  0.00    +0.000 C 
ATOM      9  C   UNL     1     -52.838 -41.713  29.720  0.00  0.00    +0.000 A 
ATOM     10  C   UNL     1     -57.158 -41.587  29.996  0.00  0.00    +0.000 C 
ATOM     11  C   UNL     1     -52.773 -41.701  27.289  0.00  0.00    +0.000 C 
ATOM     12  C   UNL     1     -51.462 -41.754  29.767  0.00  0.00    +0.000 A 
ATOM     13  C   UNL     1     -51.398 -41.768  32.046  0.00  0.00    +0.000 A 
ATOM     14  N   UNL     1     -50.630 -41.796  33.203  0.00  0.00    +0.000 N 
ATOM     15  H   UNL     1     -49.642 -41.825  32.981  0.00  0.00    +0.000 HD
ENDROOT
BRANCH  14  16
ATOM     16  C   UNL     1     -50.989 -41.790  34.555  0.00  0.00    +0.000 A 
ATOM     17  C   UNL     1     -51.341 -42.997  35.174  0.00  0.00    +0.000 A 
ATOM     18  C   UNL     1     -51.704 -43.030  36.519  0.00  0.00    +0.000 A 
ATOM     19  F   UNL     1     -52.035 -44.206  37.074  0.00  0.00    +0.000 F 
ATOM     20  C   UNL     1     -51.724 -41.864  37.272  0.00  0.00    +0.000 A 
ATOM     21  C   UNL     1     -51.377 -40.665  36.666  0.00  0.00    +0.000 A 
ATOM     22  F   UNL     1     -51.391 -39.531  37.383  0.00  0.00    +0.000 F 
ATOM     23  C   UNL     1     -51.012 -40.624  35.324  0.00  0.00    +0.000 A 
BRANCH  20  24
ATOM     24  O   UNL     1     -52.081 -41.904  38.590  0.00  0.00    +0.000 OA
ATOM     25  H   UNL     1     -52.699 -42.650  38.713  0.00  0.00    +0.000 HD
ENDBRANCH  20  24
ENDBRANCH  14  16
BRANCH   2  26
ATOM     26  C   UNL     1     -55.486 -41.650  32.335  0.00  0.00    +0.000 C 
ATOM     27  C   UNL     1     -56.141 -41.635  33.721  0.00  0.00    +0.000 C 
BRANCH  27  28
ATOM     28  C   UNL     1     -56.747 -41.627  34.997  0.00  0.00    +0.000 C 
ATOM     29  C   UNL     1     -58.239 -41.565  35.114  0.00  0.00    +0.000 C 
ATOM     30  C   UNL     1     -55.894 -41.627  36.228  0.00  0.00    +0.000 C 
ENDBRANCH  27  28
ENDBRANCH   2  26
TORSDOF 4
ENDMDL
MODEL 5
REMARK VINA RESULT:      -5.6     31.915     34.188
REMARK  Name = 25023738_BI-D-1870.pdbqt.pdb
REMARK  4 active torsions:
REMARK  status: ('A' for Active; 'I' for Inactive)
REMARK    1  A    between atoms: N_2  and  C_26
REMARK    2  A    between atoms: N_14  and  C_16
REMARK    3  A    between atoms: C_20  and  O_24
REMARK    4  A    between atoms: C_27  and  C_28
REMARK                            x       y       z     vdW  Elec       q    Type
REMARK                         _______ _______ _______ _____ _____    ______ ____
ROOT
ATOM      1  O   UNL     1     -77.760 -51.574  32.051  0.00  0.00    +0.000 OA
ATOM      2  N   UNL     1     -75.142 -49.477  30.696  0.00  0.00    +0.000 N 
ATOM      3  N   UNL     1     -76.064 -50.442  33.178  0.00  0.00    +0.000 N 
ATOM      4  N   UNL     1     -73.388 -48.300  31.805  0.00  0.00    +0.000 NA
ATOM      5  N   UNL     1     -73.128 -48.369  34.133  0.00  0.00    +0.000 NA
ATOM      6  C   UNL     1     -76.247 -50.299  30.712  0.00  0.00    +0.000 C 
ATOM      7  C   UNL     1     -74.469 -49.110  31.880  0.00  0.00    +0.000 A 
ATOM      8  C   UNL     1     -76.771 -50.836  32.021  0.00  0.00    +0.000 C 
ATOM      9  C   UNL     1     -74.930 -49.589  33.085  0.00  0.00    +0.000 A 
ATOM     10  C   UNL     1     -76.943 -50.667  29.405  0.00  0.00    +0.000 C 
ATOM     11  C   UNL     1     -76.420 -50.859  34.530  0.00  0.00    +0.000 C 
ATOM     12  C   UNL     1     -74.205 -49.174  34.181  0.00  0.00    +0.000 A 
ATOM     13  C   UNL     1     -72.745 -47.949  32.929  0.00  0.00    +0.000 A 
ATOM     14  N   UNL     1     -71.632 -47.120  32.894  0.00  0.00    +0.000 N 
ATOM     15  H   UNL     1     -71.272 -46.957  33.826  0.00  0.00    +0.000 HD
ENDROOT
BRANCH  14  16
ATOM     16  C   UNL     1     -70.966 -46.508  31.827  0.00  0.00    +0.000 A 
ATOM     17  C   UNL     1     -69.618 -46.152  31.977  0.00  0.00    +0.000 A 
ATOM     18  C   UNL     1     -68.921 -45.541  30.936  0.00  0.00    +0.000 A 
ATOM     19  F   UNL     1     -67.633 -45.216  31.119  0.00  0.00    +0.000 F 
ATOM     20  C   UNL     1     -69.552 -45.272  29.729  0.00  0.00    +0.000 A 
ATOM     21  C   UNL     1     -70.886 -45.620  29.573  0.00  0.00    +0.000 A 
ATOM     22  F   UNL     1     -71.506 -45.366  28.411  0.00  0.00    +0.000 F 
ATOM     23  C   UNL     1     -71.588 -46.232  30.607  0.00  0.00    +0.000 A 
BRANCH  20  24
ATOM     24  O   UNL     1     -68.862 -44.672  28.713  0.00  0.00    +0.000 OA
ATOM     25  H   UNL     1     -69.335 -44.854  27.878  0.00  0.00    +0.000 HD
ENDBRANCH  20  24
ENDBRANCH  14  16
BRANCH   2  26
ATOM     26  C   UNL     1     -74.633 -48.953  29.431  0.00  0.00    +0.000 C 
ATOM     27  C   UNL     1     -74.096 -48.408  28.102  0.00  0.00    +0.000 C 
BRANCH  27  28
ATOM     28  C   UNL     1     -73.605 -47.902  26.878  0.00  0.00    +0.000 C 
ATOM     29  C   UNL     1     -73.944 -46.504  26.459  0.00  0.00    +0.000 C 
ATOM     30  C   UNL     1     -72.791 -48.781  25.979  0.00  0.00    +0.000 C 
ENDBRANCH  27  28
ENDBRANCH   2  26
TORSDOF 4
ENDMDL
MODEL 6
REMARK VINA RESULT:      -5.5     24.358     26.631
REMARK  Name = 25023738_BI-D-1870.pdbqt.pdb
REMARK  4 active torsions:
REMARK  status: ('A' for Active; 'I' for Inactive)
REMARK    1  A    between atoms: N_2  and  C_26
REMARK    2  A    between atoms: N_14  and  C_16
REMARK    3  A    between atoms: C_20  and  O_24
REMARK    4  A    between atoms: C_27  and  C_28
REMARK                            x       y       z     vdW  Elec       q    Type
REMARK                         _______ _______ _______ _____ _____    ______ ____
ROOT
ATOM      1  O   UNL     1     -70.230 -76.914  22.691  0.00  0.00    +0.000 OA
ATOM      2  N   UNL     1     -67.814 -74.725  24.261  0.00  0.00    +0.000 N 
ATOM      3  N   UNL     1     -70.480 -75.579  24.584  0.00  0.00    +0.000 N 
ATOM      4  N   UNL     1     -68.022 -73.342  26.193  0.00  0.00    +0.000 NA
ATOM      5  N   UNL     1     -70.012 -73.225  27.425  0.00  0.00    +0.000 NA
ATOM      6  C   UNL     1     -68.330 -75.626  23.354  0.00  0.00    +0.000 C 
ATOM      7  C   UNL     1     -68.580 -74.225  25.333  0.00  0.00    +0.000 A 
ATOM      8  C   UNL     1     -69.754 -76.106  23.495  0.00  0.00    +0.000 C 
ATOM      9  C   UNL     1     -69.882 -74.651  25.479  0.00  0.00    +0.000 A 
ATOM     10  C   UNL     1     -67.463 -76.138  22.209  0.00  0.00    +0.000 C 
ATOM     11  C   UNL     1     -71.866 -75.924  24.881  0.00  0.00    +0.000 C 
ATOM     12  C   UNL     1     -70.544 -74.105  26.557  0.00  0.00    +0.000 A 
ATOM     13  C   UNL     1     -68.748 -72.864  27.215  0.00  0.00    +0.000 A 
ATOM     14  N   UNL     1     -68.211 -71.957  28.118  0.00  0.00    +0.000 N 
ATOM     15  H   UNL     1     -68.891 -71.702  28.823  0.00  0.00    +0.000 HD
ENDROOT
BRANCH  14  16
ATOM     16  C   UNL     1     -66.942 -71.374  28.203  0.00  0.00    +0.000 A 
ATOM     17  C   UNL     1     -66.259 -71.398  29.426  0.00  0.00    +0.000 A 
ATOM     18  C   UNL     1     -64.993 -70.827  29.548  0.00  0.00    +0.000 A 
ATOM     19  F   UNL     1     -64.372 -70.871  30.736  0.00  0.00    +0.000 F 
ATOM     20  C   UNL     1     -64.385 -70.221  28.457  0.00  0.00    +0.000 A 
ATOM     21  C   UNL     1     -65.056 -70.192  27.242  0.00  0.00    +0.000 A 
ATOM     22  F   UNL     1     -64.479 -69.611  26.180  0.00  0.00    +0.000 F 
ATOM     23  C   UNL     1     -66.319 -70.761  27.112  0.00  0.00    +0.000 A 
BRANCH  20  24
ATOM     24  O   UNL     1     -63.145 -69.663  28.584  0.00  0.00    +0.000 OA
ATOM     25  H   UNL     1     -62.513 -70.376  28.798  0.00  0.00    +0.000 HD
ENDBRANCH  20  24
ENDBRANCH  14  16
BRANCH   2  26
ATOM     26  C   UNL     1     -66.437 -74.256  24.127  0.00  0.00    +0.000 C 
ATOM     27  C   UNL     1     -64.990 -73.766  23.991  0.00  0.00    +0.000 C 
BRANCH  27  28
ATOM     28  C   UNL     1     -63.659 -73.313  23.862  0.00  0.00    +0.000 C 
ATOM     29  C   UNL     1     -63.152 -72.222  24.755  0.00  0.00    +0.000 C 
ATOM     30  C   UNL     1     -62.775 -73.887  22.798  0.00  0.00    +0.000 C 
ENDBRANCH  27  28
ENDBRANCH   2  26
TORSDOF 4
ENDMDL
MODEL 7
REMARK VINA RESULT:      -5.4     23.720     25.704
REMARK  Name = 25023738_BI-D-1870.pdbqt.pdb
REMARK  4 active torsions:
REMARK  status: ('A' for Active; 'I' for Inactive)
REMARK    1  A    between atoms: N_2  and  C_26
REMARK    2  A    between atoms: N_14  and  C_16
REMARK    3  A    between atoms: C_20  and  O_24
REMARK    4  A    between atoms: C_27  and  C_28
REMARK                            x       y       z     vdW  Elec       q    Type
REMARK                         _______ _______ _______ _____ _____    ______ ____
ROOT
ATOM      1  O   UNL     1     -57.647 -40.967  29.183  0.00  0.00    +0.000 OA
ATOM      2  N   UNL     1     -55.771 -41.256  32.263  0.00  0.00    +0.000 N 
ATOM      3  N   UNL     1     -55.373 -41.380  29.476  0.00  0.00    +0.000 N 
ATOM      4  N   UNL     1     -53.449 -41.676  32.614  0.00  0.00    +0.000 NA
ATOM      5  N   UNL     1     -51.961 -41.983  30.829  0.00  0.00    +0.000 NA
ATOM      6  C   UNL     1     -56.857 -41.071  31.435  0.00  0.00    +0.000 C 
ATOM      7  C   UNL     1     -54.479 -41.503  31.754  0.00  0.00    +0.000 A 
ATOM      8  C   UNL     1     -56.683 -41.131  29.937  0.00  0.00    +0.000 C 
ATOM      9  C   UNL     1     -54.299 -41.561  30.390  0.00  0.00    +0.000 A 
ATOM     10  C   UNL     1     -58.235 -40.808  32.033  0.00  0.00    +0.000 C 
ATOM     11  C   UNL     1     -55.011 -41.472  28.066  0.00  0.00    +0.000 C 
ATOM     12  C   UNL     1     -53.002 -41.807  29.995  0.00  0.00    +0.000 A 
ATOM     13  C   UNL     1     -52.219 -41.912  32.133  0.00  0.00    +0.000 A 
ATOM     14  N   UNL     1     -51.136 -42.094  32.983  0.00  0.00    +0.000 N 
ATOM     15  H   UNL     1     -50.287 -42.260  32.457  0.00  0.00    +0.000 HD
ENDROOT
BRANCH  14  16
ATOM     16  C   UNL     1     -51.041 -42.084  34.379  0.00  0.00    +0.000 A 
ATOM     17  C   UNL     1     -50.226 -41.127  35.000  0.00  0.00    +0.000 A 
ATOM     18  C   UNL     1     -50.107 -41.086  36.389  0.00  0.00    +0.000 A 
ATOM     19  F   UNL     1     -49.317 -40.155  36.945  0.00  0.00    +0.000 F 
ATOM     20  C   UNL     1     -50.794 -41.995  37.182  0.00  0.00    +0.000 A 
ATOM     21  C   UNL     1     -51.601 -42.945  36.574  0.00  0.00    +0.000 A 
ATOM     22  F   UNL     1     -52.271 -43.828  37.330  0.00  0.00    +0.000 F 
ATOM     23  C   UNL     1     -51.727 -42.992  35.189  0.00  0.00    +0.000 A 
BRANCH  20  24
ATOM     24  O   UNL     1     -50.671 -41.948  38.542  0.00  0.00    +0.000 OA
ATOM     25  H   UNL     1     -50.825 -41.027  38.828  0.00  0.00    +0.000 HD
ENDBRANCH  20  24
ENDBRANCH  14  16
BRANCH   2  26
ATOM     26  C   UNL     1     -55.935 -41.201  33.714  0.00  0.00    +0.000 C 
ATOM     27  C   UNL     1     -56.103 -41.148  35.237  0.00  0.00    +0.000 C 
BRANCH  27  28
ATOM     28  C   UNL     1     -56.261 -41.094  36.640  0.00  0.00    +0.000 C 
ATOM     29  C   UNL     1     -57.305 -40.201  37.239  0.00  0.00    +0.000 C 
ATOM     30  C   UNL     1     -55.352 -41.890  37.524  0.00  0.00    +0.000 C 
ENDBRANCH  27  28
ENDBRANCH   2  26
TORSDOF 4
ENDMDL
MODEL 8
REMARK VINA RESULT:      -5.3     24.941     28.037
REMARK  Name = 25023738_BI-D-1870.pdbqt.pdb
REMARK  4 active torsions:
REMARK  status: ('A' for Active; 'I' for Inactive)
REMARK    1  A    between atoms: N_2  and  C_26
REMARK    2  A    between atoms: N_14  and  C_16
REMARK    3  A    between atoms: C_20  and  O_24
REMARK    4  A    between atoms: C_27  and  C_28
REMARK                            x       y       z     vdW  Elec       q    Type
REMARK                         _______ _______ _______ _____ _____    ______ ____
ROOT
ATOM      1  O   UNL     1     -26.390 -51.038  60.088  0.00  0.00    +0.000 OA
ATOM      2  N   UNL     1     -28.161 -50.883  56.937  0.00  0.00    +0.000 N 
ATOM      3  N   UNL     1     -28.420 -52.020  59.502  0.00  0.00    +0.000 N 
ATOM      4  N   UNL     1     -30.235 -51.869  56.290  0.00  0.00    +0.000 NA
ATOM      5  N   UNL     1     -31.495 -53.185  57.764  0.00  0.00    +0.000 NA
ATOM      6  C   UNL     1     -27.168 -50.648  57.863  0.00  0.00    +0.000 C 
ATOM      7  C   UNL     1     -29.291 -51.671  57.239  0.00  0.00    +0.000 A 
ATOM      8  C   UNL     1     -27.272 -51.240  59.248  0.00  0.00    +0.000 C 
ATOM      9  C   UNL     1     -29.404 -52.221  58.496  0.00  0.00    +0.000 A 
ATOM     10  C   UNL     1     -25.965 -49.789  57.490  0.00  0.00    +0.000 C 
ATOM     11  C   UNL     1     -28.694 -52.672  60.779  0.00  0.00    +0.000 C 
ATOM     12  C   UNL     1     -30.542 -52.973  58.691  0.00  0.00    +0.000 A 
ATOM     13  C   UNL     1     -31.311 -52.618  56.574  0.00  0.00    +0.000 A 
ATOM     14  N   UNL     1     -32.301 -52.844  55.628  0.00  0.00    +0.000 N 
ATOM     15  H   UNL     1     -33.037 -53.427  56.006  0.00  0.00    +0.000 HD
ENDROOT
BRANCH  14  16
ATOM     16  C   UNL     1     -32.434 -52.412  54.303  0.00  0.00    +0.000 A 
ATOM     17  C   UNL     1     -33.169 -51.249  54.035  0.00  0.00    +0.000 A 
ATOM     18  C   UNL     1     -33.322 -50.788  52.728  0.00  0.00    +0.000 A 
ATOM     19  F   UNL     1     -34.032 -49.671  52.513  0.00  0.00    +0.000 F 
ATOM     20  C   UNL     1     -32.750 -51.476  51.667  0.00  0.00    +0.000 A 
ATOM     21  C   UNL     1     -32.023 -52.629  51.925  0.00  0.00    +0.000 A 
ATOM     22  F   UNL     1     -31.464 -53.302  50.907  0.00  0.00    +0.000 F 
ATOM     23  C   UNL     1     -31.863 -53.095  53.226  0.00  0.00    +0.000 A 
BRANCH  20  24
ATOM     24  O   UNL     1     -32.906 -51.018  50.388  0.00  0.00    +0.000 OA
ATOM     25  H   UNL     1     -33.851 -50.814  50.254  0.00  0.00    +0.000 HD
ENDBRANCH  20  24
ENDBRANCH  14  16
BRANCH   2  26
ATOM     26  C   UNL     1     -28.064 -50.313  55.595  0.00  0.00    +0.000 C 
ATOM     27  C   UNL     1     -27.959 -49.712  54.189  0.00  0.00    +0.000 C 
BRANCH  27  28
ATOM     28  C   UNL     1     -27.865 -49.162  52.891  0.00  0.00    +0.000 C 
ATOM     29  C   UNL     1     -26.757 -48.209  52.563  0.00  0.00    +0.000 C 
ATOM     30  C   UNL     1     -28.903 -49.493  51.863  0.00  0.00    +0.000 C 
ENDBRANCH  27  28
ENDBRANCH   2  26
TORSDOF 4
ENDMDL
MODEL 9
REMARK VINA RESULT:      -5.3     27.925     30.662
REMARK  Name = 25023738_BI-D-1870.pdbqt.pdb
REMARK  4 active torsions:
REMARK  status: ('A' for Active; 'I' for Inactive)
REMARK    1  A    between atoms: N_2  and  C_26
REMARK    2  A    between atoms: N_14  and  C_16
REMARK    3  A    between atoms: C_20  and  O_24
REMARK    4  A    between atoms: C_27  and  C_28
REMARK                            x       y       z     vdW  Elec       q    Type
REMARK                         _______ _______ _______ _____ _____    ______ ____
ROOT
ATOM      1  O   UNL     1     -74.006 -55.843  53.350  0.00  0.00    +0.000 OA
ATOM      2  N   UNL     1     -73.165 -58.454  50.991  0.00  0.00    +0.000 N 
ATOM      3  N   UNL     1     -73.917 -55.738  51.024  0.00  0.00    +0.000 N 
ATOM      4  N   UNL     1     -73.060 -58.397  48.609  0.00  0.00    +0.000 NA
ATOM      5  N   UNL     1     -73.537 -56.450  47.393  0.00  0.00    +0.000 NA
ATOM      6  C   UNL     1     -73.394 -57.850  52.209  0.00  0.00    +0.000 C 
ATOM      7  C   UNL     1     -73.298 -57.753  49.775  0.00  0.00    +0.000 A 
ATOM      8  C   UNL     1     -73.798 -56.397  52.266  0.00  0.00    +0.000 C 
ATOM      9  C   UNL     1     -73.666 -56.427  49.806  0.00  0.00    +0.000 A 
ATOM     10  C   UNL     1     -73.240 -58.650  53.498  0.00  0.00    +0.000 C 
ATOM     11  C   UNL     1     -74.296 -54.337  50.880  0.00  0.00    +0.000 C 
ATOM     12  C   UNL     1     -73.767 -55.832  48.567  0.00  0.00    +0.000 A 
ATOM     13  C   UNL     1     -73.185 -57.733  47.450  0.00  0.00    +0.000 A 
ATOM     14  N   UNL     1     -72.951 -58.358  46.233  0.00  0.00    +0.000 N 
ATOM     15  H   UNL     1     -73.089 -57.716  45.463  0.00  0.00    +0.000 HD
ENDROOT
BRANCH  14  16
ATOM     16  C   UNL     1     -72.570 -59.668  45.921  0.00  0.00    +0.000 A 
ATOM     17  C   UNL     1     -71.208 -59.972  45.791  0.00  0.00    +0.000 A 
ATOM     18  C   UNL     1     -70.791 -61.266  45.483  0.00  0.00    +0.000 A 
ATOM     19  F   UNL     1     -69.479 -61.515  45.367  0.00  0.00    +0.000 F 
ATOM     20  C   UNL     1     -71.721 -62.279  45.296  0.00  0.00    +0.000 A 
ATOM     21  C   UNL     1     -73.072 -61.987  45.422  0.00  0.00    +0.000 A 
ATOM     22  F   UNL     1     -73.980 -62.958  45.245  0.00  0.00    +0.000 F 
ATOM     23  C   UNL     1     -73.496 -60.698  45.732  0.00  0.00    +0.000 A 
BRANCH  20  24
ATOM     24  O   UNL     1     -71.306 -63.545  44.993  0.00  0.00    +0.000 OA
ATOM     25  H   UNL     1     -70.551 -63.762  45.574  0.00  0.00    +0.000 HD
ENDBRANCH  20  24
ENDBRANCH  14  16
BRANCH   2  26
ATOM     26  C   UNL     1     -72.776 -59.861  50.930  0.00  0.00    +0.000 C 
ATOM     27  C   UNL     1     -72.364 -61.336  50.863  0.00  0.00    +0.000 C 
BRANCH  27  28
ATOM     28  C   UNL     1     -71.987 -62.697  50.804  0.00  0.00    +0.000 C 
ATOM     29  C   UNL     1     -72.792 -63.659  49.985  0.00  0.00    +0.000 C 
ATOM     30  C   UNL     1     -70.817 -63.181  51.603  0.00  0.00    +0.000 C 
ENDBRANCH  27  28
ENDBRANCH   2  26
TORSDOF 4
ENDMDL
