MODEL 1
REMARK VINA RESULT:      -5.0      0.000      0.000
REMARK  Name = 26879_Levamisole.pdbqt.pdb
REMARK  1 active torsions:
REMARK  status: ('A' for Active; 'I' for Inactive)
REMARK    1  A    between atoms: C_5  and  C_9
REMARK                            x       y       z     vdW  Elec       q    Type
REMARK                         _______ _______ _______ _____ _____    ______ ____
ROOT
ATOM      1  S   UNL     1     -40.835 -53.543  34.910  0.00  0.00    +0.000 S 
ATOM      2  N   UNL     1     -43.483 -54.357  35.413  0.00  0.00    +0.000 NA
ATOM      3  N   UNL     1     -43.080 -52.073  34.662  0.00  0.00    +0.000 NA
ATOM      4  C   UNL     1     -44.543 -53.762  34.660  0.00  0.00    +0.000 C 
ATOM      5  C   UNL     1     -44.353 -52.410  34.332  0.00  0.00    +0.000 C 
ATOM      6  C   UNL     1     -42.715 -55.376  34.745  0.00  0.00    +0.000 C 
ATOM      7  C   UNL     1     -42.549 -53.193  35.239  0.00  0.00    +0.000 C 
ATOM      8  C   UNL     1     -41.266 -55.113  34.474  0.00  0.00    +0.000 C 
ENDROOT
BRANCH   5   9
ATOM      9  C   UNL     1     -45.290 -51.501  33.690  0.00  0.00    +0.000 A 
ATOM     10  C   UNL     1     -45.765 -50.360  34.343  0.00  0.00    +0.000 A 
ATOM     11  C   UNL     1     -45.740 -51.762  32.392  0.00  0.00    +0.000 A 
ATOM     12  C   UNL     1     -46.665 -49.499  33.717  0.00  0.00    +0.000 A 
ATOM     13  C   UNL     1     -46.640 -50.905  31.761  0.00  0.00    +0.000 A 
ATOM     14  C   UNL     1     -47.102 -49.773  32.425  0.00  0.00    +0.000 A 
ENDBRANCH   5   9
TORSDOF 1
ENDMDL
MODEL 2
REMARK VINA RESULT:      -4.9     12.040     13.920
REMARK  Name = 26879_Levamisole.pdbqt.pdb
REMARK  1 active torsions:
REMARK  status: ('A' for Active; 'I' for Inactive)
REMARK    1  A    between atoms: C_5  and  C_9
REMARK                            x       y       z     vdW  Elec       q    Type
REMARK                         _______ _______ _______ _____ _____    ______ ____
ROOT
ATOM      1  S   UNL     1     -49.448 -60.467  43.840  0.00  0.00    +0.000 S 
ATOM      2  N   UNL     1     -47.472 -62.177  44.887  0.00  0.00    +0.000 NA
ATOM      3  N   UNL     1     -47.585 -61.855  42.473  0.00  0.00    +0.000 NA
ATOM      4  C   UNL     1     -46.229 -62.303  44.192  0.00  0.00    +0.000 C 
ATOM      5  C   UNL     1     -46.321 -62.232  42.792  0.00  0.00    +0.000 C 
ATOM      6  C   UNL     1     -47.645 -60.989  45.683  0.00  0.00    +0.000 C 
ATOM      7  C   UNL     1     -48.248 -61.770  43.666  0.00  0.00    +0.000 C 
ATOM      8  C   UNL     1     -48.713 -60.016  45.288  0.00  0.00    +0.000 C 
ENDROOT
BRANCH   5   9
ATOM      9  C   UNL     1     -45.269 -62.446  41.811  0.00  0.00    +0.000 A 
ATOM     10  C   UNL     1     -44.731 -61.387  41.074  0.00  0.00    +0.000 A 
ATOM     11  C   UNL     1     -44.776 -63.734  41.582  0.00  0.00    +0.000 A 
ATOM     12  C   UNL     1     -43.725 -61.606  40.134  0.00  0.00    +0.000 A 
ATOM     13  C   UNL     1     -43.770 -63.960  40.644  0.00  0.00    +0.000 A 
ATOM     14  C   UNL     1     -43.245 -62.894  39.921  0.00  0.00    +0.000 A 
ENDBRANCH   5   9
TORSDOF 1
ENDMDL
MODEL 3
REMARK VINA RESULT:      -4.6     13.180     14.721
REMARK  Name = 26879_Levamisole.pdbqt.pdb
REMARK  1 active torsions:
REMARK  status: ('A' for Active; 'I' for Inactive)
REMARK    1  A    between atoms: C_5  and  C_9
REMARK                            x       y       z     vdW  Elec       q    Type
REMARK                         _______ _______ _______ _____ _____    ______ ____
ROOT
ATOM      1  S   UNL     1     -41.958 -67.383  38.828  0.00  0.00    +0.000 S 
ATOM      2  N   UNL     1     -42.145 -66.727  41.559  0.00  0.00    +0.000 NA
ATOM      3  N   UNL     1     -43.193 -65.253  39.924  0.00  0.00    +0.000 NA
ATOM      4  C   UNL     1     -43.298 -66.017  42.021  0.00  0.00    +0.000 C 
ATOM      5  C   UNL     1     -43.825 -65.084  41.113  0.00  0.00    +0.000 C 
ATOM      6  C   UNL     1     -42.312 -68.138  41.323  0.00  0.00    +0.000 C 
ATOM      7  C   UNL     1     -42.259 -66.226  40.147  0.00  0.00    +0.000 C 
ATOM      8  C   UNL     1     -42.168 -68.647  39.923  0.00  0.00    +0.000 C 
ENDROOT
BRANCH   5   9
ATOM      9  C   UNL     1     -44.902 -64.130  41.329  0.00  0.00    +0.000 A 
ATOM     10  C   UNL     1     -45.755 -63.744  40.290  0.00  0.00    +0.000 A 
ATOM     11  C   UNL     1     -45.101 -63.574  42.596  0.00  0.00    +0.000 A 
ATOM     12  C   UNL     1     -46.781 -62.827  40.510  0.00  0.00    +0.000 A 
ATOM     13  C   UNL     1     -46.125 -62.656  42.821  0.00  0.00    +0.000 A 
ATOM     14  C   UNL     1     -46.965 -62.283  41.778  0.00  0.00    +0.000 A 
ENDBRANCH   5   9
TORSDOF 1
ENDMDL
MODEL 4
REMARK VINA RESULT:      -4.5     15.294     16.677
REMARK  Name = 26879_Levamisole.pdbqt.pdb
REMARK  1 active torsions:
REMARK  status: ('A' for Active; 'I' for Inactive)
REMARK    1  A    between atoms: C_5  and  C_9
REMARK                            x       y       z     vdW  Elec       q    Type
REMARK                         _______ _______ _______ _____ _____    ______ ____
ROOT
ATOM      1  S   UNL     1     -44.632 -65.402  25.596  0.00  0.00    +0.000 S 
ATOM      2  N   UNL     1     -45.032 -68.096  26.308  0.00  0.00    +0.000 NA
ATOM      3  N   UNL     1     -45.551 -66.361  27.940  0.00  0.00    +0.000 NA
ATOM      4  C   UNL     1     -46.071 -68.417  27.237  0.00  0.00    +0.000 C 
ATOM      5  C   UNL     1     -46.283 -67.462  28.245  0.00  0.00    +0.000 C 
ATOM      6  C   UNL     1     -45.444 -67.820  24.955  0.00  0.00    +0.000 C 
ATOM      7  C   UNL     1     -44.864 -66.687  26.804  0.00  0.00    +0.000 C 
ATOM      8  C   UNL     1     -45.226 -66.443  24.410  0.00  0.00    +0.000 C 
ENDROOT
BRANCH   5   9
ATOM      9  C   UNL     1     -47.168 -67.553  29.396  0.00  0.00    +0.000 A 
ATOM     10  C   UNL     1     -47.491 -68.784  29.974  0.00  0.00    +0.000 A 
ATOM     11  C   UNL     1     -47.722 -66.393  29.946  0.00  0.00    +0.000 A 
ATOM     12  C   UNL     1     -48.343 -68.857  31.074  0.00  0.00    +0.000 A 
ATOM     13  C   UNL     1     -48.574 -66.460  31.047  0.00  0.00    +0.000 A 
ATOM     14  C   UNL     1     -48.884 -67.693  31.610  0.00  0.00    +0.000 A 
ENDBRANCH   5   9
TORSDOF 1
ENDMDL
MODEL 5
REMARK VINA RESULT:      -4.4     29.019     30.657
REMARK  Name = 26879_Levamisole.pdbqt.pdb
REMARK  1 active torsions:
REMARK  status: ('A' for Active; 'I' for Inactive)
REMARK    1  A    between atoms: C_5  and  C_9
REMARK                            x       y       z     vdW  Elec       q    Type
REMARK                         _______ _______ _______ _____ _____    ______ ____
ROOT
ATOM      1  S   UNL     1     -65.886 -39.521  56.697  0.00  0.00    +0.000 S 
ATOM      2  N   UNL     1     -63.797 -41.258  55.960  0.00  0.00    +0.000 NA
ATOM      3  N   UNL     1     -65.773 -41.130  54.539  0.00  0.00    +0.000 NA
ATOM      4  C   UNL     1     -63.573 -41.518  54.572  0.00  0.00    +0.000 C 
ATOM      5  C   UNL     1     -64.732 -41.558  53.781  0.00  0.00    +0.000 C 
ATOM      6  C   UNL     1     -63.310 -39.999  56.464  0.00  0.00    +0.000 C 
ATOM      7  C   UNL     1     -65.247 -40.905  55.780  0.00  0.00    +0.000 C 
ATOM      8  C   UNL     1     -64.305 -38.998  56.962  0.00  0.00    +0.000 C 
ENDROOT
BRANCH   5   9
ATOM      9  C   UNL     1     -64.849 -41.918  52.376  0.00  0.00    +0.000 A 
ATOM     10  C   UNL     1     -64.244 -41.153  51.373  0.00  0.00    +0.000 A 
ATOM     11  C   UNL     1     -65.581 -43.048  52.000  0.00  0.00    +0.000 A 
ATOM     12  C   UNL     1     -64.366 -41.508  50.031  0.00  0.00    +0.000 A 
ATOM     13  C   UNL     1     -65.707 -43.407  50.660  0.00  0.00    +0.000 A 
ATOM     14  C   UNL     1     -65.098 -42.636  49.675  0.00  0.00    +0.000 A 
ENDBRANCH   5   9
TORSDOF 1
ENDMDL
MODEL 6
REMARK VINA RESULT:      -4.2     29.414     30.258
REMARK  Name = 26879_Levamisole.pdbqt.pdb
REMARK  1 active torsions:
REMARK  status: ('A' for Active; 'I' for Inactive)
REMARK    1  A    between atoms: C_5  and  C_9
REMARK                            x       y       z     vdW  Elec       q    Type
REMARK                         _______ _______ _______ _____ _____    ______ ____
ROOT
ATOM      1  S   UNL     1     -69.465 -73.796  27.839  0.00  0.00    +0.000 S 
ATOM      2  N   UNL     1     -67.717 -72.456  26.086  0.00  0.00    +0.000 NA
ATOM      3  N   UNL     1     -67.782 -71.776  28.426  0.00  0.00    +0.000 NA
ATOM      4  C   UNL     1     -66.496 -71.921  26.604  0.00  0.00    +0.000 C 
ATOM      5  C   UNL     1     -66.575 -71.424  27.916  0.00  0.00    +0.000 C 
ATOM      6  C   UNL     1     -67.746 -73.877  25.850  0.00  0.00    +0.000 C 
ATOM      7  C   UNL     1     -68.433 -72.413  27.407  0.00  0.00    +0.000 C 
ATOM      8  C   UNL     1     -68.685 -74.715  26.661  0.00  0.00    +0.000 C 
ENDROOT
BRANCH   5   9
ATOM      9  C   UNL     1     -65.553 -70.714  28.669  0.00  0.00    +0.000 A 
ATOM     10  C   UNL     1     -65.501 -70.773  30.066  0.00  0.00    +0.000 A 
ATOM     11  C   UNL     1     -64.597 -69.945  28.000  0.00  0.00    +0.000 A 
ATOM     12  C   UNL     1     -64.519 -70.085  30.776  0.00  0.00    +0.000 A 
ATOM     13  C   UNL     1     -63.612 -69.255  28.705  0.00  0.00    +0.000 A 
ATOM     14  C   UNL     1     -63.574 -69.326  30.093  0.00  0.00    +0.000 A 
ENDBRANCH   5   9
TORSDOF 1
ENDMDL
MODEL 7
REMARK VINA RESULT:      -4.0      3.523      4.214
REMARK  Name = 26879_Levamisole.pdbqt.pdb
REMARK  1 active torsions:
REMARK  status: ('A' for Active; 'I' for Inactive)
REMARK    1  A    between atoms: C_5  and  C_9
REMARK                            x       y       z     vdW  Elec       q    Type
REMARK                         _______ _______ _______ _____ _____    ______ ____
ROOT
ATOM      1  S   UNL     1     -43.837 -53.605  27.957  0.00  0.00    +0.000 S 
ATOM      2  N   UNL     1     -43.572 -53.989  30.733  0.00  0.00    +0.000 NA
ATOM      3  N   UNL     1     -44.376 -51.837  29.918  0.00  0.00    +0.000 NA
ATOM      4  C   UNL     1     -44.455 -53.289  31.614  0.00  0.00    +0.000 C 
ATOM      5  C   UNL     1     -44.820 -52.001  31.190  0.00  0.00    +0.000 C 
ATOM      6  C   UNL     1     -44.113 -55.148  30.070  0.00  0.00    +0.000 C 
ATOM      7  C   UNL     1     -43.700 -52.987  29.620  0.00  0.00    +0.000 C 
ATOM      8  C   UNL     1     -44.246 -55.117  28.579  0.00  0.00    +0.000 C 
ENDROOT
BRANCH   5   9
ATOM      9  C   UNL     1     -45.594 -51.003  31.912  0.00  0.00    +0.000 A 
ATOM     10  C   UNL     1     -46.127 -49.883  31.266  0.00  0.00    +0.000 A 
ATOM     11  C   UNL     1     -45.815 -51.147  33.285  0.00  0.00    +0.000 A 
ATOM     12  C   UNL     1     -46.864 -48.933  31.970  0.00  0.00    +0.000 A 
ATOM     13  C   UNL     1     -46.551 -50.200  33.994  0.00  0.00    +0.000 A 
ATOM     14  C   UNL     1     -47.076 -49.093  33.336  0.00  0.00    +0.000 A 
ENDBRANCH   5   9
TORSDOF 1
ENDMDL
MODEL 8
REMARK VINA RESULT:      -3.9     36.672     38.640
REMARK  Name = 26879_Levamisole.pdbqt.pdb
REMARK  1 active torsions:
REMARK  status: ('A' for Active; 'I' for Inactive)
REMARK    1  A    between atoms: C_5  and  C_9
REMARK                            x       y       z     vdW  Elec       q    Type
REMARK                         _______ _______ _______ _____ _____    ______ ____
ROOT
ATOM      1  S   UNL     1     -52.290 -76.969  66.469  0.00  0.00    +0.000 S 
ATOM      2  N   UNL     1     -53.747 -75.551  64.521  0.00  0.00    +0.000 NA
ATOM      3  N   UNL     1     -51.595 -76.516  63.905  0.00  0.00    +0.000 NA
ATOM      4  C   UNL     1     -53.614 -75.929  63.148  0.00  0.00    +0.000 C 
ATOM      5  C   UNL     1     -52.335 -76.375  62.776  0.00  0.00    +0.000 C 
ATOM      6  C   UNL     1     -54.592 -76.385  65.337  0.00  0.00    +0.000 C 
ATOM      7  C   UNL     1     -52.405 -76.096  64.923  0.00  0.00    +0.000 C 
ATOM      8  C   UNL     1     -53.967 -77.147  66.464  0.00  0.00    +0.000 C 
ENDROOT
BRANCH   5   9
ATOM      9  C   UNL     1     -51.852 -76.707  61.445  0.00  0.00    +0.000 A 
ATOM     10  C   UNL     1     -52.168 -75.918  60.335  0.00  0.00    +0.000 A 
ATOM     11  C   UNL     1     -51.057 -77.841  61.251  0.00  0.00    +0.000 A 
ATOM     12  C   UNL     1     -51.701 -76.250  59.064  0.00  0.00    +0.000 A 
ATOM     13  C   UNL     1     -50.588 -78.178  59.983  0.00  0.00    +0.000 A 
ATOM     14  C   UNL     1     -50.910 -77.381  58.890  0.00  0.00    +0.000 A 
ENDBRANCH   5   9
TORSDOF 1
ENDMDL
MODEL 9
REMARK VINA RESULT:      -3.9     38.176     39.538
REMARK  Name = 26879_Levamisole.pdbqt.pdb
REMARK  1 active torsions:
REMARK  status: ('A' for Active; 'I' for Inactive)
REMARK    1  A    between atoms: C_5  and  C_9
REMARK                            x       y       z     vdW  Elec       q    Type
REMARK                         _______ _______ _______ _____ _____    ______ ____
ROOT
ATOM      1  S   UNL     1     -43.314 -75.664  68.841  0.00  0.00    +0.000 S 
ATOM      2  N   UNL     1     -45.301 -74.148  67.545  0.00  0.00    +0.000 NA
ATOM      3  N   UNL     1     -44.031 -75.773  66.246  0.00  0.00    +0.000 NA
ATOM      4  C   UNL     1     -45.995 -74.724  66.436  0.00  0.00    +0.000 C 
ATOM      5  C   UNL     1     -45.220 -75.569  65.625  0.00  0.00    +0.000 C 
ATOM      6  C   UNL     1     -45.712 -74.583  68.856  0.00  0.00    +0.000 C 
ATOM      7  C   UNL     1     -44.078 -75.004  67.375  0.00  0.00    +0.000 C 
ATOM      8  C   UNL     1     -44.731 -75.341  69.695  0.00  0.00    +0.000 C 
ENDROOT
BRANCH   5   9
ATOM      9  C   UNL     1     -45.596 -76.200  64.368  0.00  0.00    +0.000 A 
ATOM     10  C   UNL     1     -44.648 -76.479  63.379  0.00  0.00    +0.000 A 
ATOM     11  C   UNL     1     -46.930 -76.537  64.126  0.00  0.00    +0.000 A 
ATOM     12  C   UNL     1     -45.022 -77.081  62.179  0.00  0.00    +0.000 A 
ATOM     13  C   UNL     1     -47.310 -77.139  62.927  0.00  0.00    +0.000 A 
ATOM     14  C   UNL     1     -46.354 -77.411  61.954  0.00  0.00    +0.000 A 
ENDBRANCH   5   9
TORSDOF 1
ENDMDL
