MODEL 1
REMARK VINA RESULT:      -6.0      0.000      0.000
REMARK  Name = 27924_Phorbol.pdbqt.pdb
REMARK  26 active torsions:
REMARK  status: ('A' for Active; 'I' for Inactive)
REMARK    1  A    between atoms: O_1  and  C_10
REMARK    2  A    between atoms: O_1  and  C_26
REMARK    3  A    between atoms: O_2  and  C_13
REMARK    4  A    between atoms: O_2  and  C_28
REMARK    5  A    between atoms: O_3  and  C_14
REMARK    6  A    between atoms: O_4  and  C_20
REMARK    7  A    between atoms: O_7  and  C_29
REMARK    8  A    between atoms: C_11  and  C_16
REMARK    9  A    between atoms: C_11  and  C_17
REMARK   10  A    between atoms: C_15  and  C_21
REMARK   11  A    between atoms: C_22  and  C_29
REMARK   12  A    between atoms: C_26  and  C_30
REMARK   13  A    between atoms: C_27  and  C_31
REMARK   14  A    between atoms: C_28  and  C_32
REMARK   15  A    between atoms: C_32  and  C_33
REMARK   16  A    between atoms: C_33  and  C_34
REMARK   17  A    between atoms: C_34  and  C_35
REMARK   18  A    between atoms: C_35  and  C_36
REMARK   19  A    between atoms: C_36  and  C_37
REMARK   20  A    between atoms: C_37  and  C_38
REMARK   21  A    between atoms: C_38  and  C_39
REMARK   22  A    between atoms: C_39  and  C_40
REMARK   23  A    between atoms: C_40  and  C_41
REMARK   24  A    between atoms: C_41  and  C_42
REMARK   25  A    between atoms: C_42  and  C_43
REMARK   26  A    between atoms: C_43  and  C_44
REMARK                            x       y       z     vdW  Elec       q    Type
REMARK                         _______ _______ _______ _____ _____    ______ ____
ROOT
ATOM      1  O   UNL     1     -43.598 -69.924  24.949  0.00  0.00    +0.000 OA
ATOM      2  C   UNL     1     -46.982 -67.002  30.460  0.00  0.00    +0.000 C 
ATOM      3  C   UNL     1     -46.669 -67.466  31.871  0.00  0.00    +0.000 C 
ATOM      4  C   UNL     1     -48.013 -67.845  31.184  0.00  0.00    +0.000 C 
ATOM      5  C   UNL     1     -46.066 -67.335  29.321  0.00  0.00    +0.000 C 
ATOM      6  C   UNL     1     -45.486 -68.436  32.044  0.00  0.00    +0.000 C 
ATOM      7  C   UNL     1     -44.992 -68.499  29.531  0.00  0.00    +0.000 C 
ATOM      8  C   UNL     1     -44.381 -68.196  30.956  0.00  0.00    +0.000 C 
ATOM      9  C   UNL     1     -49.284 -67.098  31.551  0.00  0.00    +0.000 C 
ATOM     10  C   UNL     1     -48.316 -69.255  30.740  0.00  0.00    +0.000 C 
ATOM     11  C   UNL     1     -44.007 -68.529  28.255  0.00  0.00    +0.000 C 
ATOM     12  C   UNL     1     -46.772 -67.406  27.980  0.00  0.00    +0.000 C 
ATOM     13  C   UNL     1     -44.699 -68.936  26.880  0.00  0.00    +0.000 C 
ATOM     14  C   UNL     1     -43.108 -68.964  31.314  0.00  0.00    +0.000 C 
ATOM     15  C   UNL     1     -46.125 -66.846  26.935  0.00  0.00    +0.000 C 
ATOM     16  C   UNL     1     -45.321 -67.787  26.055  0.00  0.00    +0.000 C 
ATOM     17  C   UNL     1     -42.818 -69.481  28.242  0.00  0.00    +0.000 C 
ATOM     18  C   UNL     1     -43.577 -69.625  26.134  0.00  0.00    +0.000 C 
ATOM     19  C   UNL     1     -42.520 -70.041  27.062  0.00  0.00    +0.000 C 
ATOM     20  C   UNL     1     -41.404 -70.927  26.669  0.00  0.00    +0.000 C 
ENDROOT
BRANCH   7  21
ATOM     21  O   UNL     1     -45.607 -69.790  29.628  0.00  0.00    +0.000 OA
ATOM     22  H   UNL     1     -45.532 -70.227  28.751  0.00  0.00    +0.000 HD
ENDBRANCH   7  21
BRANCH  13  23
ATOM     23  O   UNL     1     -45.675 -69.990  27.068  0.00  0.00    +0.000 OA
ATOM     24  H   UNL     1     -45.528 -70.337  27.973  0.00  0.00    +0.000 HD
ENDBRANCH  13  23
BRANCH   3  25
ATOM     25  O   UNL     1     -46.641 -66.323  32.765  0.00  0.00    +0.000 OA
BRANCH  25  27
ATOM     26  O   UNL     1     -44.983 -64.923  32.188  0.00  0.00    +0.000 OA
ATOM     27  C   UNL     1     -46.175 -65.092  32.437  0.00  0.00    +0.000 C 
ATOM     28  C   UNL     1     -47.152 -63.962  32.305  0.00  0.00    +0.000 C 
ENDBRANCH  25  27
ENDBRANCH   3  25
BRANCH  15  29
ATOM     29  C   UNL     1     -45.675 -65.409  26.911  0.00  0.00    +0.000 C 
BRANCH  29  30
ATOM     30  O   UNL     1     -44.677 -65.273  25.913  0.00  0.00    +0.000 OA
ATOM     31  H   UNL     1     -44.832 -64.416  25.477  0.00  0.00    +0.000 HD
ENDBRANCH  29  30
ENDBRANCH  15  29
BRANCH   6  32
ATOM     32  O   UNL     1     -44.928 -68.228  33.371  0.00  0.00    +0.000 OA
BRANCH  32  34
ATOM     33  O   UNL     1     -44.496 -70.192  34.350  0.00  0.00    +0.000 OA
ATOM     34  C   UNL     1     -45.032 -69.088  34.410  0.00  0.00    +0.000 C 
BRANCH  34  35
ATOM     35  C   UNL     1     -45.808 -68.677  35.636  0.00  0.00    +0.000 C 
BRANCH  35  36
ATOM     36  C   UNL     1     -44.951 -68.746  36.895  0.00  0.00    +0.000 C 
BRANCH  36  37
ATOM     37  C   UNL     1     -43.905 -67.632  37.004  0.00  0.00    +0.000 C 
BRANCH  37  38
ATOM     38  C   UNL     1     -44.150 -66.642  38.151  0.00  0.00    +0.000 C 
BRANCH  38  39
ATOM     39  C   UNL     1     -45.214 -67.138  39.136  0.00  0.00    +0.000 C 
BRANCH  39  40
ATOM     40  C   UNL     1     -46.001 -66.008  39.806  0.00  0.00    +0.000 C 
BRANCH  40  41
ATOM     41  C   UNL     1     -46.111 -64.754  38.934  0.00  0.00    +0.000 C 
BRANCH  41  42
ATOM     42  C   UNL     1     -45.961 -63.451  39.724  0.00  0.00    +0.000 C 
BRANCH  42  43
ATOM     43  C   UNL     1     -46.472 -63.485  41.168  0.00  0.00    +0.000 C 
BRANCH  43  44
ATOM     44  C   UNL     1     -45.460 -63.064  42.238  0.00  0.00    +0.000 C 
BRANCH  44  45
ATOM     45  C   UNL     1     -46.060 -62.562  43.554  0.00  0.00    +0.000 C 
BRANCH  45  46
ATOM     46  C   UNL     1     -46.774 -61.210  43.488  0.00  0.00    +0.000 C 
ATOM     47  C   UNL     1     -46.937 -60.544  44.845  0.00  0.00    +0.000 C 
ENDBRANCH  45  46
ENDBRANCH  44  45
ENDBRANCH  43  44
ENDBRANCH  42  43
ENDBRANCH  41  42
ENDBRANCH  40  41
ENDBRANCH  39  40
ENDBRANCH  38  39
ENDBRANCH  37  38
ENDBRANCH  36  37
ENDBRANCH  35  36
ENDBRANCH  34  35
ENDBRANCH  32  34
ENDBRANCH   6  32
TORSDOF 20
ENDMDL
MODEL 2
REMARK VINA RESULT:      -5.9      1.714      2.621
REMARK  Name = 27924_Phorbol.pdbqt.pdb
REMARK  26 active torsions:
REMARK  status: ('A' for Active; 'I' for Inactive)
REMARK    1  A    between atoms: O_1  and  C_10
REMARK    2  A    between atoms: O_1  and  C_26
REMARK    3  A    between atoms: O_2  and  C_13
REMARK    4  A    between atoms: O_2  and  C_28
REMARK    5  A    between atoms: O_3  and  C_14
REMARK    6  A    between atoms: O_4  and  C_20
REMARK    7  A    between atoms: O_7  and  C_29
REMARK    8  A    between atoms: C_11  and  C_16
REMARK    9  A    between atoms: C_11  and  C_17
REMARK   10  A    between atoms: C_15  and  C_21
REMARK   11  A    between atoms: C_22  and  C_29
REMARK   12  A    between atoms: C_26  and  C_30
REMARK   13  A    between atoms: C_27  and  C_31
REMARK   14  A    between atoms: C_28  and  C_32
REMARK   15  A    between atoms: C_32  and  C_33
REMARK   16  A    between atoms: C_33  and  C_34
REMARK   17  A    between atoms: C_34  and  C_35
REMARK   18  A    between atoms: C_35  and  C_36
REMARK   19  A    between atoms: C_36  and  C_37
REMARK   20  A    between atoms: C_37  and  C_38
REMARK   21  A    between atoms: C_38  and  C_39
REMARK   22  A    between atoms: C_39  and  C_40
REMARK   23  A    between atoms: C_40  and  C_41
REMARK   24  A    between atoms: C_41  and  C_42
REMARK   25  A    between atoms: C_42  and  C_43
REMARK   26  A    between atoms: C_43  and  C_44
REMARK                            x       y       z     vdW  Elec       q    Type
REMARK                         _______ _______ _______ _____ _____    ______ ____
ROOT
ATOM      1  O   UNL     1     -43.593 -70.068  25.005  0.00  0.00    +0.000 OA
ATOM      2  C   UNL     1     -46.997 -66.858  30.340  0.00  0.00    +0.000 C 
ATOM      3  C   UNL     1     -46.671 -67.228  31.775  0.00  0.00    +0.000 C 
ATOM      4  C   UNL     1     -48.012 -67.670  31.121  0.00  0.00    +0.000 C 
ATOM      5  C   UNL     1     -46.081 -67.248  29.219  0.00  0.00    +0.000 C 
ATOM      6  C   UNL     1     -45.472 -68.167  32.003  0.00  0.00    +0.000 C 
ATOM      7  C   UNL     1     -44.989 -68.380  29.496  0.00  0.00    +0.000 C 
ATOM      8  C   UNL     1     -44.376 -67.979  30.896  0.00  0.00    +0.000 C 
ATOM      9  C   UNL     1     -49.292 -66.920  31.447  0.00  0.00    +0.000 C 
ATOM     10  C   UNL     1     -48.295 -69.109  30.767  0.00  0.00    +0.000 C 
ATOM     11  C   UNL     1     -44.008 -68.475  28.219  0.00  0.00    +0.000 C 
ATOM     12  C   UNL     1     -46.791 -67.413  27.889  0.00  0.00    +0.000 C 
ATOM     13  C   UNL     1     -44.701 -68.977  26.876  0.00  0.00    +0.000 C 
ATOM     14  C   UNL     1     -43.090 -68.704  31.295  0.00  0.00    +0.000 C 
ATOM     15  C   UNL     1     -46.158 -66.909  26.807  0.00  0.00    +0.000 C 
ATOM     16  C   UNL     1     -45.344 -67.892  25.984  0.00  0.00    +0.000 C 
ATOM     17  C   UNL     1     -42.805 -69.408  28.260  0.00  0.00    +0.000 C 
ATOM     18  C   UNL     1     -43.572 -69.695  26.169  0.00  0.00    +0.000 C 
ATOM     19  C   UNL     1     -42.504 -70.036  27.115  0.00  0.00    +0.000 C 
ATOM     20  C   UNL     1     -41.376 -70.928  26.772  0.00  0.00    +0.000 C 
ENDROOT
BRANCH   7  21
ATOM     21  O   UNL     1     -45.583 -69.672  29.677  0.00  0.00    +0.000 OA
ATOM     22  H   UNL     1     -46.493 -69.539  30.026  0.00  0.00    +0.000 HD
ENDBRANCH   7  21
BRANCH  13  23
ATOM     23  O   UNL     1     -45.659 -70.032  27.135  0.00  0.00    +0.000 OA
ATOM     24  H   UNL     1     -46.515 -69.714  26.779  0.00  0.00    +0.000 HD
ENDBRANCH  13  23
BRANCH   3  25
ATOM     25  O   UNL     1     -46.657 -66.031  32.596  0.00  0.00    +0.000 OA
BRANCH  25  27
ATOM     26  O   UNL     1     -44.978 -64.707  31.913  0.00  0.00    +0.000 OA
ATOM     27  C   UNL     1     -46.165 -64.828  32.207  0.00  0.00    +0.000 C 
ATOM     28  C   UNL     1     -47.111 -63.674  32.063  0.00  0.00    +0.000 C 
ENDBRANCH  25  27
ENDBRANCH   3  25
BRANCH  15  29
ATOM     29  C   UNL     1     -45.730 -65.470  26.691  0.00  0.00    +0.000 C 
BRANCH  29  30
ATOM     30  O   UNL     1     -44.318 -65.416  26.807  0.00  0.00    +0.000 OA
ATOM     31  H   UNL     1     -44.071 -66.046  27.507  0.00  0.00    +0.000 HD
ENDBRANCH  29  30
ENDBRANCH  15  29
BRANCH   6  32
ATOM     32  O   UNL     1     -44.912 -67.869  33.311  0.00  0.00    +0.000 OA
BRANCH  32  34
ATOM     33  O   UNL     1     -45.779 -69.601  34.428  0.00  0.00    +0.000 OA
ATOM     34  C   UNL     1     -45.222 -68.506  34.462  0.00  0.00    +0.000 C 
BRANCH  34  35
ATOM     35  C   UNL     1     -44.878 -67.861  35.782  0.00  0.00    +0.000 C 
BRANCH  35  36
ATOM     36  C   UNL     1     -44.959 -68.856  36.934  0.00  0.00    +0.000 C 
BRANCH  36  37
ATOM     37  C   UNL     1     -46.076 -68.560  37.941  0.00  0.00    +0.000 C 
BRANCH  37  38
ATOM     38  C   UNL     1     -45.628 -67.751  39.165  0.00  0.00    +0.000 C 
BRANCH  38  39
ATOM     39  C   UNL     1     -46.259 -66.355  39.208  0.00  0.00    +0.000 C 
BRANCH  39  40
ATOM     40  C   UNL     1     -45.297 -65.264  39.685  0.00  0.00    +0.000 C 
BRANCH  40  41
ATOM     41  C   UNL     1     -45.584 -63.896  39.059  0.00  0.00    +0.000 C 
BRANCH  41  42
ATOM     42  C   UNL     1     -46.862 -63.872  38.216  0.00  0.00    +0.000 C 
BRANCH  42  43
ATOM     43  C   UNL     1     -47.121 -62.580  37.436  0.00  0.00    +0.000 C 
BRANCH  43  44
ATOM     44  C   UNL     1     -48.418 -61.843  37.788  0.00  0.00    +0.000 C 
BRANCH  44  45
ATOM     45  C   UNL     1     -49.094 -61.104  36.630  0.00  0.00    +0.000 C 
BRANCH  45  46
ATOM     46  C   UNL     1     -48.185 -60.200  35.796  0.00  0.00    +0.000 C 
ATOM     47  C   UNL     1     -48.052 -60.646  34.348  0.00  0.00    +0.000 C 
ENDBRANCH  45  46
ENDBRANCH  44  45
ENDBRANCH  43  44
ENDBRANCH  42  43
ENDBRANCH  41  42
ENDBRANCH  40  41
ENDBRANCH  39  40
ENDBRANCH  38  39
ENDBRANCH  37  38
ENDBRANCH  36  37
ENDBRANCH  35  36
ENDBRANCH  34  35
ENDBRANCH  32  34
ENDBRANCH   6  32
TORSDOF 20
ENDMDL
MODEL 3
REMARK VINA RESULT:      -5.8      1.610      2.490
REMARK  Name = 27924_Phorbol.pdbqt.pdb
REMARK  26 active torsions:
REMARK  status: ('A' for Active; 'I' for Inactive)
REMARK    1  A    between atoms: O_1  and  C_10
REMARK    2  A    between atoms: O_1  and  C_26
REMARK    3  A    between atoms: O_2  and  C_13
REMARK    4  A    between atoms: O_2  and  C_28
REMARK    5  A    between atoms: O_3  and  C_14
REMARK    6  A    between atoms: O_4  and  C_20
REMARK    7  A    between atoms: O_7  and  C_29
REMARK    8  A    between atoms: C_11  and  C_16
REMARK    9  A    between atoms: C_11  and  C_17
REMARK   10  A    between atoms: C_15  and  C_21
REMARK   11  A    between atoms: C_22  and  C_29
REMARK   12  A    between atoms: C_26  and  C_30
REMARK   13  A    between atoms: C_27  and  C_31
REMARK   14  A    between atoms: C_28  and  C_32
REMARK   15  A    between atoms: C_32  and  C_33
REMARK   16  A    between atoms: C_33  and  C_34
REMARK   17  A    between atoms: C_34  and  C_35
REMARK   18  A    between atoms: C_35  and  C_36
REMARK   19  A    between atoms: C_36  and  C_37
REMARK   20  A    between atoms: C_37  and  C_38
REMARK   21  A    between atoms: C_38  and  C_39
REMARK   22  A    between atoms: C_39  and  C_40
REMARK   23  A    between atoms: C_40  and  C_41
REMARK   24  A    between atoms: C_41  and  C_42
REMARK   25  A    between atoms: C_42  and  C_43
REMARK   26  A    between atoms: C_43  and  C_44
REMARK                            x       y       z     vdW  Elec       q    Type
REMARK                         _______ _______ _______ _____ _____    ______ ____
ROOT
ATOM      1  O   UNL     1     -43.740 -70.071  24.967  0.00  0.00    +0.000 OA
ATOM      2  C   UNL     1     -46.835 -66.824  30.466  0.00  0.00    +0.000 C 
ATOM      3  C   UNL     1     -46.518 -67.269  31.881  0.00  0.00    +0.000 C 
ATOM      4  C   UNL     1     -47.895 -67.589  31.233  0.00  0.00    +0.000 C 
ATOM      5  C   UNL     1     -45.964 -67.237  29.317  0.00  0.00    +0.000 C 
ATOM      6  C   UNL     1     -45.387 -68.299  32.056  0.00  0.00    +0.000 C 
ATOM      7  C   UNL     1     -44.952 -68.454  29.536  0.00  0.00    +0.000 C 
ATOM      8  C   UNL     1     -44.294 -68.149  30.940  0.00  0.00    +0.000 C 
ATOM      9  C   UNL     1     -49.114 -66.762  31.605  0.00  0.00    +0.000 C 
ATOM     10  C   UNL     1     -48.286 -68.990  30.832  0.00  0.00    +0.000 C 
ATOM     11  C   UNL     1     -43.998 -68.572  28.242  0.00  0.00    +0.000 C 
ATOM     12  C   UNL     1     -46.701 -67.302  27.993  0.00  0.00    +0.000 C 
ATOM     13  C   UNL     1     -44.742 -68.973  26.892  0.00  0.00    +0.000 C 
ATOM     14  C   UNL     1     -43.059 -68.979  31.293  0.00  0.00    +0.000 C 
ATOM     15  C   UNL     1     -46.047 -66.806  26.920  0.00  0.00    +0.000 C 
ATOM     16  C   UNL     1     -45.317 -67.813  26.050  0.00  0.00    +0.000 C 
ATOM     17  C   UNL     1     -42.865 -69.590  28.230  0.00  0.00    +0.000 C 
ATOM     18  C   UNL     1     -43.677 -69.744  26.143  0.00  0.00    +0.000 C 
ATOM     19  C   UNL     1     -42.624 -70.195  27.060  0.00  0.00    +0.000 C 
ATOM     20  C   UNL     1     -41.569 -71.152  26.668  0.00  0.00    +0.000 C 
ENDROOT
BRANCH   7  21
ATOM     21  O   UNL     1     -45.637 -69.705  29.681  0.00  0.00    +0.000 OA
ATOM     22  H   UNL     1     -46.291 -69.609  30.407  0.00  0.00    +0.000 HD
ENDBRANCH   7  21
BRANCH  13  23
ATOM     23  O   UNL     1     -45.771 -69.966  27.128  0.00  0.00    +0.000 OA
ATOM     24  H   UNL     1     -46.422 -69.544  27.726  0.00  0.00    +0.000 HD
ENDBRANCH  13  23
BRANCH   3  25
ATOM     25  O   UNL     1     -46.407 -66.107  32.744  0.00  0.00    +0.000 OA
BRANCH  25  27
ATOM     26  O   UNL     1     -44.720 -64.836  31.981  0.00  0.00    +0.000 OA
ATOM     27  C   UNL     1     -45.883 -64.911  32.373  0.00  0.00    +0.000 C 
ATOM     28  C   UNL     1     -46.770 -63.703  32.373  0.00  0.00    +0.000 C 
ENDBRANCH  25  27
ENDBRANCH   3  25
BRANCH  15  29
ATOM     29  C   UNL     1     -45.519 -65.397  26.849  0.00  0.00    +0.000 C 
BRANCH  29  30
ATOM     30  O   UNL     1     -46.439 -64.544  27.507  0.00  0.00    +0.000 OA
ATOM     31  H   UNL     1     -46.459 -64.820  28.440  0.00  0.00    +0.000 HD
ENDBRANCH  29  30
ENDBRANCH  15  29
BRANCH   6  32
ATOM     32  O   UNL     1     -44.790 -68.089  33.365  0.00  0.00    +0.000 OA
BRANCH  32  34
ATOM     33  O   UNL     1     -45.495 -69.939  34.406  0.00  0.00    +0.000 OA
ATOM     34  C   UNL     1     -45.094 -68.780  34.487  0.00  0.00    +0.000 C 
BRANCH  34  35
ATOM     35  C   UNL     1     -44.936 -68.115  35.832  0.00  0.00    +0.000 C 
BRANCH  35  36
ATOM     36  C   UNL     1     -46.003 -68.577  36.818  0.00  0.00    +0.000 C 
BRANCH  36  37
ATOM     37  C   UNL     1     -45.841 -68.006  38.231  0.00  0.00    +0.000 C 
BRANCH  37  38
ATOM     38  C   UNL     1     -46.261 -66.537  38.373  0.00  0.00    +0.000 C 
BRANCH  38  39
ATOM     39  C   UNL     1     -45.821 -65.928  39.709  0.00  0.00    +0.000 C 
BRANCH  39  40
ATOM     40  C   UNL     1     -46.102 -64.427  39.819  0.00  0.00    +0.000 C 
BRANCH  40  41
ATOM     41  C   UNL     1     -46.782 -63.851  38.574  0.00  0.00    +0.000 C 
BRANCH  41  42
ATOM     42  C   UNL     1     -46.158 -62.537  38.097  0.00  0.00    +0.000 C 
BRANCH  42  43
ATOM     43  C   UNL     1     -44.880 -62.671  37.263  0.00  0.00    +0.000 C 
BRANCH  43  44
ATOM     44  C   UNL     1     -43.569 -62.442  38.021  0.00  0.00    +0.000 C 
BRANCH  44  45
ATOM     45  C   UNL     1     -42.745 -63.700  38.312  0.00  0.00    +0.000 C 
BRANCH  45  46
ATOM     46  C   UNL     1     -43.074 -64.924  37.456  0.00  0.00    +0.000 C 
ATOM     47  C   UNL     1     -42.518 -66.223  38.017  0.00  0.00    +0.000 C 
ENDBRANCH  45  46
ENDBRANCH  44  45
ENDBRANCH  43  44
ENDBRANCH  42  43
ENDBRANCH  41  42
ENDBRANCH  40  41
ENDBRANCH  39  40
ENDBRANCH  38  39
ENDBRANCH  37  38
ENDBRANCH  36  37
ENDBRANCH  35  36
ENDBRANCH  34  35
ENDBRANCH  32  34
ENDBRANCH   6  32
TORSDOF 20
ENDMDL
MODEL 4
REMARK VINA RESULT:      -5.3     30.002     34.628
REMARK  Name = 27924_Phorbol.pdbqt.pdb
REMARK  26 active torsions:
REMARK  status: ('A' for Active; 'I' for Inactive)
REMARK    1  A    between atoms: O_1  and  C_10
REMARK    2  A    between atoms: O_1  and  C_26
REMARK    3  A    between atoms: O_2  and  C_13
REMARK    4  A    between atoms: O_2  and  C_28
REMARK    5  A    between atoms: O_3  and  C_14
REMARK    6  A    between atoms: O_4  and  C_20
REMARK    7  A    between atoms: O_7  and  C_29
REMARK    8  A    between atoms: C_11  and  C_16
REMARK    9  A    between atoms: C_11  and  C_17
REMARK   10  A    between atoms: C_15  and  C_21
REMARK   11  A    between atoms: C_22  and  C_29
REMARK   12  A    between atoms: C_26  and  C_30
REMARK   13  A    between atoms: C_27  and  C_31
REMARK   14  A    between atoms: C_28  and  C_32
REMARK   15  A    between atoms: C_32  and  C_33
REMARK   16  A    between atoms: C_33  and  C_34
REMARK   17  A    between atoms: C_34  and  C_35
REMARK   18  A    between atoms: C_35  and  C_36
REMARK   19  A    between atoms: C_36  and  C_37
REMARK   20  A    between atoms: C_37  and  C_38
REMARK   21  A    between atoms: C_38  and  C_39
REMARK   22  A    between atoms: C_39  and  C_40
REMARK   23  A    between atoms: C_40  and  C_41
REMARK   24  A    between atoms: C_41  and  C_42
REMARK   25  A    between atoms: C_42  and  C_43
REMARK   26  A    between atoms: C_43  and  C_44
REMARK                            x       y       z     vdW  Elec       q    Type
REMARK                         _______ _______ _______ _____ _____    ______ ____
ROOT
ATOM      1  O   UNL     1     -30.045 -70.411  66.877  0.00  0.00    +0.000 OA
ATOM      2  C   UNL     1     -33.553 -66.708  61.944  0.00  0.00    +0.000 C 
ATOM      3  C   UNL     1     -33.396 -65.200  61.878  0.00  0.00    +0.000 C 
ATOM      4  C   UNL     1     -34.712 -65.844  62.400  0.00  0.00    +0.000 C 
ATOM      5  C   UNL     1     -32.587 -67.548  62.725  0.00  0.00    +0.000 C 
ATOM      6  C   UNL     1     -32.326 -64.566  62.786  0.00  0.00    +0.000 C 
ATOM      7  C   UNL     1     -31.648 -66.821  63.793  0.00  0.00    +0.000 C 
ATOM      8  C   UNL     1     -31.123 -65.543  63.027  0.00  0.00    +0.000 C 
ATOM      9  C   UNL     1     -35.931 -65.908  61.495  0.00  0.00    +0.000 C 
ATOM     10  C   UNL     1     -35.112 -65.783  63.854  0.00  0.00    +0.000 C 
ATOM     11  C   UNL     1     -30.574 -67.888  64.348  0.00  0.00    +0.000 C 
ATOM     12  C   UNL     1     -33.190 -68.841  63.239  0.00  0.00    +0.000 C 
ATOM     13  C   UNL     1     -31.194 -69.092  65.187  0.00  0.00    +0.000 C 
ATOM     14  C   UNL     1     -29.960 -64.800  63.687  0.00  0.00    +0.000 C 
ATOM     15  C   UNL     1     -32.414 -69.942  63.140  0.00  0.00    +0.000 C 
ATOM     16  C   UNL     1     -31.638 -70.335  64.384  0.00  0.00    +0.000 C 
ATOM     17  C   UNL     1     -29.483 -67.432  65.308  0.00  0.00    +0.000 C 
ATOM     18  C   UNL     1     -30.088 -69.417  66.168  0.00  0.00    +0.000 C 
ATOM     19  C   UNL     1     -29.149 -68.294  66.278  0.00  0.00    +0.000 C 
ATOM     20  C   UNL     1     -28.095 -68.223  67.311  0.00  0.00    +0.000 C 
ENDROOT
BRANCH   7  21
ATOM     21  O   UNL     1     -32.388 -66.334  64.920  0.00  0.00    +0.000 OA
ATOM     22  H   UNL     1     -31.805 -65.723  65.423  0.00  0.00    +0.000 HD
ENDBRANCH   7  21
BRANCH  13  23
ATOM     23  O   UNL     1     -32.276 -68.644  66.038  0.00  0.00    +0.000 OA
ATOM     24  H   UNL     1     -32.626 -67.827  65.625  0.00  0.00    +0.000 HD
ENDBRANCH  13  23
BRANCH   3  25
ATOM     25  O   UNL     1     -33.329 -64.777  60.491  0.00  0.00    +0.000 OA
BRANCH  25  27
ATOM     26  O   UNL     1     -33.644 -65.930  58.590  0.00  0.00    +0.000 OA
ATOM     27  C   UNL     1     -32.874 -65.542  59.466  0.00  0.00    +0.000 C 
ATOM     28  C   UNL     1     -31.406 -65.834  59.380  0.00  0.00    +0.000 C 
ENDBRANCH  25  27
ENDBRANCH   3  25
BRANCH  15  29
ATOM     29  C   UNL     1     -31.830 -70.432  61.841  0.00  0.00    +0.000 C 
BRANCH  29  30
ATOM     30  O   UNL     1     -30.426 -70.546  62.002  0.00  0.00    +0.000 OA
ATOM     31  H   UNL     1     -30.228 -70.295  62.921  0.00  0.00    +0.000 HD
ENDBRANCH  29  30
ENDBRANCH  15  29
BRANCH   6  32
ATOM     32  O   UNL     1     -31.856 -63.350  62.141  0.00  0.00    +0.000 OA
BRANCH  32  34
ATOM     33  O   UNL     1     -31.811 -61.137  61.820  0.00  0.00    +0.000 OA
ATOM     34  C   UNL     1     -32.214 -62.091  62.481  0.00  0.00    +0.000 C 
BRANCH  34  35
ATOM     35  C   UNL     1     -33.110 -61.873  63.676  0.00  0.00    +0.000 C 
BRANCH  35  36
ATOM     36  C   UNL     1     -33.252 -60.393  64.011  0.00  0.00    +0.000 C 
BRANCH  36  37
ATOM     37  C   UNL     1     -32.545 -59.972  65.304  0.00  0.00    +0.000 C 
BRANCH  37  38
ATOM     38  C   UNL     1     -33.350 -60.240  66.583  0.00  0.00    +0.000 C 
BRANCH  38  39
ATOM     39  C   UNL     1     -32.555 -61.041  67.619  0.00  0.00    +0.000 C 
BRANCH  39  40
ATOM     40  C   UNL     1     -31.485 -61.947  67.003  0.00  0.00    +0.000 C 
BRANCH  40  41
ATOM     41  C   UNL     1     -31.970 -63.381  66.778  0.00  0.00    +0.000 C 
BRANCH  41  42
ATOM     42  C   UNL     1     -32.953 -63.863  67.849  0.00  0.00    +0.000 C 
BRANCH  42  43
ATOM     43  C   UNL     1     -34.289 -64.404  67.331  0.00  0.00    +0.000 C 
BRANCH  43  44
ATOM     44  C   UNL     1     -35.031 -63.499  66.343  0.00  0.00    +0.000 C 
BRANCH  44  45
ATOM     45  C   UNL     1     -36.338 -62.888  66.858  0.00  0.00    +0.000 C 
BRANCH  45  46
ATOM     46  C   UNL     1     -36.261 -62.206  68.225  0.00  0.00    +0.000 C 
ATOM     47  C   UNL     1     -36.918 -63.006  69.339  0.00  0.00    +0.000 C 
ENDBRANCH  45  46
ENDBRANCH  44  45
ENDBRANCH  43  44
ENDBRANCH  42  43
ENDBRANCH  41  42
ENDBRANCH  40  41
ENDBRANCH  39  40
ENDBRANCH  38  39
ENDBRANCH  37  38
ENDBRANCH  36  37
ENDBRANCH  35  36
ENDBRANCH  34  35
ENDBRANCH  32  34
ENDBRANCH   6  32
TORSDOF 20
ENDMDL
MODEL 5
REMARK VINA RESULT:      -5.3     22.407     26.942
REMARK  Name = 27924_Phorbol.pdbqt.pdb
REMARK  26 active torsions:
REMARK  status: ('A' for Active; 'I' for Inactive)
REMARK    1  A    between atoms: O_1  and  C_10
REMARK    2  A    between atoms: O_1  and  C_26
REMARK    3  A    between atoms: O_2  and  C_13
REMARK    4  A    between atoms: O_2  and  C_28
REMARK    5  A    between atoms: O_3  and  C_14
REMARK    6  A    between atoms: O_4  and  C_20
REMARK    7  A    between atoms: O_7  and  C_29
REMARK    8  A    between atoms: C_11  and  C_16
REMARK    9  A    between atoms: C_11  and  C_17
REMARK   10  A    between atoms: C_15  and  C_21
REMARK   11  A    between atoms: C_22  and  C_29
REMARK   12  A    between atoms: C_26  and  C_30
REMARK   13  A    between atoms: C_27  and  C_31
REMARK   14  A    between atoms: C_28  and  C_32
REMARK   15  A    between atoms: C_32  and  C_33
REMARK   16  A    between atoms: C_33  and  C_34
REMARK   17  A    between atoms: C_34  and  C_35
REMARK   18  A    between atoms: C_35  and  C_36
REMARK   19  A    between atoms: C_36  and  C_37
REMARK   20  A    between atoms: C_37  and  C_38
REMARK   21  A    between atoms: C_38  and  C_39
REMARK   22  A    between atoms: C_39  and  C_40
REMARK   23  A    between atoms: C_40  and  C_41
REMARK   24  A    between atoms: C_41  and  C_42
REMARK   25  A    between atoms: C_42  and  C_43
REMARK   26  A    between atoms: C_43  and  C_44
REMARK                            x       y       z     vdW  Elec       q    Type
REMARK                         _______ _______ _______ _____ _____    ______ ____
ROOT
ATOM      1  O   UNL     1     -58.097 -74.039  46.467  0.00  0.00    +0.000 OA
ATOM      2  C   UNL     1     -59.366 -77.404  52.585  0.00  0.00    +0.000 C 
ATOM      3  C   UNL     1     -60.543 -76.988  53.446  0.00  0.00    +0.000 C 
ATOM      4  C   UNL     1     -59.084 -76.658  53.874  0.00  0.00    +0.000 C 
ATOM      5  C   UNL     1     -59.266 -76.966  51.155  0.00  0.00    +0.000 C 
ATOM      6  C   UNL     1     -61.520 -75.958  52.848  0.00  0.00    +0.000 C 
ATOM      7  C   UNL     1     -60.185 -75.752  50.672  0.00  0.00    +0.000 C 
ATOM      8  C   UNL     1     -61.602 -76.083  51.286  0.00  0.00    +0.000 C 
ATOM      9  C   UNL     1     -58.405 -77.495  54.944  0.00  0.00    +0.000 C 
ATOM     10  C   UNL     1     -58.543 -75.249  53.854  0.00  0.00    +0.000 C 
ATOM     11  C   UNL     1     -60.048 -75.605  49.072  0.00  0.00    +0.000 C 
ATOM     12  C   UNL     1     -57.839 -76.876  50.648  0.00  0.00    +0.000 C 
ATOM     13  C   UNL     1     -58.603 -75.178  48.556  0.00  0.00    +0.000 C 
ATOM     14  C   UNL     1     -62.772 -75.258  50.749  0.00  0.00    +0.000 C 
ATOM     15  C   UNL     1     -57.616 -77.349  49.403  0.00  0.00    +0.000 C 
ATOM     16  C   UNL     1     -57.602 -76.322  48.284  0.00  0.00    +0.000 C 
ATOM     17  C   UNL     1     -60.904 -74.585  48.332  0.00  0.00    +0.000 C 
ATOM     18  C   UNL     1     -58.917 -74.390  47.303  0.00  0.00    +0.000 C 
ATOM     19  C   UNL     1     -60.319 -73.955  47.304  0.00  0.00    +0.000 C 
ATOM     20  C   UNL     1     -60.864 -72.988  46.329  0.00  0.00    +0.000 C 
ENDROOT
BRANCH   7  21
ATOM     21  O   UNL     1     -59.781 -74.505  51.253  0.00  0.00    +0.000 OA
ATOM     22  H   UNL     1     -58.968 -74.668  51.781  0.00  0.00    +0.000 HD
ENDBRANCH   7  21
BRANCH  13  23
ATOM     23  O   UNL     1     -57.998 -74.193  49.429  0.00  0.00    +0.000 OA
ATOM     24  H   UNL     1     -57.263 -74.651  49.887  0.00  0.00    +0.000 HD
ENDBRANCH  13  23
BRANCH   3  25
ATOM     25  O   UNL     1     -61.183 -78.166  54.001  0.00  0.00    +0.000 OA
BRANCH  25  27
ATOM     26  O   UNL     1     -62.154 -79.379  52.379  0.00  0.00    +0.000 OA
ATOM     27  C   UNL     1     -61.379 -79.331  53.333  0.00  0.00    +0.000 C 
ATOM     28  C   UNL     1     -60.573 -80.533  53.726  0.00  0.00    +0.000 C 
ENDBRANCH  25  27
ENDBRANCH   3  25
BRANCH  15  29
ATOM     29  C   UNL     1     -57.950 -78.754  48.976  0.00  0.00    +0.000 C 
BRANCH  29  30
ATOM     30  O   UNL     1     -57.284 -79.652  49.848  0.00  0.00    +0.000 OA
ATOM     31  H   UNL     1     -57.267 -79.229  50.725  0.00  0.00    +0.000 HD
ENDBRANCH  29  30
ENDBRANCH  15  29
BRANCH   6  32
ATOM     32  O   UNL     1     -62.830 -76.193  53.433  0.00  0.00    +0.000 OA
BRANCH  32  34
ATOM     33  O   UNL     1     -62.612 -75.163  55.406  0.00  0.00    +0.000 OA
ATOM     34  C   UNL     1     -63.347 -75.532  54.493  0.00  0.00    +0.000 C 
BRANCH  34  35
ATOM     35  C   UNL     1     -64.829 -75.253  54.541  0.00  0.00    +0.000 C 
BRANCH  35  36
ATOM     36  C   UNL     1     -65.454 -75.289  53.152  0.00  0.00    +0.000 C 
BRANCH  36  37
ATOM     37  C   UNL     1     -65.703 -73.906  52.539  0.00  0.00    +0.000 C 
BRANCH  37  38
ATOM     38  C   UNL     1     -66.342 -73.937  51.144  0.00  0.00    +0.000 C 
BRANCH  38  39
ATOM     39  C   UNL     1     -65.601 -73.048  50.140  0.00  0.00    +0.000 C 
BRANCH  39  40
ATOM     40  C   UNL     1     -65.921 -73.377  48.679  0.00  0.00    +0.000 C 
BRANCH  40  41
ATOM     41  C   UNL     1     -64.775 -74.096  47.961  0.00  0.00    +0.000 C 
BRANCH  41  42
ATOM     42  C   UNL     1     -65.002 -75.604  47.818  0.00  0.00    +0.000 C 
BRANCH  42  43
ATOM     43  C   UNL     1     -63.789 -76.419  47.360  0.00  0.00    +0.000 C 
BRANCH  43  44
ATOM     44  C   UNL     1     -63.603 -77.773  48.051  0.00  0.00    +0.000 C 
BRANCH  44  45
ATOM     45  C   UNL     1     -64.849 -78.344  48.735  0.00  0.00    +0.000 C 
BRANCH  45  46
ATOM     46  C   UNL     1     -64.936 -78.127  50.247  0.00  0.00    +0.000 C 
ATOM     47  C   UNL     1     -66.337 -77.782  50.730  0.00  0.00    +0.000 C 
ENDBRANCH  45  46
ENDBRANCH  44  45
ENDBRANCH  43  44
ENDBRANCH  42  43
ENDBRANCH  41  42
ENDBRANCH  40  41
ENDBRANCH  39  40
ENDBRANCH  38  39
ENDBRANCH  37  38
ENDBRANCH  36  37
ENDBRANCH  35  36
ENDBRANCH  34  35
ENDBRANCH  32  34
ENDBRANCH   6  32
TORSDOF 20
ENDMDL
MODEL 6
REMARK VINA RESULT:      -5.2     31.081     35.877
REMARK  Name = 27924_Phorbol.pdbqt.pdb
REMARK  26 active torsions:
REMARK  status: ('A' for Active; 'I' for Inactive)
REMARK    1  A    between atoms: O_1  and  C_10
REMARK    2  A    between atoms: O_1  and  C_26
REMARK    3  A    between atoms: O_2  and  C_13
REMARK    4  A    between atoms: O_2  and  C_28
REMARK    5  A    between atoms: O_3  and  C_14
REMARK    6  A    between atoms: O_4  and  C_20
REMARK    7  A    between atoms: O_7  and  C_29
REMARK    8  A    between atoms: C_11  and  C_16
REMARK    9  A    between atoms: C_11  and  C_17
REMARK   10  A    between atoms: C_15  and  C_21
REMARK   11  A    between atoms: C_22  and  C_29
REMARK   12  A    between atoms: C_26  and  C_30
REMARK   13  A    between atoms: C_27  and  C_31
REMARK   14  A    between atoms: C_28  and  C_32
REMARK   15  A    between atoms: C_32  and  C_33
REMARK   16  A    between atoms: C_33  and  C_34
REMARK   17  A    between atoms: C_34  and  C_35
REMARK   18  A    between atoms: C_35  and  C_36
REMARK   19  A    between atoms: C_36  and  C_37
REMARK   20  A    between atoms: C_37  and  C_38
REMARK   21  A    between atoms: C_38  and  C_39
REMARK   22  A    between atoms: C_39  and  C_40
REMARK   23  A    between atoms: C_40  and  C_41
REMARK   24  A    between atoms: C_41  and  C_42
REMARK   25  A    between atoms: C_42  and  C_43
REMARK   26  A    between atoms: C_43  and  C_44
REMARK                            x       y       z     vdW  Elec       q    Type
REMARK                         _______ _______ _______ _____ _____    ______ ____
ROOT
ATOM      1  O   UNL     1     -33.762 -68.868  69.666  0.00  0.00    +0.000 OA
ATOM      2  C   UNL     1     -32.835 -66.877  62.917  0.00  0.00    +0.000 C 
ATOM      3  C   UNL     1     -32.601 -65.415  62.587  0.00  0.00    +0.000 C 
ATOM      4  C   UNL     1     -33.954 -66.104  62.248  0.00  0.00    +0.000 C 
ATOM      5  C   UNL     1     -32.692 -67.380  64.323  0.00  0.00    +0.000 C 
ATOM      6  C   UNL     1     -32.397 -64.452  63.771  0.00  0.00    +0.000 C 
ATOM      7  C   UNL     1     -32.687 -66.311  65.510  0.00  0.00    +0.000 C 
ATOM      8  C   UNL     1     -31.721 -65.174  64.989  0.00  0.00    +0.000 C 
ATOM      9  C   UNL     1     -34.244 -66.536  60.821  0.00  0.00    +0.000 C 
ATOM     10  C   UNL     1     -35.227 -65.779  62.991  0.00  0.00    +0.000 C 
ATOM     11  C   UNL     1     -32.322 -67.068  66.886  0.00  0.00    +0.000 C 
ATOM     12  C   UNL     1     -33.546 -68.598  64.618  0.00  0.00    +0.000 C 
ATOM     13  C   UNL     1     -33.403 -68.130  67.376  0.00  0.00    +0.000 C 
ATOM     14  C   UNL     1     -31.274 -64.148  66.031  0.00  0.00    +0.000 C 
ATOM     15  C   UNL     1     -32.962 -69.575  65.346  0.00  0.00    +0.000 C 
ATOM     16  C   UNL     1     -33.249 -69.570  66.837  0.00  0.00    +0.000 C 
ATOM     17  C   UNL     1     -32.145 -66.262  68.167  0.00  0.00    +0.000 C 
ATOM     18  C   UNL     1     -33.267 -68.072  68.882  0.00  0.00    +0.000 C 
ATOM     19  C   UNL     1     -32.595 -66.833  69.292  0.00  0.00    +0.000 C 
ATOM     20  C   UNL     1     -32.514 -66.387  70.699  0.00  0.00    +0.000 C 
ENDROOT
BRANCH   7  21
ATOM     21  O   UNL     1     -33.969 -65.694  65.687  0.00  0.00    +0.000 OA
ATOM     22  H   UNL     1     -34.135 -65.115  64.909  0.00  0.00    +0.000 HD
ENDBRANCH   7  21
BRANCH  13  23
ATOM     23  O   UNL     1     -34.753 -67.659  67.143  0.00  0.00    +0.000 OA
ATOM     24  H   UNL     1     -35.222 -67.748  67.998  0.00  0.00    +0.000 HD
ENDBRANCH  13  23
BRANCH   3  25
ATOM     25  O   UNL     1     -31.596 -65.305  61.546  0.00  0.00    +0.000 OA
BRANCH  25  27
ATOM     26  O   UNL     1     -30.555 -66.990  60.489  0.00  0.00    +0.000 OA
ATOM     27  C   UNL     1     -30.547 -66.151  61.387  0.00  0.00    +0.000 C 
ATOM     28  C   UNL     1     -29.347 -65.988  62.272  0.00  0.00    +0.000 C 
ENDBRANCH  25  27
ENDBRANCH   3  25
BRANCH  15  29
ATOM     29  C   UNL     1     -31.678 -70.253  64.945  0.00  0.00    +0.000 C 
BRANCH  29  30
ATOM     30  O   UNL     1     -31.713 -71.587  65.425  0.00  0.00    +0.000 OA
ATOM     31  H   UNL     1     -30.790 -71.845  65.601  0.00  0.00    +0.000 HD
ENDBRANCH  29  30
ENDBRANCH  15  29
BRANCH   6  32
ATOM     32  O   UNL     1     -31.556 -63.356  63.315  0.00  0.00    +0.000 OA
BRANCH  32  34
ATOM     33  O   UNL     1     -30.920 -61.237  63.641  0.00  0.00    +0.000 OA
ATOM     34  C   UNL     1     -31.832 -62.041  63.462  0.00  0.00    +0.000 C 
BRANCH  34  35
ATOM     35  C   UNL     1     -33.266 -61.574  63.404  0.00  0.00    +0.000 C 
BRANCH  35  36
ATOM     36  C   UNL     1     -33.947 -61.674  64.763  0.00  0.00    +0.000 C 
BRANCH  36  37
ATOM     37  C   UNL     1     -35.209 -62.544  64.771  0.00  0.00    +0.000 C 
BRANCH  37  38
ATOM     38  C   UNL     1     -35.719 -62.909  66.172  0.00  0.00    +0.000 C 
BRANCH  38  39
ATOM     39  C   UNL     1     -37.249 -62.938  66.249  0.00  0.00    +0.000 C 
BRANCH  39  40
ATOM     40  C   UNL     1     -37.799 -62.563  67.628  0.00  0.00    +0.000 C 
BRANCH  40  41
ATOM     41  C   UNL     1     -36.700 -62.246  68.646  0.00  0.00    +0.000 C 
BRANCH  41  42
ATOM     42  C   UNL     1     -36.635 -63.251  69.800  0.00  0.00    +0.000 C 
BRANCH  42  43
ATOM     43  C   UNL     1     -35.277 -63.922  70.024  0.00  0.00    +0.000 C 
BRANCH  43  44
ATOM     44  C   UNL     1     -34.324 -63.184  70.970  0.00  0.00    +0.000 C 
BRANCH  44  45
ATOM     45  C   UNL     1     -33.034 -62.659  70.332  0.00  0.00    +0.000 C 
BRANCH  45  46
ATOM     46  C   UNL     1     -33.022 -62.605  68.803  0.00  0.00    +0.000 C 
ATOM     47  C   UNL     1     -33.167 -61.198  68.246  0.00  0.00    +0.000 C 
ENDBRANCH  45  46
ENDBRANCH  44  45
ENDBRANCH  43  44
ENDBRANCH  42  43
ENDBRANCH  41  42
ENDBRANCH  40  41
ENDBRANCH  39  40
ENDBRANCH  38  39
ENDBRANCH  37  38
ENDBRANCH  36  37
ENDBRANCH  35  36
ENDBRANCH  34  35
ENDBRANCH  32  34
ENDBRANCH   6  32
TORSDOF 20
ENDMDL
MODEL 7
REMARK VINA RESULT:      -5.1     19.302     23.081
REMARK  Name = 27924_Phorbol.pdbqt.pdb
REMARK  26 active torsions:
REMARK  status: ('A' for Active; 'I' for Inactive)
REMARK    1  A    between atoms: O_1  and  C_10
REMARK    2  A    between atoms: O_1  and  C_26
REMARK    3  A    between atoms: O_2  and  C_13
REMARK    4  A    between atoms: O_2  and  C_28
REMARK    5  A    between atoms: O_3  and  C_14
REMARK    6  A    between atoms: O_4  and  C_20
REMARK    7  A    between atoms: O_7  and  C_29
REMARK    8  A    between atoms: C_11  and  C_16
REMARK    9  A    between atoms: C_11  and  C_17
REMARK   10  A    between atoms: C_15  and  C_21
REMARK   11  A    between atoms: C_22  and  C_29
REMARK   12  A    between atoms: C_26  and  C_30
REMARK   13  A    between atoms: C_27  and  C_31
REMARK   14  A    between atoms: C_28  and  C_32
REMARK   15  A    between atoms: C_32  and  C_33
REMARK   16  A    between atoms: C_33  and  C_34
REMARK   17  A    between atoms: C_34  and  C_35
REMARK   18  A    between atoms: C_35  and  C_36
REMARK   19  A    between atoms: C_36  and  C_37
REMARK   20  A    between atoms: C_37  and  C_38
REMARK   21  A    between atoms: C_38  and  C_39
REMARK   22  A    between atoms: C_39  and  C_40
REMARK   23  A    between atoms: C_40  and  C_41
REMARK   24  A    between atoms: C_41  and  C_42
REMARK   25  A    between atoms: C_42  and  C_43
REMARK   26  A    between atoms: C_43  and  C_44
REMARK                            x       y       z     vdW  Elec       q    Type
REMARK                         _______ _______ _______ _____ _____    ______ ____
ROOT
ATOM      1  O   UNL     1     -72.122 -74.532  27.449  0.00  0.00    +0.000 OA
ATOM      2  C   UNL     1     -65.351 -72.517  26.776  0.00  0.00    +0.000 C 
ATOM      3  C   UNL     1     -64.656 -71.811  27.925  0.00  0.00    +0.000 C 
ATOM      4  C   UNL     1     -65.065 -71.034  26.641  0.00  0.00    +0.000 C 
ATOM      5  C   UNL     1     -66.639 -73.253  26.993  0.00  0.00    +0.000 C 
ATOM      6  C   UNL     1     -65.416 -71.730  29.262  0.00  0.00    +0.000 C 
ATOM      7  C   UNL     1     -67.463 -72.954  28.328  0.00  0.00    +0.000 C 
ATOM      8  C   UNL     1     -66.362 -72.965  29.462  0.00  0.00    +0.000 C 
ATOM      9  C   UNL     1     -64.014 -70.694  25.598  0.00  0.00    +0.000 C 
ATOM     10  C   UNL     1     -66.185 -70.023  26.639  0.00  0.00    +0.000 C 
ATOM     11  C   UNL     1     -68.686 -74.001  28.426  0.00  0.00    +0.000 C 
ATOM     12  C   UNL     1     -67.512 -73.321  25.753  0.00  0.00    +0.000 C 
ATOM     13  C   UNL     1     -69.793 -73.849  27.290  0.00  0.00    +0.000 C 
ATOM     14  C   UNL     1     -66.883 -73.007  30.899  0.00  0.00    +0.000 C 
ATOM     15  C   UNL     1     -68.115 -74.505  25.513  0.00  0.00    +0.000 C 
ATOM     16  C   UNL     1     -69.553 -74.638  25.984  0.00  0.00    +0.000 C 
ATOM     17  C   UNL     1     -69.577 -74.008  29.662  0.00  0.00    +0.000 C 
ATOM     18  C   UNL     1     -71.056 -74.294  27.996  0.00  0.00    +0.000 C 
ATOM     19  C   UNL     1     -70.879 -74.241  29.452  0.00  0.00    +0.000 C 
ATOM     20  C   UNL     1     -71.996 -74.403  30.406  0.00  0.00    +0.000 C 
ENDROOT
BRANCH   7  21
ATOM     21  O   UNL     1     -68.026 -71.636  28.333  0.00  0.00    +0.000 OA
ATOM     22  H   UNL     1     -68.686 -71.587  27.606  0.00  0.00    +0.000 HD
ENDBRANCH   7  21
BRANCH  13  23
ATOM     23  O   UNL     1     -70.052 -72.458  26.984  0.00  0.00    +0.000 OA
ATOM     24  H   UNL     1     -69.534 -71.936  27.632  0.00  0.00    +0.000 HD
ENDBRANCH  13  23
BRANCH   3  25
ATOM     25  O   UNL     1     -63.293 -72.296  28.042  0.00  0.00    +0.000 OA
BRANCH  25  27
ATOM     26  O   UNL     1     -62.224 -73.751  26.706  0.00  0.00    +0.000 OA
ATOM     27  C   UNL     1     -62.884 -73.551  27.724  0.00  0.00    +0.000 C 
ATOM     28  C   UNL     1     -63.182 -74.670  28.676  0.00  0.00    +0.000 C 
ENDBRANCH  25  27
ENDBRANCH   3  25
BRANCH  15  29
ATOM     29  C   UNL     1     -67.367 -75.804  25.370  0.00  0.00    +0.000 C 
BRANCH  29  30
ATOM     30  O   UNL     1     -66.404 -75.651  24.342  0.00  0.00    +0.000 OA
ATOM     31  H   UNL     1     -65.529 -75.695  24.768  0.00  0.00    +0.000 HD
ENDBRANCH  29  30
ENDBRANCH  15  29
BRANCH   6  32
ATOM     32  O   UNL     1     -64.433 -71.680  30.332  0.00  0.00    +0.000 OA
BRANCH  32  34
ATOM     33  O   UNL     1     -64.579 -69.486  30.743  0.00  0.00    +0.000 OA
ATOM     34  C   UNL     1     -64.096 -70.577  31.038  0.00  0.00    +0.000 C 
BRANCH  34  35
ATOM     35  C   UNL     1     -63.126 -70.701  32.187  0.00  0.00    +0.000 C 
BRANCH  35  36
ATOM     36  C   UNL     1     -62.113 -71.815  31.951  0.00  0.00    +0.000 C 
BRANCH  36  37
ATOM     37  C   UNL     1     -61.850 -72.695  33.178  0.00  0.00    +0.000 C 
BRANCH  37  38
ATOM     38  C   UNL     1     -62.128 -74.188  32.959  0.00  0.00    +0.000 C 
BRANCH  38  39
ATOM     39  C   UNL     1     -63.462 -74.438  32.248  0.00  0.00    +0.000 C 
BRANCH  39  40
ATOM     40  C   UNL     1     -64.493 -75.161  33.118  0.00  0.00    +0.000 C 
BRANCH  40  41
ATOM     41  C   UNL     1     -65.260 -74.218  34.049  0.00  0.00    +0.000 C 
BRANCH  41  42
ATOM     42  C   UNL     1     -66.224 -74.947  34.989  0.00  0.00    +0.000 C 
BRANCH  42  43
ATOM     43  C   UNL     1     -66.909 -76.188  34.410  0.00  0.00    +0.000 C 
BRANCH  43  44
ATOM     44  C   UNL     1     -68.281 -75.948  33.772  0.00  0.00    +0.000 C 
BRANCH  44  45
ATOM     45  C   UNL     1     -68.349 -76.148  32.255  0.00  0.00    +0.000 C 
BRANCH  45  46
ATOM     46  C   UNL     1     -67.337 -77.134  31.668  0.00  0.00    +0.000 C 
ATOM     47  C   UNL     1     -66.641 -76.615  30.419  0.00  0.00    +0.000 C 
ENDBRANCH  45  46
ENDBRANCH  44  45
ENDBRANCH  43  44
ENDBRANCH  42  43
ENDBRANCH  41  42
ENDBRANCH  40  41
ENDBRANCH  39  40
ENDBRANCH  38  39
ENDBRANCH  37  38
ENDBRANCH  36  37
ENDBRANCH  35  36
ENDBRANCH  34  35
ENDBRANCH  32  34
ENDBRANCH   6  32
TORSDOF 20
ENDMDL
MODEL 8
REMARK VINA RESULT:      -5.1     31.902     36.978
REMARK  Name = 27924_Phorbol.pdbqt.pdb
REMARK  26 active torsions:
REMARK  status: ('A' for Active; 'I' for Inactive)
REMARK    1  A    between atoms: O_1  and  C_10
REMARK    2  A    between atoms: O_1  and  C_26
REMARK    3  A    between atoms: O_2  and  C_13
REMARK    4  A    between atoms: O_2  and  C_28
REMARK    5  A    between atoms: O_3  and  C_14
REMARK    6  A    between atoms: O_4  and  C_20
REMARK    7  A    between atoms: O_7  and  C_29
REMARK    8  A    between atoms: C_11  and  C_16
REMARK    9  A    between atoms: C_11  and  C_17
REMARK   10  A    between atoms: C_15  and  C_21
REMARK   11  A    between atoms: C_22  and  C_29
REMARK   12  A    between atoms: C_26  and  C_30
REMARK   13  A    between atoms: C_27  and  C_31
REMARK   14  A    between atoms: C_28  and  C_32
REMARK   15  A    between atoms: C_32  and  C_33
REMARK   16  A    between atoms: C_33  and  C_34
REMARK   17  A    between atoms: C_34  and  C_35
REMARK   18  A    between atoms: C_35  and  C_36
REMARK   19  A    between atoms: C_36  and  C_37
REMARK   20  A    between atoms: C_37  and  C_38
REMARK   21  A    between atoms: C_38  and  C_39
REMARK   22  A    between atoms: C_39  and  C_40
REMARK   23  A    between atoms: C_40  and  C_41
REMARK   24  A    between atoms: C_41  and  C_42
REMARK   25  A    between atoms: C_42  and  C_43
REMARK   26  A    between atoms: C_43  and  C_44
REMARK                            x       y       z     vdW  Elec       q    Type
REMARK                         _______ _______ _______ _____ _____    ______ ____
ROOT
ATOM      1  O   UNL     1     -35.678 -67.172  68.720  0.00  0.00    +0.000 OA
ATOM      2  C   UNL     1     -34.427 -60.201  68.277  0.00  0.00    +0.000 C 
ATOM      3  C   UNL     1     -33.173 -59.702  67.584  0.00  0.00    +0.000 C 
ATOM      4  C   UNL     1     -33.314 -59.627  69.131  0.00  0.00    +0.000 C 
ATOM      5  C   UNL     1     -34.896 -61.614  68.094  0.00  0.00    +0.000 C 
ATOM      6  C   UNL     1     -32.317 -60.746  66.845  0.00  0.00    +0.000 C 
ATOM      7  C   UNL     1     -33.865 -62.679  67.498  0.00  0.00    +0.000 C 
ATOM      8  C   UNL     1     -33.196 -61.920  66.285  0.00  0.00    +0.000 C 
ATOM      9  C   UNL     1     -33.656 -58.304  69.795  0.00  0.00    +0.000 C 
ATOM     10  C   UNL     1     -32.507 -60.509  70.052  0.00  0.00    +0.000 C 
ATOM     11  C   UNL     1     -34.654 -64.055  67.210  0.00  0.00    +0.000 C 
ATOM     12  C   UNL     1     -35.691 -62.144  69.272  0.00  0.00    +0.000 C 
ATOM     13  C   UNL     1     -35.213 -64.794  68.506  0.00  0.00    +0.000 C 
ATOM     14  C   UNL     1     -32.377 -62.784  65.326  0.00  0.00    +0.000 C 
ATOM     15  C   UNL     1     -36.789 -62.871  68.972  0.00  0.00    +0.000 C 
ATOM     16  C   UNL     1     -36.623 -64.380  68.982  0.00  0.00    +0.000 C 
ATOM     17  C   UNL     1     -33.930 -65.215  66.538  0.00  0.00    +0.000 C 
ATOM     18  C   UNL     1     -35.156 -66.253  68.106  0.00  0.00    +0.000 C 
ATOM     19  C   UNL     1     -34.248 -66.442  66.970  0.00  0.00    +0.000 C 
ATOM     20  C   UNL     1     -33.816 -67.774  66.495  0.00  0.00    +0.000 C 
ENDROOT
BRANCH   7  21
ATOM     21  O   UNL     1     -32.805 -62.977  68.416  0.00  0.00    +0.000 OA
ATOM     22  H   UNL     1     -32.266 -63.702  68.029  0.00  0.00    +0.000 HD
ENDBRANCH   7  21
BRANCH  13  23
ATOM     23  O   UNL     1     -34.277 -64.712  69.608  0.00  0.00    +0.000 OA
ATOM     24  H   UNL     1     -33.384 -64.775  69.211  0.00  0.00    +0.000 HD
ENDBRANCH  13  23
BRANCH   3  25
ATOM     25  O   UNL     1     -33.488 -58.523  66.798  0.00  0.00    +0.000 OA
BRANCH  25  27
ATOM     26  O   UNL     1     -31.750 -57.225  67.380  0.00  0.00    +0.000 OA
ATOM     27  C   UNL     1     -32.636 -57.491  66.570  0.00  0.00    +0.000 C 
ATOM     28  C   UNL     1     -32.743 -56.738  65.278  0.00  0.00    +0.000 C 
ENDBRANCH  25  27
ENDBRANCH   3  25
BRANCH  15  29
ATOM     29  C   UNL     1     -37.915 -62.358  68.113  0.00  0.00    +0.000 C 
BRANCH  29  30
ATOM     30  O   UNL     1     -38.087 -63.252  67.026  0.00  0.00    +0.000 OA
ATOM     31  H   UNL     1     -37.281 -63.798  66.983  0.00  0.00    +0.000 HD
ENDBRANCH  29  30
ENDBRANCH  15  29
BRANCH   6  32
ATOM     32  O   UNL     1     -31.636 -60.073  65.751  0.00  0.00    +0.000 OA
BRANCH  32  34
ATOM     33  O   UNL     1     -29.593 -59.857  66.636  0.00  0.00    +0.000 OA
ATOM     34  C   UNL     1     -30.296 -59.926  65.631  0.00  0.00    +0.000 C 
BRANCH  34  35
ATOM     35  C   UNL     1     -29.680 -59.849  64.256  0.00  0.00    +0.000 C 
BRANCH  35  36
ATOM     36  C   UNL     1     -28.525 -60.830  64.100  0.00  0.00    +0.000 C 
BRANCH  36  37
ATOM     37  C   UNL     1     -28.952 -62.302  64.067  0.00  0.00    +0.000 C 
BRANCH  37  38
ATOM     38  C   UNL     1     -29.454 -62.786  62.700  0.00  0.00    +0.000 C 
BRANCH  38  39
ATOM     39  C   UNL     1     -29.546 -64.313  62.616  0.00  0.00    +0.000 C 
BRANCH  39  40
ATOM     40  C   UNL     1     -30.979 -64.833  62.481  0.00  0.00    +0.000 C 
BRANCH  40  41
ATOM     41  C   UNL     1     -31.942 -63.795  61.899  0.00  0.00    +0.000 C 
BRANCH  41  42
ATOM     42  C   UNL     1     -32.906 -64.377  60.861  0.00  0.00    +0.000 C 
BRANCH  42  43
ATOM     43  C   UNL     1     -32.528 -65.750  60.297  0.00  0.00    +0.000 C 
BRANCH  43  44
ATOM     44  C   UNL     1     -33.580 -66.849  60.472  0.00  0.00    +0.000 C 
BRANCH  44  45
ATOM     45  C   UNL     1     -33.281 -67.883  61.562  0.00  0.00    +0.000 C 
BRANCH  45  46
ATOM     46  C   UNL     1     -33.580 -67.442  62.997  0.00  0.00    +0.000 C 
ATOM     47  C   UNL     1     -34.781 -66.517  63.109  0.00  0.00    +0.000 C 
ENDBRANCH  45  46
ENDBRANCH  44  45
ENDBRANCH  43  44
ENDBRANCH  42  43
ENDBRANCH  41  42
ENDBRANCH  40  41
ENDBRANCH  39  40
ENDBRANCH  38  39
ENDBRANCH  37  38
ENDBRANCH  36  37
ENDBRANCH  35  36
ENDBRANCH  34  35
ENDBRANCH  32  34
ENDBRANCH   6  32
TORSDOF 20
ENDMDL
MODEL 9
REMARK VINA RESULT:      -5.0     17.707     21.571
REMARK  Name = 27924_Phorbol.pdbqt.pdb
REMARK  26 active torsions:
REMARK  status: ('A' for Active; 'I' for Inactive)
REMARK    1  A    between atoms: O_1  and  C_10
REMARK    2  A    between atoms: O_1  and  C_26
REMARK    3  A    between atoms: O_2  and  C_13
REMARK    4  A    between atoms: O_2  and  C_28
REMARK    5  A    between atoms: O_3  and  C_14
REMARK    6  A    between atoms: O_4  and  C_20
REMARK    7  A    between atoms: O_7  and  C_29
REMARK    8  A    between atoms: C_11  and  C_16
REMARK    9  A    between atoms: C_11  and  C_17
REMARK   10  A    between atoms: C_15  and  C_21
REMARK   11  A    between atoms: C_22  and  C_29
REMARK   12  A    between atoms: C_26  and  C_30
REMARK   13  A    between atoms: C_27  and  C_31
REMARK   14  A    between atoms: C_28  and  C_32
REMARK   15  A    between atoms: C_32  and  C_33
REMARK   16  A    between atoms: C_33  and  C_34
REMARK   17  A    between atoms: C_34  and  C_35
REMARK   18  A    between atoms: C_35  and  C_36
REMARK   19  A    between atoms: C_36  and  C_37
REMARK   20  A    between atoms: C_37  and  C_38
REMARK   21  A    between atoms: C_38  and  C_39
REMARK   22  A    between atoms: C_39  and  C_40
REMARK   23  A    between atoms: C_40  and  C_41
REMARK   24  A    between atoms: C_41  and  C_42
REMARK   25  A    between atoms: C_42  and  C_43
REMARK   26  A    between atoms: C_43  and  C_44
REMARK                            x       y       z     vdW  Elec       q    Type
REMARK                         _______ _______ _______ _____ _____    ______ ____
ROOT
ATOM      1  O   UNL     1     -72.214 -74.374  27.359  0.00  0.00    +0.000 OA
ATOM      2  C   UNL     1     -65.406 -72.482  26.703  0.00  0.00    +0.000 C 
ATOM      3  C   UNL     1     -64.668 -71.893  27.891  0.00  0.00    +0.000 C 
ATOM      4  C   UNL     1     -65.083 -71.002  26.685  0.00  0.00    +0.000 C 
ATOM      5  C   UNL     1     -66.709 -73.201  26.887  0.00  0.00    +0.000 C 
ATOM      6  C   UNL     1     -65.399 -71.904  29.247  0.00  0.00    +0.000 C 
ATOM      7  C   UNL     1     -67.497 -72.994  28.261  0.00  0.00    +0.000 C 
ATOM      8  C   UNL     1     -66.374 -73.128  29.365  0.00  0.00    +0.000 C 
ATOM      9  C   UNL     1     -64.044 -70.602  25.651  0.00  0.00    +0.000 C 
ATOM     10  C   UNL     1     -66.175 -69.966  26.793  0.00  0.00    +0.000 C 
ATOM     11  C   UNL     1     -68.746 -74.014  28.299  0.00  0.00    +0.000 C 
ATOM     12  C   UNL     1     -67.608 -73.143  25.666  0.00  0.00    +0.000 C 
ATOM     13  C   UNL     1     -69.871 -73.740  27.205  0.00  0.00    +0.000 C 
ATOM     14  C   UNL     1     -66.867 -73.276  30.804  0.00  0.00    +0.000 C 
ATOM     15  C   UNL     1     -68.248 -74.287  25.342  0.00  0.00    +0.000 C 
ATOM     16  C   UNL     1     -69.679 -74.423  25.833  0.00  0.00    +0.000 C 
ATOM     17  C   UNL     1     -69.611 -74.102  29.550  0.00  0.00    +0.000 C 
ATOM     18  C   UNL     1     -71.131 -74.209  27.900  0.00  0.00    +0.000 C 
ATOM     19  C   UNL     1     -70.923 -74.283  29.351  0.00  0.00    +0.000 C 
ATOM     20  C   UNL     1     -72.025 -74.496  30.313  0.00  0.00    +0.000 C 
ENDROOT
BRANCH   7  21
ATOM     21  O   UNL     1     -68.024 -71.667  28.388  0.00  0.00    +0.000 OA
ATOM     22  H   UNL     1     -67.992 -71.419  29.338  0.00  0.00    +0.000 HD
ENDBRANCH   7  21
BRANCH  13  23
ATOM     23  O   UNL     1     -70.098 -72.321  27.021  0.00  0.00    +0.000 OA
ATOM     24  H   UNL     1     -69.648 -71.875  27.768  0.00  0.00    +0.000 HD
ENDBRANCH  13  23
BRANCH   3  25
ATOM     25  O   UNL     1     -63.317 -72.421  27.936  0.00  0.00    +0.000 OA
BRANCH  25  27
ATOM     26  O   UNL     1     -63.342 -74.629  28.344  0.00  0.00    +0.000 OA
ATOM     27  C   UNL     1     -62.971 -73.697  27.633  0.00  0.00    +0.000 C 
ATOM     28  C   UNL     1     -62.200 -73.956  26.373  0.00  0.00    +0.000 C 
ENDBRANCH  25  27
ENDBRANCH   3  25
BRANCH  15  29
ATOM     29  C   UNL     1     -67.539 -75.589  25.075  0.00  0.00    +0.000 C 
BRANCH  29  30
ATOM     30  O   UNL     1     -66.568 -75.366  24.067  0.00  0.00    +0.000 OA
ATOM     31  H   UNL     1     -65.709 -75.287  24.518  0.00  0.00    +0.000 HD
ENDBRANCH  29  30
ENDBRANCH  15  29
BRANCH   6  32
ATOM     32  O   UNL     1     -64.394 -71.969  30.295  0.00  0.00    +0.000 OA
BRANCH  32  34
ATOM     33  O   UNL     1     -64.429 -69.802  30.847  0.00  0.00    +0.000 OA
ATOM     34  C   UNL     1     -63.950 -70.920  31.024  0.00  0.00    +0.000 C 
BRANCH  34  35
ATOM     35  C   UNL     1     -62.867 -71.137  32.052  0.00  0.00    +0.000 C 
BRANCH  35  36
ATOM     36  C   UNL     1     -62.080 -72.413  31.779  0.00  0.00    +0.000 C 
BRANCH  36  37
ATOM     37  C   UNL     1     -61.191 -72.863  32.944  0.00  0.00    +0.000 C 
BRANCH  37  38
ATOM     38  C   UNL     1     -59.690 -72.630  32.723  0.00  0.00    +0.000 C 
BRANCH  38  39
ATOM     39  C   UNL     1     -58.827 -73.320  33.784  0.00  0.00    +0.000 C 
BRANCH  39  40
ATOM     40  C   UNL     1     -57.327 -73.071  33.608  0.00  0.00    +0.000 C 
BRANCH  40  41
ATOM     41  C   UNL     1     -56.469 -74.280  33.992  0.00  0.00    +0.000 C 
BRANCH  41  42
ATOM     42  C   UNL     1     -55.409 -74.628  32.943  0.00  0.00    +0.000 C 
BRANCH  42  43
ATOM     43  C   UNL     1     -55.312 -73.671  31.751  0.00  0.00    +0.000 C 
BRANCH  43  44
ATOM     44  C   UNL     1     -55.169 -74.337  30.379  0.00  0.00    +0.000 C 
BRANCH  44  45
ATOM     45  C   UNL     1     -53.744 -74.410  29.823  0.00  0.00    +0.000 C 
BRANCH  45  46
ATOM     46  C   UNL     1     -53.566 -73.928  28.382  0.00  0.00    +0.000 C 
ATOM     47  C   UNL     1     -54.582 -72.876  27.965  0.00  0.00    +0.000 C 
ENDBRANCH  45  46
ENDBRANCH  44  45
ENDBRANCH  43  44
ENDBRANCH  42  43
ENDBRANCH  41  42
ENDBRANCH  40  41
ENDBRANCH  39  40
ENDBRANCH  38  39
ENDBRANCH  37  38
ENDBRANCH  36  37
ENDBRANCH  35  36
ENDBRANCH  34  35
ENDBRANCH  32  34
ENDBRANCH   6  32
TORSDOF 20
ENDMDL
