MODEL 1
REMARK VINA RESULT:      -3.8      0.000      0.000
REMARK  Name = 2Methylcholine.pdbqt.pdb
REMARK  3 active torsions:
REMARK  status: ('A' for Active; 'I' for Inactive)
REMARK    1  A    between atoms: C_1  and  N_2
REMARK    2  A    between atoms: C_1  and  C_6
REMARK    3  A    between atoms: C_6  and  O_8
REMARK                            x       y       z     vdW  Elec       q    Type
REMARK                         _______ _______ _______ _____ _____    ______ ____
ROOT
ATOM      1  C   UNL     1     -57.911 -61.106  41.296  0.00  0.00    +0.000 C 
ENDROOT
BRANCH   1   2
ATOM      2  N   UNL     1     -56.511 -61.436  41.116  0.00  0.00    +0.000 N 
ATOM      3  C   UNL     1     -55.906 -60.531  40.135  0.00  0.00    +0.000 C 
ATOM      4  C   UNL     1     -55.799 -61.308  42.391  0.00  0.00    +0.000 C 
ATOM      5  C   UNL     1     -56.385 -62.815  40.636  0.00  0.00    +0.000 C 
ENDBRANCH   1   2
BRANCH   1   6
ATOM      6  C   UNL     1     -59.257 -60.763  41.484  0.00  0.00    +0.000 C 
ATOM      7  C   UNL     1     -59.988 -61.141  42.717  0.00  0.00    +0.000 C 
BRANCH   6   8
ATOM      8  O   UNL     1     -59.964 -60.070  40.551  0.00  0.00    +0.000 OA
ATOM      9  H   UNL     1     -59.380 -59.388  40.166  0.00  0.00    +0.000 HD
ENDBRANCH   6   8
ENDBRANCH   1   6
TORSDOF 3
ENDMDL
MODEL 2
REMARK VINA RESULT:      -3.6      4.163      5.090
REMARK  Name = 2Methylcholine.pdbqt.pdb
REMARK  3 active torsions:
REMARK  status: ('A' for Active; 'I' for Inactive)
REMARK    1  A    between atoms: C_1  and  N_2
REMARK    2  A    between atoms: C_1  and  C_6
REMARK    3  A    between atoms: C_6  and  O_8
REMARK                            x       y       z     vdW  Elec       q    Type
REMARK                         _______ _______ _______ _____ _____    ______ ____
ROOT
ATOM      1  C   UNL     1     -61.690 -63.455  40.418  0.00  0.00    +0.000 C 
ENDROOT
BRANCH   1   2
ATOM      2  N   UNL     1     -60.540 -63.236  41.274  0.00  0.00    +0.000 N 
ATOM      3  C   UNL     1     -60.842 -63.680  42.638  0.00  0.00    +0.000 C 
ATOM      4  C   UNL     1     -59.389 -63.987  40.767  0.00  0.00    +0.000 C 
ATOM      5  C   UNL     1     -60.207 -61.809  41.299  0.00  0.00    +0.000 C 
ENDBRANCH   1   2
BRANCH   1   6
ATOM      6  C   UNL     1     -62.812 -63.683  39.609  0.00  0.00    +0.000 C 
ATOM      7  C   UNL     1     -62.801 -64.710  38.541  0.00  0.00    +0.000 C 
BRANCH   6   8
ATOM      8  O   UNL     1     -63.967 -62.979  39.760  0.00  0.00    +0.000 OA
ATOM      9  H   UNL     1     -64.093 -62.793  40.710  0.00  0.00    +0.000 HD
ENDBRANCH   6   8
ENDBRANCH   1   6
TORSDOF 3
ENDMDL
MODEL 3
REMARK VINA RESULT:      -3.6      3.146      4.228
REMARK  Name = 2Methylcholine.pdbqt.pdb
REMARK  3 active torsions:
REMARK  status: ('A' for Active; 'I' for Inactive)
REMARK    1  A    between atoms: C_1  and  N_2
REMARK    2  A    between atoms: C_1  and  C_6
REMARK    3  A    between atoms: C_6  and  O_8
REMARK                            x       y       z     vdW  Elec       q    Type
REMARK                         _______ _______ _______ _____ _____    ______ ____
ROOT
ATOM      1  C   UNL     1     -60.503 -62.263  41.052  0.00  0.00    +0.000 C 
ENDROOT
BRANCH   1   2
ATOM      2  N   UNL     1     -61.037 -63.562  40.692  0.00  0.00    +0.000 N 
ATOM      3  C   UNL     1     -59.939 -64.503  40.452  0.00  0.00    +0.000 C 
ATOM      4  C   UNL     1     -61.880 -64.073  41.776  0.00  0.00    +0.000 C 
ATOM      5  C   UNL     1     -61.842 -63.446  39.474  0.00  0.00    +0.000 C 
ENDBRANCH   1   2
BRANCH   1   6
ATOM      6  C   UNL     1     -60.013 -60.995  41.399  0.00  0.00    +0.000 C 
ATOM      7  C   UNL     1     -59.513 -60.705  42.763  0.00  0.00    +0.000 C 
BRANCH   6   8
ATOM      8  O   UNL     1     -59.970 -59.968  40.507  0.00  0.00    +0.000 OA
ATOM      9  H   UNL     1     -59.952 -59.128  41.005  0.00  0.00    +0.000 HD
ENDBRANCH   6   8
ENDBRANCH   1   6
TORSDOF 3
ENDMDL
MODEL 4
REMARK VINA RESULT:      -3.5      3.324      4.597
REMARK  Name = 2Methylcholine.pdbqt.pdb
REMARK  3 active torsions:
REMARK  status: ('A' for Active; 'I' for Inactive)
REMARK    1  A    between atoms: C_1  and  N_2
REMARK    2  A    between atoms: C_1  and  C_6
REMARK    3  A    between atoms: C_6  and  O_8
REMARK                            x       y       z     vdW  Elec       q    Type
REMARK                         _______ _______ _______ _____ _____    ______ ____
ROOT
ATOM      1  C   UNL     1     -54.429 -60.318  41.215  0.00  0.00    +0.000 C 
ENDROOT
BRANCH   1   2
ATOM      2  N   UNL     1     -55.377 -61.409  41.101  0.00  0.00    +0.000 N 
ATOM      3  C   UNL     1     -56.263 -61.423  42.269  0.00  0.00    +0.000 C 
ATOM      4  C   UNL     1     -56.183 -61.246  39.889  0.00  0.00    +0.000 C 
ATOM      5  C   UNL     1     -54.659 -62.684  41.031  0.00  0.00    +0.000 C 
ENDBRANCH   1   2
BRANCH   1   6
ATOM      6  C   UNL     1     -53.530 -59.247  41.311  0.00  0.00    +0.000 C 
ATOM      7  C   UNL     1     -53.525 -58.342  42.485  0.00  0.00    +0.000 C 
BRANCH   6   8
ATOM      8  O   UNL     1     -52.617 -58.979  40.338  0.00  0.00    +0.000 OA
ATOM      9  H   UNL     1     -51.727 -59.183  40.685  0.00  0.00    +0.000 HD
ENDBRANCH   6   8
ENDBRANCH   1   6
TORSDOF 3
ENDMDL
MODEL 5
REMARK VINA RESULT:      -3.5      2.898      3.614
REMARK  Name = 2Methylcholine.pdbqt.pdb
REMARK  3 active torsions:
REMARK  status: ('A' for Active; 'I' for Inactive)
REMARK    1  A    between atoms: C_1  and  N_2
REMARK    2  A    between atoms: C_1  and  C_6
REMARK    3  A    between atoms: C_6  and  O_8
REMARK                            x       y       z     vdW  Elec       q    Type
REMARK                         _______ _______ _______ _____ _____    ______ ____
ROOT
ATOM      1  C   UNL     1     -59.632 -62.803  41.746  0.00  0.00    +0.000 C 
ENDROOT
BRANCH   1   2
ATOM      2  N   UNL     1     -59.102 -61.458  41.851  0.00  0.00    +0.000 N 
ATOM      3  C   UNL     1     -59.876 -60.548  41.002  0.00  0.00    +0.000 C 
ATOM      4  C   UNL     1     -59.176 -60.999  43.241  0.00  0.00    +0.000 C 
ATOM      5  C   UNL     1     -57.703 -61.443  41.417  0.00  0.00    +0.000 C 
ENDBRANCH   1   2
BRANCH   1   6
ATOM      6  C   UNL     1     -60.146 -64.106  41.672  0.00  0.00    +0.000 C 
ATOM      7  C   UNL     1     -60.020 -64.919  40.440  0.00  0.00    +0.000 C 
BRANCH   6   8
ATOM      8  O   UNL     1     -60.785 -64.692  42.721  0.00  0.00    +0.000 OA
ATOM      9  H   UNL     1     -61.683 -64.944  42.433  0.00  0.00    +0.000 HD
ENDBRANCH   6   8
ENDBRANCH   1   6
TORSDOF 3
ENDMDL
MODEL 6
REMARK VINA RESULT:      -3.4      5.321      6.920
REMARK  Name = 2Methylcholine.pdbqt.pdb
REMARK  3 active torsions:
REMARK  status: ('A' for Active; 'I' for Inactive)
REMARK    1  A    between atoms: C_1  and  N_2
REMARK    2  A    between atoms: C_1  and  C_6
REMARK    3  A    between atoms: C_6  and  O_8
REMARK                            x       y       z     vdW  Elec       q    Type
REMARK                         _______ _______ _______ _____ _____    ______ ____
ROOT
ATOM      1  C   UNL     1     -51.981 -58.972  40.918  0.00  0.00    +0.000 C 
ENDROOT
BRANCH   1   2
ATOM      2  N   UNL     1     -53.215 -59.553  41.409  0.00  0.00    +0.000 N 
ATOM      3  C   UNL     1     -53.440 -59.146  42.799  0.00  0.00    +0.000 C 
ATOM      4  C   UNL     1     -54.342 -59.102  40.588  0.00  0.00    +0.000 C 
ATOM      5  C   UNL     1     -53.133 -61.015  41.347  0.00  0.00    +0.000 C 
ENDBRANCH   1   2
BRANCH   1   6
ATOM      6  C   UNL     1     -50.803 -58.391  40.428  0.00  0.00    +0.000 C 
ATOM      7  C   UNL     1     -49.675 -58.052  41.328  0.00  0.00    +0.000 C 
BRANCH   6   8
ATOM      8  O   UNL     1     -50.630 -58.108  39.108  0.00  0.00    +0.000 OA
ATOM      9  H   UNL     1     -49.940 -57.422  39.028  0.00  0.00    +0.000 HD
ENDBRANCH   6   8
ENDBRANCH   1   6
TORSDOF 3
ENDMDL
MODEL 7
REMARK VINA RESULT:      -3.4      5.481      6.544
REMARK  Name = 2Methylcholine.pdbqt.pdb
REMARK  3 active torsions:
REMARK  status: ('A' for Active; 'I' for Inactive)
REMARK    1  A    between atoms: C_1  and  N_2
REMARK    2  A    between atoms: C_1  and  C_6
REMARK    3  A    between atoms: C_6  and  O_8
REMARK                            x       y       z     vdW  Elec       q    Type
REMARK                         _______ _______ _______ _____ _____    ______ ____
ROOT
ATOM      1  C   UNL     1     -51.864 -59.591  41.945  0.00  0.00    +0.000 C 
ENDROOT
BRANCH   1   2
ATOM      2  N   UNL     1     -50.615 -59.005  42.389  0.00  0.00    +0.000 N 
ATOM      3  C   UNL     1     -50.557 -57.594  41.993  0.00  0.00    +0.000 C 
ATOM      4  C   UNL     1     -50.509 -59.100  43.847  0.00  0.00    +0.000 C 
ATOM      5  C   UNL     1     -49.489 -59.718  41.781  0.00  0.00    +0.000 C 
ENDBRANCH   1   2
BRANCH   1   6
ATOM      6  C   UNL     1     -53.078 -60.135  41.500  0.00  0.00    +0.000 C 
ATOM      7  C   UNL     1     -54.069 -59.317  40.762  0.00  0.00    +0.000 C 
BRANCH   6   8
ATOM      8  O   UNL     1     -53.411 -61.436  41.722  0.00  0.00    +0.000 OA
ATOM      9  H   UNL     1     -54.320 -61.465  42.078  0.00  0.00    +0.000 HD
ENDBRANCH   6   8
ENDBRANCH   1   6
TORSDOF 3
ENDMDL
MODEL 8
REMARK VINA RESULT:      -3.3      7.979      9.057
REMARK  Name = 2Methylcholine.pdbqt.pdb
REMARK  3 active torsions:
REMARK  status: ('A' for Active; 'I' for Inactive)
REMARK    1  A    between atoms: C_1  and  N_2
REMARK    2  A    between atoms: C_1  and  C_6
REMARK    3  A    between atoms: C_6  and  O_8
REMARK                            x       y       z     vdW  Elec       q    Type
REMARK                         _______ _______ _______ _____ _____    ______ ____
ROOT
ATOM      1  C   UNL     1     -49.599 -59.840  43.901  0.00  0.00    +0.000 C 
ENDROOT
BRANCH   1   2
ATOM      2  N   UNL     1     -48.582 -60.557  44.646  0.00  0.00    +0.000 N 
ATOM      3  C   UNL     1     -48.709 -61.997  44.403  0.00  0.00    +0.000 C 
ATOM      4  C   UNL     1     -47.250 -60.114  44.226  0.00  0.00    +0.000 C 
ATOM      5  C   UNL     1     -48.742 -60.297  46.079  0.00  0.00    +0.000 C 
ENDBRANCH   1   2
BRANCH   1   6
ATOM      6  C   UNL     1     -50.595 -59.140  43.206  0.00  0.00    +0.000 C 
ATOM      7  C   UNL     1     -50.257 -58.124  42.181  0.00  0.00    +0.000 C 
BRANCH   6   8
ATOM      8  O   UNL     1     -51.920 -59.354  43.431  0.00  0.00    +0.000 OA
ATOM      9  H   UNL     1     -52.009 -59.999  44.159  0.00  0.00    +0.000 HD
ENDBRANCH   6   8
ENDBRANCH   1   6
TORSDOF 3
ENDMDL
MODEL 9
REMARK VINA RESULT:      -3.3     16.740     17.615
REMARK  Name = 2Methylcholine.pdbqt.pdb
REMARK  3 active torsions:
REMARK  status: ('A' for Active; 'I' for Inactive)
REMARK    1  A    between atoms: C_1  and  N_2
REMARK    2  A    between atoms: C_1  and  C_6
REMARK    3  A    between atoms: C_6  and  O_8
REMARK                            x       y       z     vdW  Elec       q    Type
REMARK                         _______ _______ _______ _____ _____    ______ ____
ROOT
ATOM      1  C   UNL     1     -44.126 -52.155  34.859  0.00  0.00    +0.000 C 
ENDROOT
BRANCH   1   2
ATOM      2  N   UNL     1     -43.350 -53.378  34.826  0.00  0.00    +0.000 N 
ATOM      3  C   UNL     1     -43.146 -53.803  33.438  0.00  0.00    +0.000 C 
ATOM      4  C   UNL     1     -42.046 -53.160  35.458  0.00  0.00    +0.000 C 
ATOM      5  C   UNL     1     -44.061 -54.435  35.550  0.00  0.00    +0.000 C 
ENDBRANCH   1   2
BRANCH   1   6
ATOM      6  C   UNL     1     -44.862 -50.963  34.913  0.00  0.00    +0.000 C 
ATOM      7  C   UNL     1     -45.977 -50.697  33.974  0.00  0.00    +0.000 C 
BRANCH   6   8
ATOM      8  O   UNL     1     -44.596 -49.989  35.826  0.00  0.00    +0.000 OA
ATOM      9  H   UNL     1     -45.247 -50.059  36.551  0.00  0.00    +0.000 HD
ENDBRANCH   6   8
ENDBRANCH   1   6
TORSDOF 3
ENDMDL
