MODEL 1
REMARK VINA RESULT:      -8.2      0.000      0.000
REMARK  Name = 3035817_K252a.pdbqt.pdb
REMARK  3 active torsions:
REMARK  status: ('A' for Active; 'I' for Inactive)
REMARK    1  A    between atoms: C_3  and  O_7
REMARK    2  A    between atoms: C_3  and  C_9
REMARK    3  A    between atoms: C_9  and  O_11
REMARK                            x       y       z     vdW  Elec       q    Type
REMARK                         _______ _______ _______ _____ _____    ______ ____
ROOT
ATOM      1  O   UNL     1     -43.907 -78.716  60.800  0.00  0.00    +0.000 OA
ATOM      2  C   UNL     1     -43.004 -77.767  60.129  0.00  0.00    +0.000 C 
ATOM      3  C   UNL     1     -43.923 -77.065  59.039  0.00  0.00    +0.000 C 
ATOM      4  C   UNL     1     -45.136 -78.037  60.867  0.00  0.00    +0.000 C 
ATOM      5  C   UNL     1     -45.218 -77.257  59.687  0.00  0.00    +0.000 C 
ATOM      6  C   UNL     1     -41.851 -78.644  59.541  0.00  0.00    +0.000 C 
ATOM      7  N   UNL     1     -42.521 -76.838  61.171  0.00  0.00    +0.000 N 
ATOM      8  C   UNL     1     -43.108 -76.405  62.332  0.00  0.00    +0.000 A 
ATOM      9  C   UNL     1     -44.410 -76.662  62.765  0.00  0.00    +0.000 A 
ATOM     10  C   UNL     1     -42.400 -75.541  63.174  0.00  0.00    +0.000 A 
ATOM     11  N   UNL     1     -45.335 -77.374  62.065  0.00  0.00    +0.000 N 
ATOM     12  C   UNL     1     -44.789 -76.019  63.948  0.00  0.00    +0.000 A 
ATOM     13  C   UNL     1     -46.478 -77.140  62.849  0.00  0.00    +0.000 A 
ATOM     14  C   UNL     1     -46.162 -76.341  64.013  0.00  0.00    +0.000 A 
ATOM     15  C   UNL     1     -47.788 -77.594  62.622  0.00  0.00    +0.000 A 
ATOM     16  C   UNL     1     -47.211 -76.026  64.900  0.00  0.00    +0.000 A 
ATOM     17  C   UNL     1     -48.504 -76.488  64.658  0.00  0.00    +0.000 A 
ATOM     18  C   UNL     1     -48.784 -77.256  63.537  0.00  0.00    +0.000 A 
ATOM     19  C   UNL     1     -44.081 -75.162  64.816  0.00  0.00    +0.000 A 
ATOM     20  C   UNL     1     -42.751 -74.905  64.373  0.00  0.00    +0.000 A 
ATOM     21  C   UNL     1     -44.362 -74.429  66.027  0.00  0.00    +0.000 C 
ATOM     22  C   UNL     1     -42.153 -73.956  65.352  0.00  0.00    +0.000 C 
ATOM     23  N   UNL     1     -43.150 -73.759  66.242  0.00  0.00    +0.000 N 
ATOM     24  H   UNL     1     -43.045 -73.150  67.042  0.00  0.00    +0.000 HD
ATOM     25  O   UNL     1     -45.339 -74.335  66.754  0.00  0.00    +0.000 OA
ATOM     26  C   UNL     1     -41.212 -75.336  62.450  0.00  0.00    +0.000 A 
ATOM     27  C   UNL     1     -41.310 -76.102  61.227  0.00  0.00    +0.000 A 
ATOM     28  C   UNL     1     -40.058 -74.555  62.663  0.00  0.00    +0.000 A 
ATOM     29  C   UNL     1     -40.277 -76.037  60.277  0.00  0.00    +0.000 A 
ATOM     30  C   UNL     1     -39.154 -75.249  60.535  0.00  0.00    +0.000 A 
ATOM     31  C   UNL     1     -39.041 -74.524  61.710  0.00  0.00    +0.000 A 
ENDROOT
BRANCH   3  32
ATOM     32  O   UNL     1     -43.691 -75.659  58.869  0.00  0.00    +0.000 OA
ATOM     33  H   UNL     1     -43.915 -75.436  57.939  0.00  0.00    +0.000 HD
ENDBRANCH   3  32
BRANCH   3  34
ATOM     34  C   UNL     1     -43.854 -77.783  57.693  0.00  0.00    +0.000 C 
ATOM     35  O   UNL     1     -44.524 -78.799  57.491  0.00  0.00    +0.000 OA
BRANCH  34  36
ATOM     36  O   UNL     1     -42.957 -77.190  56.849  0.00  0.00    +0.000 OA
ATOM     37  C   UNL     1     -43.387 -76.887  55.549  0.00  0.00    +0.000 C 
ENDBRANCH  34  36
ENDBRANCH   3  34
TORSDOF 3
ENDMDL
MODEL 2
REMARK VINA RESULT:      -7.9     31.885     35.357
REMARK  Name = 3035817_K252a.pdbqt.pdb
REMARK  3 active torsions:
REMARK  status: ('A' for Active; 'I' for Inactive)
REMARK    1  A    between atoms: C_3  and  O_7
REMARK    2  A    between atoms: C_3  and  C_9
REMARK    3  A    between atoms: C_9  and  O_11
REMARK                            x       y       z     vdW  Elec       q    Type
REMARK                         _______ _______ _______ _____ _____    ______ ____
ROOT
ATOM      1  O   UNL     1     -44.139 -62.618  28.796  0.00  0.00    +0.000 OA
ATOM      2  C   UNL     1     -45.111 -61.804  29.544  0.00  0.00    +0.000 C 
ATOM      3  C   UNL     1     -45.984 -61.108  28.412  0.00  0.00    +0.000 C 
ATOM      4  C   UNL     1     -44.870 -63.110  27.700  0.00  0.00    +0.000 C 
ATOM      5  C   UNL     1     -45.786 -62.089  27.348  0.00  0.00    +0.000 C 
ATOM      6  C   UNL     1     -44.250 -60.819  30.399  0.00  0.00    +0.000 C 
ATOM      7  N   UNL     1     -45.886 -62.741  30.384  0.00  0.00    +0.000 N 
ATOM      8  C   UNL     1     -46.209 -64.060  30.196  0.00  0.00    +0.000 A 
ATOM      9  C   UNL     1     -45.973 -64.832  29.058  0.00  0.00    +0.000 A 
ATOM     10  C   UNL     1     -46.930 -64.734  31.187  0.00  0.00    +0.000 A 
ATOM     11  N   UNL     1     -45.398 -64.372  27.913  0.00  0.00    +0.000 N 
ATOM     12  C   UNL     1     -46.492 -66.131  29.093  0.00  0.00    +0.000 A 
ATOM     13  C   UNL     1     -45.599 -65.478  27.069  0.00  0.00    +0.000 A 
ATOM     14  C   UNL     1     -46.237 -66.568  27.774  0.00  0.00    +0.000 A 
ATOM     15  C   UNL     1     -45.244 -65.606  25.716  0.00  0.00    +0.000 A 
ATOM     16  C   UNL     1     -46.501 -67.752  27.057  0.00  0.00    +0.000 A 
ATOM     17  C   UNL     1     -46.140 -67.861  25.714  0.00  0.00    +0.000 A 
ATOM     18  C   UNL     1     -45.524 -66.804  25.058  0.00  0.00    +0.000 A 
ATOM     19  C   UNL     1     -47.203 -66.828  30.091  0.00  0.00    +0.000 A 
ATOM     20  C   UNL     1     -47.439 -66.038  31.253  0.00  0.00    +0.000 A 
ATOM     21  C   UNL     1     -47.803 -68.133  30.235  0.00  0.00    +0.000 C 
ATOM     22  C   UNL     1     -48.234 -66.883  32.187  0.00  0.00    +0.000 C 
ATOM     23  N   UNL     1     -48.378 -68.043  31.509  0.00  0.00    +0.000 N 
ATOM     24  H   UNL     1     -48.882 -68.831  31.891  0.00  0.00    +0.000 HD
ATOM     25  O   UNL     1     -47.862 -69.123  29.521  0.00  0.00    +0.000 OA
ATOM     26  C   UNL     1     -47.155 -63.714  32.129  0.00  0.00    +0.000 A 
ATOM     27  C   UNL     1     -46.545 -62.507  31.617  0.00  0.00    +0.000 A 
ATOM     28  C   UNL     1     -47.845 -63.649  33.357  0.00  0.00    +0.000 A 
ATOM     29  C   UNL     1     -46.666 -61.304  32.334  0.00  0.00    +0.000 A 
ATOM     30  C   UNL     1     -47.357 -61.293  33.546  0.00  0.00    +0.000 A 
ATOM     31  C   UNL     1     -47.933 -62.446  34.055  0.00  0.00    +0.000 A 
ENDROOT
BRANCH   3  32
ATOM     32  O   UNL     1     -47.386 -61.014  28.704  0.00  0.00    +0.000 OA
ATOM     33  H   UNL     1     -47.857 -60.916  27.848  0.00  0.00    +0.000 HD
ENDBRANCH   3  32
BRANCH   3  34
ATOM     34  C   UNL     1     -45.426 -59.740  28.029  0.00  0.00    +0.000 C 
ATOM     35  O   UNL     1     -45.697 -58.742  28.702  0.00  0.00    +0.000 OA
BRANCH  34  36
ATOM     36  O   UNL     1     -44.689 -59.799  26.878  0.00  0.00    +0.000 OA
ATOM     37  C   UNL     1     -43.339 -59.426  26.950  0.00  0.00    +0.000 C 
ENDBRANCH  34  36
ENDBRANCH   3  34
TORSDOF 3
ENDMDL
MODEL 3
REMARK VINA RESULT:      -7.9      1.985      3.285
REMARK  Name = 3035817_K252a.pdbqt.pdb
REMARK  3 active torsions:
REMARK  status: ('A' for Active; 'I' for Inactive)
REMARK    1  A    between atoms: C_3  and  O_7
REMARK    2  A    between atoms: C_3  and  C_9
REMARK    3  A    between atoms: C_9  and  O_11
REMARK                            x       y       z     vdW  Elec       q    Type
REMARK                         _______ _______ _______ _____ _____    ______ ____
ROOT
ATOM      1  O   UNL     1     -44.307 -79.149  60.851  0.00  0.00    +0.000 OA
ATOM      2  C   UNL     1     -43.448 -77.960  60.974  0.00  0.00    +0.000 C 
ATOM      3  C   UNL     1     -43.658 -77.188  59.601  0.00  0.00    +0.000 C 
ATOM      4  C   UNL     1     -45.445 -78.684  60.169  0.00  0.00    +0.000 C 
ATOM      5  C   UNL     1     -44.986 -77.696  59.264  0.00  0.00    +0.000 C 
ATOM      6  C   UNL     1     -42.003 -78.518  61.192  0.00  0.00    +0.000 C 
ATOM      7  N   UNL     1     -43.936 -77.207  62.147  0.00  0.00    +0.000 N 
ATOM      8  C   UNL     1     -45.189 -77.115  62.699  0.00  0.00    +0.000 A 
ATOM      9  C   UNL     1     -46.375 -77.643  62.188  0.00  0.00    +0.000 A 
ATOM     10  C   UNL     1     -45.370 -76.351  63.856  0.00  0.00    +0.000 A 
ATOM     11  N   UNL     1     -46.482 -78.320  61.012  0.00  0.00    +0.000 N 
ATOM     12  C   UNL     1     -47.534 -77.322  62.903  0.00  0.00    +0.000 A 
ATOM     13  C   UNL     1     -47.880 -78.423  60.906  0.00  0.00    +0.000 A 
ATOM     14  C   UNL     1     -48.537 -77.846  62.059  0.00  0.00    +0.000 A 
ATOM     15  C   UNL     1     -48.626 -79.005  59.868  0.00  0.00    +0.000 A 
ATOM     16  C   UNL     1     -49.945 -77.878  62.098  0.00  0.00    +0.000 A 
ATOM     17  C   UNL     1     -50.669 -78.462  61.059  0.00  0.00    +0.000 A 
ATOM     18  C   UNL     1     -50.017 -79.013  59.964  0.00  0.00    +0.000 A 
ATOM     19  C   UNL     1     -47.729 -76.570  64.080  0.00  0.00    +0.000 A 
ATOM     20  C   UNL     1     -46.515 -76.036  64.601  0.00  0.00    +0.000 A 
ATOM     21  C   UNL     1     -48.853 -76.153  64.885  0.00  0.00    +0.000 C 
ATOM     22  C   UNL     1     -46.883 -75.234  65.800  0.00  0.00    +0.000 C 
ATOM     23  N   UNL     1     -48.226 -75.374  65.866  0.00  0.00    +0.000 N 
ATOM     24  H   UNL     1     -48.778 -74.936  66.591  0.00  0.00    +0.000 HD
ATOM     25  O   UNL     1     -50.056 -76.356  64.831  0.00  0.00    +0.000 OA
ATOM     26  C   UNL     1     -44.081 -75.830  64.067  0.00  0.00    +0.000 A 
ATOM     27  C   UNL     1     -43.231 -76.331  63.010  0.00  0.00    +0.000 A 
ATOM     28  C   UNL     1     -43.524 -74.950  65.018  0.00  0.00    +0.000 A 
ATOM     29  C   UNL     1     -41.888 -75.920  62.940  0.00  0.00    +0.000 A 
ATOM     30  C   UNL     1     -41.384 -75.049  63.905  0.00  0.00    +0.000 A 
ATOM     31  C   UNL     1     -42.185 -74.576  64.932  0.00  0.00    +0.000 A 
ENDROOT
BRANCH   3  32
ATOM     32  O   UNL     1     -43.722 -75.758  59.716  0.00  0.00    +0.000 OA
ATOM     33  H   UNL     1     -42.960 -75.475  60.268  0.00  0.00    +0.000 HD
ENDBRANCH   3  32
BRANCH   3  34
ATOM     34  C   UNL     1     -42.619 -77.592  58.558  0.00  0.00    +0.000 C 
ATOM     35  O   UNL     1     -42.668 -78.703  58.024  0.00  0.00    +0.000 OA
BRANCH  34  36
ATOM     36  O   UNL     1     -41.675 -76.619  58.380  0.00  0.00    +0.000 OA
ATOM     37  C   UNL     1     -40.348 -77.025  58.186  0.00  0.00    +0.000 C 
ENDBRANCH  34  36
ENDBRANCH   3  34
TORSDOF 3
ENDMDL
MODEL 4
REMARK VINA RESULT:      -7.8     32.702     36.607
REMARK  Name = 3035817_K252a.pdbqt.pdb
REMARK  3 active torsions:
REMARK  status: ('A' for Active; 'I' for Inactive)
REMARK    1  A    between atoms: C_3  and  O_7
REMARK    2  A    between atoms: C_3  and  C_9
REMARK    3  A    between atoms: C_9  and  O_11
REMARK                            x       y       z     vdW  Elec       q    Type
REMARK                         _______ _______ _______ _____ _____    ______ ____
ROOT
ATOM      1  O   UNL     1     -44.381 -53.886  32.380  0.00  0.00    +0.000 OA
ATOM      2  C   UNL     1     -43.842 -52.521  32.479  0.00  0.00    +0.000 C 
ATOM      3  C   UNL     1     -44.478 -51.950  33.819  0.00  0.00    +0.000 C 
ATOM      4  C   UNL     1     -44.406 -54.345  33.709  0.00  0.00    +0.000 C 
ATOM      5  C   UNL     1     -44.708 -53.216  34.509  0.00  0.00    +0.000 C 
ATOM      6  C   UNL     1     -44.314 -51.798  31.175  0.00  0.00    +0.000 C 
ATOM      7  N   UNL     1     -42.372 -52.652  32.540  0.00  0.00    +0.000 N 
ATOM      8  C   UNL     1     -41.579 -53.659  33.030  0.00  0.00    +0.000 A 
ATOM      9  C   UNL     1     -41.994 -54.796  33.723  0.00  0.00    +0.000 A 
ATOM     10  C   UNL     1     -40.189 -53.545  32.924  0.00  0.00    +0.000 A 
ATOM     11  N   UNL     1     -43.282 -55.074  34.061  0.00  0.00    +0.000 N 
ATOM     12  C   UNL     1     -40.967 -55.621  34.196  0.00  0.00    +0.000 A 
ATOM     13  C   UNL     1     -43.090 -56.188  34.896  0.00  0.00    +0.000 A 
ATOM     14  C   UNL     1     -41.692 -56.554  34.969  0.00  0.00    +0.000 A 
ATOM     15  C   UNL     1     -44.064 -56.923  35.592  0.00  0.00    +0.000 A 
ATOM     16  C   UNL     1     -41.342 -57.659  35.769  0.00  0.00    +0.000 A 
ATOM     17  C   UNL     1     -42.323 -58.378  36.451  0.00  0.00    +0.000 A 
ATOM     18  C   UNL     1     -43.659 -58.012  36.363  0.00  0.00    +0.000 A 
ATOM     19  C   UNL     1     -39.565 -55.529  34.080  0.00  0.00    +0.000 A 
ATOM     20  C   UNL     1     -39.145 -54.369  33.367  0.00  0.00    +0.000 A 
ATOM     21  C   UNL     1     -38.422 -56.285  34.535  0.00  0.00    +0.000 C 
ATOM     22  C   UNL     1     -37.656 -54.383  33.371  0.00  0.00    +0.000 C 
ATOM     23  N   UNL     1     -37.359 -55.510  34.055  0.00  0.00    +0.000 N 
ATOM     24  H   UNL     1     -36.406 -55.799  34.227  0.00  0.00    +0.000 HD
ATOM     25  O   UNL     1     -38.288 -57.322  35.168  0.00  0.00    +0.000 OA
ATOM     26  C   UNL     1     -40.044 -52.277  32.334  0.00  0.00    +0.000 A 
ATOM     27  C   UNL     1     -41.369 -51.735  32.135  0.00  0.00    +0.000 A 
ATOM     28  C   UNL     1     -38.933 -51.488  31.970  0.00  0.00    +0.000 A 
ATOM     29  C   UNL     1     -41.524 -50.441  31.609  0.00  0.00    +0.000 A 
ATOM     30  C   UNL     1     -40.393 -49.700  31.263  0.00  0.00    +0.000 A 
ATOM     31  C   UNL     1     -39.118 -50.215  31.433  0.00  0.00    +0.000 A 
ENDROOT
BRANCH   3  32
ATOM     32  O   UNL     1     -43.593 -51.142  34.609  0.00  0.00    +0.000 OA
ATOM     33  H   UNL     1     -42.675 -51.422  34.400  0.00  0.00    +0.000 HD
ENDBRANCH   3  32
BRANCH   3  34
ATOM     34  C   UNL     1     -45.785 -51.206  33.553  0.00  0.00    +0.000 C 
ATOM     35  O   UNL     1     -46.757 -51.799  33.080  0.00  0.00    +0.000 OA
BRANCH  34  36
ATOM     36  O   UNL     1     -45.679 -49.876  33.852  0.00  0.00    +0.000 OA
ATOM     37  C   UNL     1     -46.845 -49.100  33.792  0.00  0.00    +0.000 C 
ENDBRANCH  34  36
ENDBRANCH   3  34
TORSDOF 3
ENDMDL
MODEL 5
REMARK VINA RESULT:      -7.4     23.641     28.218
REMARK  Name = 3035817_K252a.pdbqt.pdb
REMARK  3 active torsions:
REMARK  status: ('A' for Active; 'I' for Inactive)
REMARK    1  A    between atoms: C_3  and  O_7
REMARK    2  A    between atoms: C_3  and  C_9
REMARK    3  A    between atoms: C_9  and  O_11
REMARK                            x       y       z     vdW  Elec       q    Type
REMARK                         _______ _______ _______ _____ _____    ______ ____
ROOT
ATOM      1  O   UNL     1     -47.601 -62.463  36.670  0.00  0.00    +0.000 OA
ATOM      2  C   UNL     1     -46.782 -62.719  35.474  0.00  0.00    +0.000 C 
ATOM      3  C   UNL     1     -45.724 -61.533  35.470  0.00  0.00    +0.000 C 
ATOM      4  C   UNL     1     -46.683 -61.985  37.622  0.00  0.00    +0.000 C 
ATOM      5  C   UNL     1     -45.723 -61.234  36.899  0.00  0.00    +0.000 C 
ATOM      6  C   UNL     1     -47.787 -62.698  34.276  0.00  0.00    +0.000 C 
ATOM      7  N   UNL     1     -46.167 -64.049  35.661  0.00  0.00    +0.000 N 
ATOM      8  C   UNL     1     -45.809 -64.721  36.802  0.00  0.00    +0.000 A 
ATOM      9  C   UNL     1     -45.834 -64.235  38.110  0.00  0.00    +0.000 A 
ATOM     10  C   UNL     1     -45.274 -66.009  36.695  0.00  0.00    +0.000 A 
ATOM     11  N   UNL     1     -46.196 -62.972  38.462  0.00  0.00    +0.000 N 
ATOM     12  C   UNL     1     -45.324 -65.100  39.083  0.00  0.00    +0.000 A 
ATOM     13  C   UNL     1     -45.842 -62.978  39.823  0.00  0.00    +0.000 A 
ATOM     14  C   UNL     1     -45.336 -64.272  40.227  0.00  0.00    +0.000 A 
ATOM     15  C   UNL     1     -45.948 -61.926  40.747  0.00  0.00    +0.000 A 
ATOM     16  C   UNL     1     -44.942 -64.434  41.570  0.00  0.00    +0.000 A 
ATOM     17  C   UNL     1     -45.056 -63.378  42.473  0.00  0.00    +0.000 A 
ATOM     18  C   UNL     1     -45.549 -62.147  42.065  0.00  0.00    +0.000 A 
ATOM     19  C   UNL     1     -44.800 -66.406  38.993  0.00  0.00    +0.000 A 
ATOM     20  C   UNL     1     -44.780 -66.901  37.657  0.00  0.00    +0.000 A 
ATOM     21  C   UNL     1     -44.230 -67.374  39.900  0.00  0.00    +0.000 C 
ATOM     22  C   UNL     1     -44.161 -68.254  37.714  0.00  0.00    +0.000 C 
ATOM     23  N   UNL     1     -43.894 -68.418  39.028  0.00  0.00    +0.000 N 
ATOM     24  H   UNL     1     -43.462 -69.257  39.389  0.00  0.00    +0.000 HD
ATOM     25  O   UNL     1     -44.040 -67.396  41.107  0.00  0.00    +0.000 OA
ATOM     26  C   UNL     1     -45.227 -66.191  35.301  0.00  0.00    +0.000 A 
ATOM     27  C   UNL     1     -45.740 -64.987  34.687  0.00  0.00    +0.000 A 
ATOM     28  C   UNL     1     -44.769 -67.229  34.464  0.00  0.00    +0.000 A 
ATOM     29  C   UNL     1     -45.755 -64.868  33.287  0.00  0.00    +0.000 A 
ATOM     30  C   UNL     1     -45.293 -65.924  32.502  0.00  0.00    +0.000 A 
ATOM     31  C   UNL     1     -44.813 -67.089  33.078  0.00  0.00    +0.000 A 
ENDROOT
BRANCH   3  32
ATOM     32  O   UNL     1     -44.397 -61.910  35.071  0.00  0.00    +0.000 OA
ATOM     33  H   UNL     1     -43.956 -61.104  34.724  0.00  0.00    +0.000 HD
ENDBRANCH   3  32
BRANCH   3  34
ATOM     34  C   UNL     1     -46.210 -60.343  34.645  0.00  0.00    +0.000 C 
ATOM     35  O   UNL     1     -47.042 -59.559  35.108  0.00  0.00    +0.000 OA
BRANCH  34  36
ATOM     36  O   UNL     1     -45.655 -60.333  33.395  0.00  0.00    +0.000 OA
ATOM     37  C   UNL     1     -44.975 -59.175  32.993  0.00  0.00    +0.000 C 
ENDBRANCH  34  36
ENDBRANCH   3  34
TORSDOF 3
ENDMDL
MODEL 6
REMARK VINA RESULT:      -7.4     30.751     34.764
REMARK  Name = 3035817_K252a.pdbqt.pdb
REMARK  3 active torsions:
REMARK  status: ('A' for Active; 'I' for Inactive)
REMARK    1  A    between atoms: C_3  and  O_7
REMARK    2  A    between atoms: C_3  and  C_9
REMARK    3  A    between atoms: C_9  and  O_11
REMARK                            x       y       z     vdW  Elec       q    Type
REMARK                         _______ _______ _______ _____ _____    ______ ____
ROOT
ATOM      1  O   UNL     1     -43.422 -55.026  33.452  0.00  0.00    +0.000 OA
ATOM      2  C   UNL     1     -42.553 -53.852  33.633  0.00  0.00    +0.000 C 
ATOM      3  C   UNL     1     -43.007 -53.247  35.031  0.00  0.00    +0.000 C 
ATOM      4  C   UNL     1     -43.545 -55.568  34.744  0.00  0.00    +0.000 C 
ATOM      5  C   UNL     1     -43.542 -54.466  35.634  0.00  0.00    +0.000 C 
ATOM      6  C   UNL     1     -42.844 -52.933  32.402  0.00  0.00    +0.000 C 
ATOM      7  N   UNL     1     -41.164 -54.353  33.638  0.00  0.00    +0.000 N 
ATOM      8  C   UNL     1     -40.645 -55.563  34.027  0.00  0.00    +0.000 A 
ATOM      9  C   UNL     1     -41.326 -56.610  34.648  0.00  0.00    +0.000 A 
ATOM     10  C   UNL     1     -39.273 -55.794  33.885  0.00  0.00    +0.000 A 
ATOM     11  N   UNL     1     -42.639 -56.581  35.005  0.00  0.00    +0.000 N 
ATOM     12  C   UNL     1     -40.536 -57.701  35.026  0.00  0.00    +0.000 A 
ATOM     13  C   UNL     1     -42.724 -57.770  35.750  0.00  0.00    +0.000 A 
ATOM     14  C   UNL     1     -41.463 -58.480  35.752  0.00  0.00    +0.000 A 
ATOM     15  C   UNL     1     -43.843 -58.289  36.421  0.00  0.00    +0.000 A 
ATOM     16  C   UNL     1     -41.395 -59.698  36.457  0.00  0.00    +0.000 A 
ATOM     17  C   UNL     1     -42.517 -60.198  37.116  0.00  0.00    +0.000 A 
ATOM     18  C   UNL     1     -43.718 -59.503  37.097  0.00  0.00    +0.000 A 
ATOM     19  C   UNL     1     -39.157 -57.956  34.873  0.00  0.00    +0.000 A 
ATOM     20  C   UNL     1     -38.466 -56.886  34.234  0.00  0.00    +0.000 A 
ATOM     21  C   UNL     1     -38.237 -59.008  35.234  0.00  0.00    +0.000 C 
ATOM     22  C   UNL     1     -37.030 -57.274  34.189  0.00  0.00    +0.000 C 
ATOM     23  N   UNL     1     -37.018 -58.489  34.778  0.00  0.00    +0.000 N 
ATOM     24  H   UNL     1     -36.168 -59.022  34.898  0.00  0.00    +0.000 HD
ATOM     25  O   UNL     1     -38.362 -60.092  35.785  0.00  0.00    +0.000 OA
ATOM     26  C   UNL     1     -38.819 -54.560  33.385  0.00  0.00    +0.000 A 
ATOM     27  C   UNL     1     -39.967 -53.689  33.269  0.00  0.00    +0.000 A 
ATOM     28  C   UNL     1     -37.550 -54.049  33.045  0.00  0.00    +0.000 A 
ATOM     29  C   UNL     1     -39.795 -52.360  32.844  0.00  0.00    +0.000 A 
ATOM     30  C   UNL     1     -38.519 -51.902  32.517  0.00  0.00    +0.000 A 
ATOM     31  C   UNL     1     -37.414 -52.733  32.609  0.00  0.00    +0.000 A 
ENDROOT
BRANCH   3  32
ATOM     32  O   UNL     1     -41.938 -52.753  35.850  0.00  0.00    +0.000 OA
ATOM     33  H   UNL     1     -41.376 -52.180  35.283  0.00  0.00    +0.000 HD
ENDBRANCH   3  32
BRANCH   3  34
ATOM     34  C   UNL     1     -44.087 -52.181  34.863  0.00  0.00    +0.000 C 
ATOM     35  O   UNL     1     -43.875 -51.016  35.207  0.00  0.00    +0.000 OA
BRANCH  34  36
ATOM     36  O   UNL     1     -45.245 -52.708  34.363  0.00  0.00    +0.000 OA
ATOM     37  C   UNL     1     -46.110 -51.847  33.675  0.00  0.00    +0.000 C 
ENDBRANCH  34  36
ENDBRANCH   3  34
TORSDOF 3
ENDMDL
MODEL 7
REMARK VINA RESULT:      -7.3     26.575     30.042
REMARK  Name = 3035817_K252a.pdbqt.pdb
REMARK  3 active torsions:
REMARK  status: ('A' for Active; 'I' for Inactive)
REMARK    1  A    between atoms: C_3  and  O_7
REMARK    2  A    between atoms: C_3  and  C_9
REMARK    3  A    between atoms: C_9  and  O_11
REMARK                            x       y       z     vdW  Elec       q    Type
REMARK                         _______ _______ _______ _____ _____    ______ ____
ROOT
ATOM      1  O   UNL     1     -65.633 -67.945  42.480  0.00  0.00    +0.000 OA
ATOM      2  C   UNL     1     -65.722 -69.379  42.163  0.00  0.00    +0.000 C 
ATOM      3  C   UNL     1     -66.374 -69.416  40.714  0.00  0.00    +0.000 C 
ATOM      4  C   UNL     1     -65.299 -67.341  41.255  0.00  0.00    +0.000 C 
ATOM      5  C   UNL     1     -65.956 -68.095  40.252  0.00  0.00    +0.000 C 
ATOM      6  C   UNL     1     -66.611 -69.994  43.293  0.00  0.00    +0.000 C 
ATOM      7  N   UNL     1     -64.341 -69.904  42.194  0.00  0.00    +0.000 N 
ATOM      8  C   UNL     1     -63.141 -69.293  41.931  0.00  0.00    +0.000 A 
ATOM      9  C   UNL     1     -62.943 -68.005  41.433  0.00  0.00    +0.000 A 
ATOM     10  C   UNL     1     -61.957 -70.023  42.079  0.00  0.00    +0.000 A 
ATOM     11  N   UNL     1     -63.938 -67.142  41.092  0.00  0.00    +0.000 N 
ATOM     12  C   UNL     1     -61.614 -67.661  41.165  0.00  0.00    +0.000 A 
ATOM     13  C   UNL     1     -63.189 -66.122  40.479  0.00  0.00    +0.000 A 
ATOM     14  C   UNL     1     -61.771 -66.406  40.538  0.00  0.00    +0.000 A 
ATOM     15  C   UNL     1     -63.663 -64.943  39.882  0.00  0.00    +0.000 A 
ATOM     16  C   UNL     1     -60.888 -65.468  39.966  0.00  0.00    +0.000 A 
ATOM     17  C   UNL     1     -61.378 -64.302  39.379  0.00  0.00    +0.000 A 
ATOM     18  C   UNL     1     -62.742 -64.048  39.338  0.00  0.00    +0.000 A 
ATOM     19  C   UNL     1     -60.410 -68.378  41.327  0.00  0.00    +0.000 A 
ATOM     20  C   UNL     1     -60.617 -69.692  41.839  0.00  0.00    +0.000 A 
ATOM     21  C   UNL     1     -59.009 -68.150  41.068  0.00  0.00    +0.000 C 
ATOM     22  C   UNL     1     -59.276 -70.337  41.907  0.00  0.00    +0.000 C 
ATOM     23  N   UNL     1     -58.445 -69.374  41.451  0.00  0.00    +0.000 N 
ATOM     24  H   UNL     1     -57.447 -69.514  41.378  0.00  0.00    +0.000 HD
ATOM     25  O   UNL     1     -58.369 -67.201  40.639  0.00  0.00    +0.000 OA
ATOM     26  C   UNL     1     -62.441 -71.294  42.439  0.00  0.00    +0.000 A 
ATOM     27  C   UNL     1     -63.884 -71.216  42.475  0.00  0.00    +0.000 A 
ATOM     28  C   UNL     1     -61.827 -72.535  42.707  0.00  0.00    +0.000 A 
ATOM     29  C   UNL     1     -64.639 -72.369  42.753  0.00  0.00    +0.000 A 
ATOM     30  C   UNL     1     -63.985 -73.573  43.013  0.00  0.00    +0.000 A 
ATOM     31  C   UNL     1     -62.602 -73.656  42.997  0.00  0.00    +0.000 A 
ENDROOT
BRANCH   3  32
ATOM     32  O   UNL     1     -65.832 -70.411  39.834  0.00  0.00    +0.000 OA
ATOM     33  H   UNL     1     -66.555 -70.692  39.230  0.00  0.00    +0.000 HD
ENDBRANCH   3  32
BRANCH   3  34
ATOM     34  C   UNL     1     -67.895 -69.534  40.781  0.00  0.00    +0.000 C 
ATOM     35  O   UNL     1     -68.542 -68.846  41.574  0.00  0.00    +0.000 OA
BRANCH  34  36
ATOM     36  O   UNL     1     -68.366 -70.492  39.926  0.00  0.00    +0.000 OA
ATOM     37  C   UNL     1     -69.308 -70.102  38.965  0.00  0.00    +0.000 C 
ENDBRANCH  34  36
ENDBRANCH   3  34
TORSDOF 3
ENDMDL
MODEL 8
REMARK VINA RESULT:      -7.3      2.183      5.389
REMARK  Name = 3035817_K252a.pdbqt.pdb
REMARK  3 active torsions:
REMARK  status: ('A' for Active; 'I' for Inactive)
REMARK    1  A    between atoms: C_3  and  O_7
REMARK    2  A    between atoms: C_3  and  C_9
REMARK    3  A    between atoms: C_9  and  O_11
REMARK                            x       y       z     vdW  Elec       q    Type
REMARK                         _______ _______ _______ _____ _____    ______ ____
ROOT
ATOM      1  O   UNL     1     -43.846 -76.685  60.880  0.00  0.00    +0.000 OA
ATOM      2  C   UNL     1     -44.622 -77.917  60.667  0.00  0.00    +0.000 C 
ATOM      3  C   UNL     1     -43.677 -79.070  61.219  0.00  0.00    +0.000 C 
ATOM      4  C   UNL     1     -43.197 -76.895  62.110  0.00  0.00    +0.000 C 
ATOM      5  C   UNL     1     -42.895 -78.277  62.164  0.00  0.00    +0.000 C 
ATOM      6  C   UNL     1     -44.885 -77.974  59.126  0.00  0.00    +0.000 C 
ATOM      7  N   UNL     1     -45.872 -77.767  61.439  0.00  0.00    +0.000 N 
ATOM      8  C   UNL     1     -46.140 -77.068  62.589  0.00  0.00    +0.000 A 
ATOM      9  C   UNL     1     -45.224 -76.399  63.401  0.00  0.00    +0.000 A 
ATOM     10  C   UNL     1     -47.444 -77.060  63.094  0.00  0.00    +0.000 A 
ATOM     11  N   UNL     1     -43.880 -76.364  63.191  0.00  0.00    +0.000 N 
ATOM     12  C   UNL     1     -45.751 -75.844  64.572  0.00  0.00    +0.000 A 
ATOM     13  C   UNL     1     -43.454 -75.756  64.385  0.00  0.00    +0.000 A 
ATOM     14  C   UNL     1     -44.578 -75.407  65.226  0.00  0.00    +0.000 A 
ATOM     15  C   UNL     1     -42.138 -75.468  64.785  0.00  0.00    +0.000 A 
ATOM     16  C   UNL     1     -44.307 -74.783  66.460  0.00  0.00    +0.000 A 
ATOM     17  C   UNL     1     -42.995 -74.503  66.839  0.00  0.00    +0.000 A 
ATOM     18  C   UNL     1     -41.932 -74.843  66.014  0.00  0.00    +0.000 A 
ATOM     19  C   UNL     1     -47.064 -75.812  65.084  0.00  0.00    +0.000 A 
ATOM     20  C   UNL     1     -47.998 -76.492  64.250  0.00  0.00    +0.000 A 
ATOM     21  C   UNL     1     -47.718 -75.305  66.267  0.00  0.00    +0.000 C 
ATOM     22  C   UNL     1     -49.316 -76.419  64.939  0.00  0.00    +0.000 C 
ATOM     23  N   UNL     1     -49.039 -75.724  66.064  0.00  0.00    +0.000 N 
ATOM     24  H   UNL     1     -49.748 -75.507  66.751  0.00  0.00    +0.000 HD
ATOM     25  O   UNL     1     -47.337 -74.674  67.242  0.00  0.00    +0.000 OA
ATOM     26  C   UNL     1     -48.113 -77.905  62.190  0.00  0.00    +0.000 A 
ATOM     27  C   UNL     1     -47.145 -78.349  61.212  0.00  0.00    +0.000 A 
ATOM     28  C   UNL     1     -49.434 -78.388  62.095  0.00  0.00    +0.000 A 
ATOM     29  C   UNL     1     -47.529 -79.258  60.211  0.00  0.00    +0.000 A 
ATOM     30  C   UNL     1     -48.849 -79.706  60.159  0.00  0.00    +0.000 A 
ATOM     31  C   UNL     1     -49.790 -79.275  61.081  0.00  0.00    +0.000 A 
ENDROOT
BRANCH   3  32
ATOM     32  O   UNL     1     -44.355 -80.113  61.935  0.00  0.00    +0.000 OA
ATOM     33  H   UNL     1     -44.336 -80.916  61.368  0.00  0.00    +0.000 HD
ENDBRANCH   3  32
BRANCH   3  34
ATOM     34  C   UNL     1     -42.801 -79.660  60.117  0.00  0.00    +0.000 C 
ATOM     35  O   UNL     1     -43.171 -80.655  59.489  0.00  0.00    +0.000 OA
BRANCH  34  36
ATOM     36  O   UNL     1     -41.615 -78.989  59.999  0.00  0.00    +0.000 OA
ATOM     37  C   UNL     1     -41.271 -78.493  58.735  0.00  0.00    +0.000 C 
ENDBRANCH  34  36
ENDBRANCH   3  34
TORSDOF 3
ENDMDL
MODEL 9
REMARK VINA RESULT:      -7.2     25.521     29.699
REMARK  Name = 3035817_K252a.pdbqt.pdb
REMARK  3 active torsions:
REMARK  status: ('A' for Active; 'I' for Inactive)
REMARK    1  A    between atoms: C_3  and  O_7
REMARK    2  A    between atoms: C_3  and  C_9
REMARK    3  A    between atoms: C_9  and  O_11
REMARK                            x       y       z     vdW  Elec       q    Type
REMARK                         _______ _______ _______ _____ _____    ______ ____
ROOT
ATOM      1  O   UNL     1     -44.319 -62.388  34.610  0.00  0.00    +0.000 OA
ATOM      2  C   UNL     1     -45.208 -62.066  35.738  0.00  0.00    +0.000 C 
ATOM      3  C   UNL     1     -46.553 -61.581  35.044  0.00  0.00    +0.000 C 
ATOM      4  C   UNL     1     -45.172 -62.963  33.651  0.00  0.00    +0.000 C 
ATOM      5  C   UNL     1     -46.412 -62.290  33.774  0.00  0.00    +0.000 C 
ATOM      6  C   UNL     1     -44.458 -60.957  36.547  0.00  0.00    +0.000 C 
ATOM      7  N   UNL     1     -45.368 -63.310  36.517  0.00  0.00    +0.000 N 
ATOM      8  C   UNL     1     -45.327 -64.625  36.129  0.00  0.00    +0.000 A 
ATOM      9  C   UNL     1     -45.236 -65.117  34.826  0.00  0.00    +0.000 A 
ATOM     10  C   UNL     1     -45.471 -65.627  37.094  0.00  0.00    +0.000 A 
ATOM     11  N   UNL     1     -45.207 -64.346  33.705  0.00  0.00    +0.000 N 
ATOM     12  C   UNL     1     -45.308 -66.508  34.701  0.00  0.00    +0.000 A 
ATOM     13  C   UNL     1     -45.321 -65.337  32.714  0.00  0.00    +0.000 A 
ATOM     14  C   UNL     1     -45.356 -66.661  33.298  0.00  0.00    +0.000 A 
ATOM     15  C   UNL     1     -45.382 -65.163  31.322  0.00  0.00    +0.000 A 
ATOM     16  C   UNL     1     -45.464 -67.762  32.426  0.00  0.00    +0.000 A 
ATOM     17  C   UNL     1     -45.521 -67.569  31.046  0.00  0.00    +0.000 A 
ATOM     18  C   UNL     1     -45.482 -66.291  30.508  0.00  0.00    +0.000 A 
ATOM     19  C   UNL     1     -45.433 -67.529  35.665  0.00  0.00    +0.000 A 
ATOM     20  C   UNL     1     -45.522 -67.024  36.995  0.00  0.00    +0.000 A 
ATOM     21  C   UNL     1     -45.542 -68.969  35.663  0.00  0.00    +0.000 C 
ATOM     22  C   UNL     1     -45.700 -68.203  37.887  0.00  0.00    +0.000 C 
ATOM     23  N   UNL     1     -45.694 -69.245  37.028  0.00  0.00    +0.000 N 
ATOM     24  H   UNL     1     -45.797 -70.201  37.340  0.00  0.00    +0.000 HD
ATOM     25  O   UNL     1     -45.522 -69.819  34.785  0.00  0.00    +0.000 OA
ATOM     26  C   UNL     1     -45.686 -64.876  38.264  0.00  0.00    +0.000 A 
ATOM     27  C   UNL     1     -45.652 -63.478  37.896  0.00  0.00    +0.000 A 
ATOM     28  C   UNL     1     -45.948 -65.211  39.608  0.00  0.00    +0.000 A 
ATOM     29  C   UNL     1     -45.897 -62.493  38.868  0.00  0.00    +0.000 A 
ATOM     30  C   UNL     1     -46.150 -62.875  40.186  0.00  0.00    +0.000 A 
ATOM     31  C   UNL     1     -46.169 -64.211  40.554  0.00  0.00    +0.000 A 
ENDROOT
BRANCH   3  32
ATOM     32  O   UNL     1     -47.757 -62.019  35.691  0.00  0.00    +0.000 OA
ATOM     33  H   UNL     1     -47.985 -62.900  35.319  0.00  0.00    +0.000 HD
ENDBRANCH   3  32
BRANCH   3  34
ATOM     34  C   UNL     1     -46.575 -60.068  34.845  0.00  0.00    +0.000 C 
ATOM     35  O   UNL     1     -47.164 -59.340  35.648  0.00  0.00    +0.000 OA
BRANCH  34  36
ATOM     36  O   UNL     1     -45.935 -59.699  33.694  0.00  0.00    +0.000 OA
ATOM     37  C   UNL     1     -44.915 -58.743  33.793  0.00  0.00    +0.000 C 
ENDBRANCH  34  36
ENDBRANCH   3  34
TORSDOF 3
ENDMDL
