MODEL 1
REMARK VINA RESULT:      -4.4      0.000      0.000
REMARK  Name = 3136_Dimethoxy.pdbqt.pdb
REMARK  2 active torsions:
REMARK  status: ('A' for Active; 'I' for Inactive)
REMARK    1  A    between atoms: C_7  and  O_13
REMARK    2  A    between atoms: C_8  and  O_15
REMARK                            x       y       z     vdW  Elec       q    Type
REMARK                         _______ _______ _______ _____ _____    ______ ____
ROOT
ATOM      1  O   UNL     1     -43.429 -76.356  63.311  0.00  0.00    +0.000 OA
ATOM      2  O   UNL     1     -47.207 -74.830  66.746  0.00  0.00    +0.000 OA
ATOM      3  C   UNL     1     -45.699 -76.360  63.874  0.00  0.00    +0.000 A 
ATOM      4  C   UNL     1     -46.679 -75.983  64.781  0.00  0.00    +0.000 A 
ATOM      5  C   UNL     1     -44.298 -75.980  64.087  0.00  0.00    +0.000 C 
ATOM      6  C   UNL     1     -46.334 -75.204  65.975  0.00  0.00    +0.000 C 
ATOM      7  C   UNL     1     -43.971 -75.150  65.272  0.00  0.00    +0.000 C 
ATOM      8  C   UNL     1     -44.907 -74.871  66.203  0.00  0.00    +0.000 C 
ATOM      9  C   UNL     1     -46.040 -77.105  62.746  0.00  0.00    +0.000 A 
ATOM     10  C   UNL     1     -48.009 -76.345  64.565  0.00  0.00    +0.000 A 
ATOM     11  C   UNL     1     -47.367 -77.469  62.528  0.00  0.00    +0.000 A 
ATOM     12  C   UNL     1     -48.352 -77.089  63.437  0.00  0.00    +0.000 A 
ENDROOT
BRANCH   7  13
ATOM     13  O   UNL     1     -42.642 -74.786  65.390  0.00  0.00    +0.000 OA
ATOM     14  C   UNL     1     -42.454 -73.502  64.845  0.00  0.00    +0.000 C 
ENDBRANCH   7  13
BRANCH   8  15
ATOM     15  O   UNL     1     -44.641 -74.179  67.371  0.00  0.00    +0.000 OA
ATOM     16  C   UNL     1     -44.193 -75.075  68.360  0.00  0.00    +0.000 C 
ENDBRANCH   8  15
TORSDOF 2
ENDMDL
MODEL 2
REMARK VINA RESULT:      -4.4     14.435     15.699
REMARK  Name = 3136_Dimethoxy.pdbqt.pdb
REMARK  2 active torsions:
REMARK  status: ('A' for Active; 'I' for Inactive)
REMARK    1  A    between atoms: C_7  and  O_13
REMARK    2  A    between atoms: C_8  and  O_15
REMARK                            x       y       z     vdW  Elec       q    Type
REMARK                         _______ _______ _______ _____ _____    ______ ____
ROOT
ATOM      1  O   UNL     1     -34.134 -66.081  68.264  0.00  0.00    +0.000 OA
ATOM      2  O   UNL     1     -36.161 -63.005  64.413  0.00  0.00    +0.000 OA
ATOM      3  C   UNL     1     -35.639 -64.389  67.681  0.00  0.00    +0.000 A 
ATOM      4  C   UNL     1     -36.149 -63.571  66.683  0.00  0.00    +0.000 A 
ATOM      5  C   UNL     1     -34.618 -65.396  67.373  0.00  0.00    +0.000 C 
ATOM      6  C   UNL     1     -35.673 -63.692  65.300  0.00  0.00    +0.000 C 
ATOM      7  C   UNL     1     -34.182 -65.541  65.962  0.00  0.00    +0.000 C 
ATOM      8  C   UNL     1     -34.604 -64.679  65.014  0.00  0.00    +0.000 C 
ATOM      9  C   UNL     1     -36.097 -64.260  68.992  0.00  0.00    +0.000 A 
ATOM     10  C   UNL     1     -37.125 -62.621  66.987  0.00  0.00    +0.000 A 
ATOM     11  C   UNL     1     -37.069 -63.311  69.298  0.00  0.00    +0.000 A 
ATOM     12  C   UNL     1     -37.584 -62.492  68.296  0.00  0.00    +0.000 A 
ENDROOT
BRANCH   7  13
ATOM     13  O   UNL     1     -33.253 -66.539  65.731  0.00  0.00    +0.000 OA
ATOM     14  C   UNL     1     -33.907 -67.694  65.264  0.00  0.00    +0.000 C 
ENDBRANCH   7  13
BRANCH   8  15
ATOM     15  O   UNL     1     -34.163 -64.710  63.703  0.00  0.00    +0.000 OA
ATOM     16  C   UNL     1     -32.972 -63.969  63.587  0.00  0.00    +0.000 C 
ENDBRANCH   8  15
TORSDOF 2
ENDMDL
MODEL 3
REMARK VINA RESULT:      -4.3     40.651     43.036
REMARK  Name = 3136_Dimethoxy.pdbqt.pdb
REMARK  2 active torsions:
REMARK  status: ('A' for Active; 'I' for Inactive)
REMARK    1  A    between atoms: C_7  and  O_13
REMARK    2  A    between atoms: C_8  and  O_15
REMARK                            x       y       z     vdW  Elec       q    Type
REMARK                         _______ _______ _______ _____ _____    ______ ____
ROOT
ATOM      1  O   UNL     1     -66.515 -73.558  29.587  0.00  0.00    +0.000 OA
ATOM      2  O   UNL     1     -65.995 -69.646  26.006  0.00  0.00    +0.000 OA
ATOM      3  C   UNL     1     -65.460 -71.556  28.994  0.00  0.00    +0.000 A 
ATOM      4  C   UNL     1     -65.307 -70.551  28.050  0.00  0.00    +0.000 A 
ATOM      5  C   UNL     1     -66.418 -72.646  28.777  0.00  0.00    +0.000 C 
ATOM      6  C   UNL     1     -66.094 -70.560  26.812  0.00  0.00    +0.000 C 
ATOM      7  C   UNL     1     -67.243 -72.616  27.544  0.00  0.00    +0.000 C 
ATOM      8  C   UNL     1     -67.021 -71.695  26.583  0.00  0.00    +0.000 C 
ATOM      9  C   UNL     1     -64.702 -71.538  30.164  0.00  0.00    +0.000 A 
ATOM     10  C   UNL     1     -64.397 -69.517  28.271  0.00  0.00    +0.000 A 
ATOM     11  C   UNL     1     -63.791 -70.508  30.386  0.00  0.00    +0.000 A 
ATOM     12  C   UNL     1     -63.639 -69.496  29.440  0.00  0.00    +0.000 A 
ENDROOT
BRANCH   7  13
ATOM     13  O   UNL     1     -68.160 -73.644  27.421  0.00  0.00    +0.000 OA
ATOM     14  C   UNL     1     -69.442 -73.178  27.765  0.00  0.00    +0.000 C 
ENDBRANCH   7  13
BRANCH   8  15
ATOM     15  O   UNL     1     -67.697 -71.672  25.376  0.00  0.00    +0.000 OA
ATOM     16  C   UNL     1     -67.064 -72.537  24.463  0.00  0.00    +0.000 C 
ENDBRANCH   8  15
TORSDOF 2
ENDMDL
MODEL 4
REMARK VINA RESULT:      -4.3     52.994     54.425
REMARK  Name = 3136_Dimethoxy.pdbqt.pdb
REMARK  2 active torsions:
REMARK  status: ('A' for Active; 'I' for Inactive)
REMARK    1  A    between atoms: C_7  and  O_13
REMARK    2  A    between atoms: C_8  and  O_15
REMARK                            x       y       z     vdW  Elec       q    Type
REMARK                         _______ _______ _______ _____ _____    ______ ____
ROOT
ATOM      1  O   UNL     1     -76.245 -64.599  20.622  0.00  0.00    +0.000 OA
ATOM      2  O   UNL     1     -71.094 -64.333  19.283  0.00  0.00    +0.000 OA
ATOM      3  C   UNL     1     -74.210 -65.726  20.386  0.00  0.00    +0.000 A 
ATOM      4  C   UNL     1     -72.875 -65.662  20.014  0.00  0.00    +0.000 A 
ATOM      5  C   UNL     1     -75.056 -64.528  20.342  0.00  0.00    +0.000 C 
ATOM      6  C   UNL     1     -72.283 -64.398  19.561  0.00  0.00    +0.000 C 
ATOM      7  C   UNL     1     -74.433 -63.247  19.930  0.00  0.00    +0.000 C 
ATOM      8  C   UNL     1     -73.164 -63.207  19.474  0.00  0.00    +0.000 C 
ATOM      9  C   UNL     1     -74.760 -66.935  20.809  0.00  0.00    +0.000 A 
ATOM     10  C   UNL     1     -72.078 -66.806  20.066  0.00  0.00    +0.000 A 
ATOM     11  C   UNL     1     -73.967 -68.079  20.860  0.00  0.00    +0.000 A 
ATOM     12  C   UNL     1     -72.626 -68.015  20.489  0.00  0.00    +0.000 A 
ENDROOT
BRANCH   7  13
ATOM     13  O   UNL     1     -75.271 -62.147  19.955  0.00  0.00    +0.000 OA
ATOM     14  C   UNL     1     -75.089 -61.441  21.158  0.00  0.00    +0.000 C 
ENDBRANCH   7  13
BRANCH   8  15
ATOM     15  O   UNL     1     -72.560 -62.059  18.993  0.00  0.00    +0.000 OA
ATOM     16  C   UNL     1     -72.856 -61.905  17.626  0.00  0.00    +0.000 C 
ENDBRANCH   8  15
TORSDOF 2
ENDMDL
MODEL 5
REMARK VINA RESULT:      -4.2     15.998     18.393
REMARK  Name = 3136_Dimethoxy.pdbqt.pdb
REMARK  2 active torsions:
REMARK  status: ('A' for Active; 'I' for Inactive)
REMARK    1  A    between atoms: C_7  and  O_13
REMARK    2  A    between atoms: C_8  and  O_15
REMARK                            x       y       z     vdW  Elec       q    Type
REMARK                         _______ _______ _______ _____ _____    ______ ____
ROOT
ATOM      1  O   UNL     1     -31.430 -67.726  53.066  0.00  0.00    +0.000 OA
ATOM      2  O   UNL     1     -36.214 -70.013  52.528  0.00  0.00    +0.000 OA
ATOM      3  C   UNL     1     -33.119 -68.445  51.617  0.00  0.00    +0.000 A 
ATOM      4  C   UNL     1     -34.353 -69.063  51.476  0.00  0.00    +0.000 A 
ATOM      5  C   UNL     1     -32.542 -68.225  52.948  0.00  0.00    +0.000 C 
ATOM      6  C   UNL     1     -35.103 -69.516  52.653  0.00  0.00    +0.000 C 
ATOM      7  C   UNL     1     -33.333 -68.643  54.131  0.00  0.00    +0.000 C 
ATOM      8  C   UNL     1     -34.483 -69.332  53.988  0.00  0.00    +0.000 C 
ATOM      9  C   UNL     1     -32.414 -68.025  50.490  0.00  0.00    +0.000 A 
ATOM     10  C   UNL     1     -34.895 -69.261  50.205  0.00  0.00    +0.000 A 
ATOM     11  C   UNL     1     -32.952 -68.224  49.220  0.00  0.00    +0.000 A 
ATOM     12  C   UNL     1     -34.193 -68.841  49.077  0.00  0.00    +0.000 A 
ENDROOT
BRANCH   7  13
ATOM     13  O   UNL     1     -32.755 -68.365  55.356  0.00  0.00    +0.000 OA
ATOM     14  C   UNL     1     -33.280 -67.163  55.865  0.00  0.00    +0.000 C 
ENDBRANCH   7  13
BRANCH   8  15
ATOM     15  O   UNL     1     -35.218 -69.824  55.052  0.00  0.00    +0.000 OA
ATOM     16  C   UNL     1     -34.782 -71.126  55.366  0.00  0.00    +0.000 C 
ENDBRANCH   8  15
TORSDOF 2
ENDMDL
MODEL 6
REMARK VINA RESULT:      -4.2     15.194     17.286
REMARK  Name = 3136_Dimethoxy.pdbqt.pdb
REMARK  2 active torsions:
REMARK  status: ('A' for Active; 'I' for Inactive)
REMARK    1  A    between atoms: C_7  and  O_13
REMARK    2  A    between atoms: C_8  and  O_15
REMARK                            x       y       z     vdW  Elec       q    Type
REMARK                         _______ _______ _______ _____ _____    ______ ____
ROOT
ATOM      1  O   UNL     1     -33.012 -61.232  67.534  0.00  0.00    +0.000 OA
ATOM      2  O   UNL     1     -35.844 -64.236  64.164  0.00  0.00    +0.000 OA
ATOM      3  C   UNL     1     -35.074 -62.211  67.022  0.00  0.00    +0.000 A 
ATOM      4  C   UNL     1     -35.817 -62.972  66.132  0.00  0.00    +0.000 A 
ATOM      5  C   UNL     1     -33.653 -61.946  66.773  0.00  0.00    +0.000 C 
ATOM      6  C   UNL     1     -35.200 -63.522  64.920  0.00  0.00    +0.000 C 
ATOM      7  C   UNL     1     -33.029 -62.550  65.570  0.00  0.00    +0.000 C 
ATOM      8  C   UNL     1     -33.775 -63.204  64.657  0.00  0.00    +0.000 C 
ATOM      9  C   UNL     1     -35.675 -61.689  68.167  0.00  0.00    +0.000 A 
ATOM     10  C   UNL     1     -37.167 -63.222  66.383  0.00  0.00    +0.000 A 
ATOM     11  C   UNL     1     -37.023 -61.935  68.418  0.00  0.00    +0.000 A 
ATOM     12  C   UNL     1     -37.769 -62.702  67.527  0.00  0.00    +0.000 A 
ENDROOT
BRANCH   7  13
ATOM     13  O   UNL     1     -31.677 -62.303  65.418  0.00  0.00    +0.000 OA
ATOM     14  C   UNL     1     -31.492 -61.179  64.592  0.00  0.00    +0.000 C 
ENDBRANCH   7  13
BRANCH   8  15
ATOM     15  O   UNL     1     -33.266 -63.710  63.474  0.00  0.00    +0.000 OA
ATOM     16  C   UNL     1     -32.651 -64.953  63.717  0.00  0.00    +0.000 C 
ENDBRANCH   8  15
TORSDOF 2
ENDMDL
MODEL 7
REMARK VINA RESULT:      -4.2     44.846     46.739
REMARK  Name = 3136_Dimethoxy.pdbqt.pdb
REMARK  2 active torsions:
REMARK  status: ('A' for Active; 'I' for Inactive)
REMARK    1  A    between atoms: C_7  and  O_13
REMARK    2  A    between atoms: C_8  and  O_15
REMARK                            x       y       z     vdW  Elec       q    Type
REMARK                         _______ _______ _______ _____ _____    ______ ____
ROOT
ATOM      1  O   UNL     1     -77.975 -62.093  36.293  0.00  0.00    +0.000 OA
ATOM      2  O   UNL     1     -76.358 -58.444  32.762  0.00  0.00    +0.000 OA
ATOM      3  C   UNL     1     -77.118 -61.658  34.161  0.00  0.00    +0.000 A 
ATOM      4  C   UNL     1     -76.721 -60.706  33.233  0.00  0.00    +0.000 A 
ATOM      5  C   UNL     1     -77.578 -61.255  35.495  0.00  0.00    +0.000 C 
ATOM      6  C   UNL     1     -76.758 -59.277  33.563  0.00  0.00    +0.000 C 
ATOM      7  C   UNL     1     -77.563 -59.810  35.832  0.00  0.00    +0.000 C 
ATOM      8  C   UNL     1     -77.272 -58.883  34.897  0.00  0.00    +0.000 C 
ATOM      9  C   UNL     1     -77.084 -63.013  33.832  0.00  0.00    +0.000 A 
ATOM     10  C   UNL     1     -76.280 -61.103  31.970  0.00  0.00    +0.000 A 
ATOM     11  C   UNL     1     -76.646 -63.410  32.571  0.00  0.00    +0.000 A 
ATOM     12  C   UNL     1     -76.244 -62.456  31.640  0.00  0.00    +0.000 A 
ENDROOT
BRANCH   7  13
ATOM     13  O   UNL     1     -77.961 -59.500  37.120  0.00  0.00    +0.000 OA
ATOM     14  C   UNL     1     -76.837 -59.449  37.964  0.00  0.00    +0.000 C 
ENDBRANCH   7  13
BRANCH   8  15
ATOM     15  O   UNL     1     -77.329 -57.520  35.129  0.00  0.00    +0.000 OA
ATOM     16  C   UNL     1     -78.626 -57.047  34.855  0.00  0.00    +0.000 C 
ENDBRANCH   8  15
TORSDOF 2
ENDMDL
MODEL 8
REMARK VINA RESULT:      -4.1     42.703     44.063
REMARK  Name = 3136_Dimethoxy.pdbqt.pdb
REMARK  2 active torsions:
REMARK  status: ('A' for Active; 'I' for Inactive)
REMARK    1  A    between atoms: C_7  and  O_13
REMARK    2  A    between atoms: C_8  and  O_15
REMARK                            x       y       z     vdW  Elec       q    Type
REMARK                         _______ _______ _______ _____ _____    ______ ____
ROOT
ATOM      1  O   UNL     1     -62.142 -73.728  23.007  0.00  0.00    +0.000 OA
ATOM      2  O   UNL     1     -59.794 -69.437  25.121  0.00  0.00    +0.000 OA
ATOM      3  C   UNL     1     -62.326 -71.881  24.429  0.00  0.00    +0.000 A 
ATOM      4  C   UNL     1     -61.706 -70.778  24.999  0.00  0.00    +0.000 A 
ATOM      5  C   UNL     1     -61.610 -72.727  23.468  0.00  0.00    +0.000 C 
ATOM      6  C   UNL     1     -60.320 -70.439  24.657  0.00  0.00    +0.000 C 
ATOM      7  C   UNL     1     -60.226 -72.344  23.094  0.00  0.00    +0.000 C 
ATOM      8  C   UNL     1     -59.593 -71.333  23.723  0.00  0.00    +0.000 C 
ATOM      9  C   UNL     1     -63.642 -72.195  24.768  0.00  0.00    +0.000 A 
ATOM     10  C   UNL     1     -62.399 -69.977  25.907  0.00  0.00    +0.000 A 
ATOM     11  C   UNL     1     -64.335 -71.398  25.675  0.00  0.00    +0.000 A 
ATOM     12  C   UNL     1     -63.714 -70.289  26.245  0.00  0.00    +0.000 A 
ENDROOT
BRANCH   7  13
ATOM     13  O   UNL     1     -59.624 -73.154  22.149  0.00  0.00    +0.000 OA
ATOM     14  C   UNL     1     -59.717 -72.551  20.881  0.00  0.00    +0.000 C 
ENDBRANCH   7  13
BRANCH   8  15
ATOM     15  O   UNL     1     -58.275 -70.987  23.480  0.00  0.00    +0.000 OA
ATOM     16  C   UNL     1     -57.430 -71.707  24.346  0.00  0.00    +0.000 C 
ENDBRANCH   8  15
TORSDOF 2
ENDMDL
MODEL 9
REMARK VINA RESULT:      -4.1     42.938     44.318
REMARK  Name = 3136_Dimethoxy.pdbqt.pdb
REMARK  2 active torsions:
REMARK  status: ('A' for Active; 'I' for Inactive)
REMARK    1  A    between atoms: C_7  and  O_13
REMARK    2  A    between atoms: C_8  and  O_15
REMARK                            x       y       z     vdW  Elec       q    Type
REMARK                         _______ _______ _______ _____ _____    ______ ____
ROOT
ATOM      1  O   UNL     1     -63.359 -73.567  23.397  0.00  0.00    +0.000 OA
ATOM      2  O   UNL     1     -64.802 -69.848  26.931  0.00  0.00    +0.000 OA
ATOM      3  C   UNL     1     -62.725 -71.722  24.686  0.00  0.00    +0.000 A 
ATOM      4  C   UNL     1     -63.107 -70.739  25.587  0.00  0.00    +0.000 A 
ATOM      5  C   UNL     1     -63.686 -72.732  24.230  0.00  0.00    +0.000 C 
ATOM      6  C   UNL     1     -64.481 -70.684  26.098  0.00  0.00    +0.000 C 
ATOM      7  C   UNL     1     -65.058 -72.695  24.792  0.00  0.00    +0.000 C 
ATOM      8  C   UNL     1     -65.454 -71.681  25.589  0.00  0.00    +0.000 C 
ATOM      9  C   UNL     1     -61.417 -71.758  24.204  0.00  0.00    +0.000 A 
ATOM     10  C   UNL     1     -62.182 -69.787  26.018  0.00  0.00    +0.000 A 
ATOM     11  C   UNL     1     -60.492 -70.808  24.632  0.00  0.00    +0.000 A 
ATOM     12  C   UNL     1     -60.874 -69.822  25.539  0.00  0.00    +0.000 A 
ENDROOT
BRANCH   7  13
ATOM     13  O   UNL     1     -65.901 -73.702  24.359  0.00  0.00    +0.000 OA
ATOM     14  C   UNL     1     -66.641 -73.254  23.249  0.00  0.00    +0.000 C 
ENDBRANCH   7  13
BRANCH   8  15
ATOM     15  O   UNL     1     -66.745 -71.546  26.070  0.00  0.00    +0.000 OA
ATOM     16  C   UNL     1     -66.922 -72.381  27.190  0.00  0.00    +0.000 C 
ENDBRANCH   8  15
TORSDOF 2
ENDMDL
