MODEL 1
REMARK VINA RESULT:      -6.3      0.000      0.000
REMARK  Name = 326_Cuminaldehyde.pdb
REMARK  1 active torsions:
REMARK  status: ('A' for Active; 'I' for Inactive)
REMARK    1  A    between atoms: C_1  and  C_7
REMARK                            x       y       z     vdW  Elec       q    Type
REMARK                         _______ _______ _______ _____ _____    ______ ____
ROOT
ATOM      1  C   UNL     1     -47.585 -60.869  44.499  0.00  0.00    +0.000 C 
ATOM      2  C   UNL     1     -47.322 -60.302  43.250  0.00  0.00    +0.000 C 
ATOM      3  C   UNL     1     -46.942 -62.054  44.864  0.00  0.00    +0.000 C 
ATOM      4  C   UNL     1     -46.424 -60.912  42.376  0.00  0.00    +0.000 C 
ATOM      5  C   UNL     1     -46.044 -62.666  43.990  0.00  0.00    +0.000 C 
ATOM      6  C   UNL     1     -45.787 -62.093  42.747  0.00  0.00    +0.000 C 
ATOM      7  O   UNL     1     -44.111 -63.233  41.115  0.00  0.00    +0.000 OA
ATOM      8  C   UNL     1     -44.868 -62.718  41.852  0.00  0.00    +0.000 C 
ENDROOT
BRANCH   1   9
ATOM      9  C   UNL     1     -48.525 -60.230  45.414  0.00  0.00    +0.000 C 
ATOM     10  C   UNL     1     -49.799 -59.593  44.918  0.00  0.00    +0.000 C 
ATOM     11  C   UNL     1     -48.266 -60.176  46.899  0.00  0.00    +0.000 C 
ENDBRANCH   1   9
TORSDOF 1
ENDMDL
MODEL 2
REMARK VINA RESULT:      -6.2      8.048      9.897
REMARK  Name = 326_Cuminaldehyde.pdb
REMARK  1 active torsions:
REMARK  status: ('A' for Active; 'I' for Inactive)
REMARK    1  A    between atoms: C_1  and  C_7
REMARK                            x       y       z     vdW  Elec       q    Type
REMARK                         _______ _______ _______ _____ _____    ______ ____
ROOT
ATOM      1  C   UNL     1     -56.941 -61.249  41.227  0.00  0.00    +0.000 C 
ATOM      2  C   UNL     1     -56.155 -61.244  42.381  0.00  0.00    +0.000 C 
ATOM      3  C   UNL     1     -56.423 -60.726  40.040  0.00  0.00    +0.000 C 
ATOM      4  C   UNL     1     -54.862 -60.723  42.349  0.00  0.00    +0.000 C 
ATOM      5  C   UNL     1     -55.131 -60.203  40.007  0.00  0.00    +0.000 C 
ATOM      6  C   UNL     1     -54.353 -60.203  41.162  0.00  0.00    +0.000 C 
ATOM      7  O   UNL     1     -51.941 -59.227  41.101  0.00  0.00    +0.000 OA
ATOM      8  C   UNL     1     -53.031 -59.668  41.129  0.00  0.00    +0.000 C 
ENDROOT
BRANCH   1   9
ATOM      9  C   UNL     1     -58.295 -61.797  41.261  0.00  0.00    +0.000 C 
ATOM     10  C   UNL     1     -58.565 -63.249  40.955  0.00  0.00    +0.000 C 
ATOM     11  C   UNL     1     -59.484 -60.935  41.604  0.00  0.00    +0.000 C 
ENDBRANCH   1   9
TORSDOF 1
ENDMDL
MODEL 3
REMARK VINA RESULT:      -5.3     10.927     12.742
REMARK  Name = 326_Cuminaldehyde.pdb
REMARK  1 active torsions:
REMARK  status: ('A' for Active; 'I' for Inactive)
REMARK    1  A    between atoms: C_1  and  C_7
REMARK                            x       y       z     vdW  Elec       q    Type
REMARK                         _______ _______ _______ _____ _____    ______ ____
ROOT
ATOM      1  C   UNL     1     -59.863 -63.115  41.845  0.00  0.00    +0.000 C 
ATOM      2  C   UNL     1     -58.861 -63.703  41.068  0.00  0.00    +0.000 C 
ATOM      3  C   UNL     1     -59.762 -61.765  42.188  0.00  0.00    +0.000 C 
ATOM      4  C   UNL     1     -57.772 -62.948  40.638  0.00  0.00    +0.000 C 
ATOM      5  C   UNL     1     -58.672 -61.010  41.759  0.00  0.00    +0.000 C 
ATOM      6  C   UNL     1     -57.678 -61.603  40.984  0.00  0.00    +0.000 C 
ATOM      7  O   UNL     1     -55.643 -60.193  40.183  0.00  0.00    +0.000 OA
ATOM      8  C   UNL     1     -56.563 -60.830  40.545  0.00  0.00    +0.000 C 
ENDROOT
BRANCH   1   9
ATOM      9  C   UNL     1     -61.005 -63.906  42.295  0.00  0.00    +0.000 C 
ATOM     10  C   UNL     1     -61.557 -63.769  43.691  0.00  0.00    +0.000 C 
ATOM     11  C   UNL     1     -61.684 -64.897  41.383  0.00  0.00    +0.000 C 
ENDBRANCH   1   9
TORSDOF 1
ENDMDL
MODEL 4
REMARK VINA RESULT:      -5.1     12.436     14.134
REMARK  Name = 326_Cuminaldehyde.pdb
REMARK  1 active torsions:
REMARK  status: ('A' for Active; 'I' for Inactive)
REMARK    1  A    between atoms: C_1  and  C_7
REMARK                            x       y       z     vdW  Elec       q    Type
REMARK                         _______ _______ _______ _____ _____    ______ ____
ROOT
ATOM      1  C   UNL     1     -59.698 -62.958  41.741  0.00  0.00    +0.000 C 
ATOM      2  C   UNL     1     -59.241 -63.846  40.765  0.00  0.00    +0.000 C 
ATOM      3  C   UNL     1     -60.796 -63.309  42.530  0.00  0.00    +0.000 C 
ATOM      4  C   UNL     1     -59.874 -65.074  40.581  0.00  0.00    +0.000 C 
ATOM      5  C   UNL     1     -61.431 -64.537  42.346  0.00  0.00    +0.000 C 
ATOM      6  C   UNL     1     -60.968 -65.418  41.371  0.00  0.00    +0.000 C 
ATOM      7  O   UNL     1     -62.151 -67.709  41.026  0.00  0.00    +0.000 OA
ATOM      8  C   UNL     1     -61.616 -66.674  41.182  0.00  0.00    +0.000 C 
ENDROOT
BRANCH   1   9
ATOM      9  C   UNL     1     -59.034 -61.672  41.935  0.00  0.00    +0.000 C 
ATOM     10  C   UNL     1     -57.801 -61.296  41.152  0.00  0.00    +0.000 C 
ATOM     11  C   UNL     1     -59.551 -60.660  42.927  0.00  0.00    +0.000 C 
ENDBRANCH   1   9
TORSDOF 1
ENDMDL
MODEL 5
REMARK VINA RESULT:      -5.0     14.855     16.349
REMARK  Name = 326_Cuminaldehyde.pdb
REMARK  1 active torsions:
REMARK  status: ('A' for Active; 'I' for Inactive)
REMARK    1  A    between atoms: C_1  and  C_7
REMARK                            x       y       z     vdW  Elec       q    Type
REMARK                         _______ _______ _______ _____ _____    ______ ____
ROOT
ATOM      1  C   UNL     1     -62.509 -65.788  38.842  0.00  0.00    +0.000 C 
ATOM      2  C   UNL     1     -62.416 -64.398  38.747  0.00  0.00    +0.000 C 
ATOM      3  C   UNL     1     -61.544 -66.494  39.565  0.00  0.00    +0.000 C 
ATOM      4  C   UNL     1     -61.369 -63.720  39.369  0.00  0.00    +0.000 C 
ATOM      5  C   UNL     1     -60.497 -65.817  40.187  0.00  0.00    +0.000 C 
ATOM      6  C   UNL     1     -60.411 -64.430  40.088  0.00  0.00    +0.000 C 
ATOM      7  O   UNL     1     -58.456 -63.165  41.249  0.00  0.00    +0.000 OA
ATOM      8  C   UNL     1     -59.339 -63.737  40.724  0.00  0.00    +0.000 C 
ENDROOT
BRANCH   1   9
ATOM      9  C   UNL     1     -63.606 -66.498  38.191  0.00  0.00    +0.000 C 
ATOM     10  C   UNL     1     -64.496 -67.446  38.956  0.00  0.00    +0.000 C 
ATOM     11  C   UNL     1     -63.900 -66.316  36.723  0.00  0.00    +0.000 C 
ENDBRANCH   1   9
TORSDOF 1
ENDMDL
MODEL 6
REMARK VINA RESULT:      -4.8     27.186     28.186
REMARK  Name = 326_Cuminaldehyde.pdb
REMARK  1 active torsions:
REMARK  status: ('A' for Active; 'I' for Inactive)
REMARK    1  A    between atoms: C_1  and  C_7
REMARK                            x       y       z     vdW  Elec       q    Type
REMARK                         _______ _______ _______ _____ _____    ______ ____
ROOT
ATOM      1  C   UNL     1     -64.392 -41.519  51.817  0.00  0.00    +0.000 C 
ATOM      2  C   UNL     1     -63.530 -40.424  51.905  0.00  0.00    +0.000 C 
ATOM      3  C   UNL     1     -64.708 -42.240  52.971  0.00  0.00    +0.000 C 
ATOM      4  C   UNL     1     -62.990 -40.052  53.135  0.00  0.00    +0.000 C 
ATOM      5  C   UNL     1     -64.168 -41.869  54.201  0.00  0.00    +0.000 C 
ATOM      6  C   UNL     1     -63.309 -40.775  54.281  0.00  0.00    +0.000 C 
ATOM      7  O   UNL     1     -62.300 -40.082  56.578  0.00  0.00    +0.000 OA
ATOM      8  C   UNL     1     -62.756 -40.395  55.540  0.00  0.00    +0.000 C 
ENDROOT
BRANCH   1   9
ATOM      9  C   UNL     1     -64.958 -41.907  50.528  0.00  0.00    +0.000 C 
ATOM     10  C   UNL     1     -64.974 -40.958  49.356  0.00  0.00    +0.000 C 
ATOM     11  C   UNL     1     -65.554 -43.276  50.310  0.00  0.00    +0.000 C 
ENDBRANCH   1   9
TORSDOF 1
ENDMDL
MODEL 7
REMARK VINA RESULT:      -4.7     19.644     20.427
REMARK  Name = 326_Cuminaldehyde.pdb
REMARK  1 active torsions:
REMARK  status: ('A' for Active; 'I' for Inactive)
REMARK    1  A    between atoms: C_1  and  C_7
REMARK                            x       y       z     vdW  Elec       q    Type
REMARK                         _______ _______ _______ _____ _____    ______ ____
ROOT
ATOM      1  C   UNL     1     -33.796 -48.206  52.972  0.00  0.00    +0.000 C 
ATOM      2  C   UNL     1     -32.464 -48.589  52.794  0.00  0.00    +0.000 C 
ATOM      3  C   UNL     1     -34.755 -49.174  53.278  0.00  0.00    +0.000 C 
ATOM      4  C   UNL     1     -32.095 -49.927  52.922  0.00  0.00    +0.000 C 
ATOM      5  C   UNL     1     -34.387 -50.513  53.405  0.00  0.00    +0.000 C 
ATOM      6  C   UNL     1     -33.057 -50.887  53.227  0.00  0.00    +0.000 C 
ATOM      7  O   UNL     1     -32.369 -53.386  53.464  0.00  0.00    +0.000 OA
ATOM      8  C   UNL     1     -32.680 -52.256  53.357  0.00  0.00    +0.000 C 
ENDROOT
BRANCH   1   9
ATOM      9  C   UNL     1     -34.181 -46.804  52.839  0.00  0.00    +0.000 C 
ATOM     10  C   UNL     1     -35.553 -46.407  52.354  0.00  0.00    +0.000 C 
ATOM     11  C   UNL     1     -33.226 -45.688  53.181  0.00  0.00    +0.000 C 
ENDBRANCH   1   9
TORSDOF 1
ENDMDL
MODEL 8
REMARK VINA RESULT:      -4.7     19.403     20.377
REMARK  Name = 326_Cuminaldehyde.pdb
REMARK  1 active torsions:
REMARK  status: ('A' for Active; 'I' for Inactive)
REMARK    1  A    between atoms: C_1  and  C_7
REMARK                            x       y       z     vdW  Elec       q    Type
REMARK                         _______ _______ _______ _____ _____    ______ ____
ROOT
ATOM      1  C   UNL     1     -32.875 -51.130  53.507  0.00  0.00    +0.000 C 
ATOM      2  C   UNL     1     -32.208 -49.977  53.085  0.00  0.00    +0.000 C 
ATOM      3  C   UNL     1     -34.261 -51.097  53.681  0.00  0.00    +0.000 C 
ATOM      4  C   UNL     1     -32.920 -48.804  52.838  0.00  0.00    +0.000 C 
ATOM      5  C   UNL     1     -34.973 -49.925  53.434  0.00  0.00    +0.000 C 
ATOM      6  C   UNL     1     -34.301 -48.779  53.013  0.00  0.00    +0.000 C 
ATOM      7  O   UNL     1     -35.630 -46.590  52.553  0.00  0.00    +0.000 OA
ATOM      8  C   UNL     1     -35.030 -47.580  52.761  0.00  0.00    +0.000 C 
ENDROOT
BRANCH   1   9
ATOM      9  C   UNL     1     -32.130 -52.358  53.765  0.00  0.00    +0.000 C 
ATOM     10  C   UNL     1     -31.764 -52.778  55.167  0.00  0.00    +0.000 C 
ATOM     11  C   UNL     1     -31.691 -53.264  52.642  0.00  0.00    +0.000 C 
ENDBRANCH   1   9
TORSDOF 1
ENDMDL
MODEL 9
REMARK VINA RESULT:      -4.7     15.594     16.515
REMARK  Name = 326_Cuminaldehyde.pdb
REMARK  1 active torsions:
REMARK  status: ('A' for Active; 'I' for Inactive)
REMARK    1  A    between atoms: C_1  and  C_7
REMARK                            x       y       z     vdW  Elec       q    Type
REMARK                         _______ _______ _______ _____ _____    ______ ____
ROOT
ATOM      1  C   UNL     1     -46.499 -63.457  27.751  0.00  0.00    +0.000 C 
ATOM      2  C   UNL     1     -45.763 -64.327  26.942  0.00  0.00    +0.000 C 
ATOM      3  C   UNL     1     -47.319 -63.979  28.754  0.00  0.00    +0.000 C 
ATOM      4  C   UNL     1     -45.845 -65.705  27.137  0.00  0.00    +0.000 C 
ATOM      5  C   UNL     1     -47.402 -65.357  28.949  0.00  0.00    +0.000 C 
ATOM      6  C   UNL     1     -46.664 -66.218  28.139  0.00  0.00    +0.000 C 
ATOM      7  O   UNL     1     -46.818 -68.790  28.501  0.00  0.00    +0.000 OA
ATOM      8  C   UNL     1     -46.749 -67.627  28.338  0.00  0.00    +0.000 C 
ENDROOT
BRANCH   1   9
ATOM      9  C   UNL     1     -46.413 -62.013  27.547  0.00  0.00    +0.000 C 
ATOM     10  C   UNL     1     -47.278 -61.055  28.327  0.00  0.00    +0.000 C 
ATOM     11  C   UNL     1     -45.454 -61.415  26.549  0.00  0.00    +0.000 C 
ENDBRANCH   1   9
TORSDOF 1
ENDMDL
