MODEL 1
REMARK VINA RESULT:      -5.1      0.000      0.000
REMARK  Name = 3363_5FluorouracilDeoxyriboside.pdbqt.pdb
REMARK  4 active torsions:
REMARK  status: ('A' for Active; 'I' for Inactive)
REMARK    1  A    between atoms: N_4  and  C1*_13
REMARK    2  A    between atoms: C3*_12  and  O3*_16
REMARK    3  A    between atoms: C4*_15  and  C5*_18
REMARK    4  A    between atoms: C5*_18  and  O5*_19
REMARK                            x       y       z     vdW  Elec       q    Type
REMARK                         _______ _______ _______ _____ _____    ______ ____
ROOT
ATOM      1  F   UNL     1     -35.114 -58.740  40.825  0.00  0.00    +0.000 F 
ATOM      2  O   UNL     1     -36.182 -62.208  44.868  0.00  0.00    +0.000 OA
ATOM      3  O   UNL     1     -37.237 -60.606  40.699  0.00  0.00    +0.000 OA
ATOM      4  N   UNL     1     -34.712 -60.632  43.881  0.00  0.00    +0.000 N 
ATOM      5  N   UNL     1     -36.613 -61.435  42.755  0.00  0.00    +0.000 N 
ATOM      6  C   UNL     1     -35.839 -61.486  43.940  0.00  0.00    +0.000 C 
ATOM      7  C   UNL     1     -34.539 -59.919  42.749  0.00  0.00    +0.000 C 
ATOM      8  C   UNL     1     -35.179 -59.810  41.635  0.00  0.00    +0.000 C 
ATOM      9  C   UNL     1     -36.429 -60.635  41.618  0.00  0.00    +0.000 C 
ATOM     10  H   UNL     1     -37.451 -61.998  42.766  0.00  0.00    +0.000 HD
ENDROOT
BRANCH   4  13
ATOM     11  O4* UNL     1     -33.840 -59.386  45.763  0.00  0.00    +0.000 OA
ATOM     12  C3* UNL     1     -32.101 -60.789  46.376  0.00  0.00    +0.000 A 
ATOM     13  C1* UNL     1     -33.810 -60.486  44.897  0.00  0.00    +0.000 A 
ATOM     14  C2* UNL     1     -32.760 -61.349  45.267  0.00  0.00    +0.000 A 
ATOM     15  C4* UNL     1     -32.794 -59.560  46.677  0.00  0.00    +0.000 A 
BRANCH  12  16
ATOM     16  O3* UNL     1     -31.491 -61.533  47.346  0.00  0.00    +0.000 OA
ATOM     17  H3* UNL     1     -32.123 -61.851  48.016  0.00  0.00    +0.000 HD
ENDBRANCH  12  16
BRANCH  15  18
ATOM     18  C5* UNL     1     -32.642 -58.746  47.817  0.00  0.00    +0.000 C 
BRANCH  18  19
ATOM     19  O5* UNL     1     -32.507 -57.993  48.903  0.00  0.00    +0.000 OA
ATOM     20  H5* UNL     1     -33.306 -58.043  49.457  0.00  0.00    +0.000 HD
ENDBRANCH  18  19
ENDBRANCH  15  18
ENDBRANCH   4  13
TORSDOF 4
ENDMDL
MODEL 2
REMARK VINA RESULT:      -5.0     26.330     29.037
REMARK  Name = 3363_5FluorouracilDeoxyriboside.pdbqt.pdb
REMARK  4 active torsions:
REMARK  status: ('A' for Active; 'I' for Inactive)
REMARK    1  A    between atoms: N_4  and  C1*_13
REMARK    2  A    between atoms: C3*_12  and  O3*_16
REMARK    3  A    between atoms: C4*_15  and  C5*_18
REMARK    4  A    between atoms: C5*_18  and  O5*_19
REMARK                            x       y       z     vdW  Elec       q    Type
REMARK                         _______ _______ _______ _____ _____    ______ ____
ROOT
ATOM      1  F   UNL     1     -57.770 -67.893  40.486  0.00  0.00    +0.000 F 
ATOM      2  O   UNL     1     -62.699 -69.841  41.677  0.00  0.00    +0.000 OA
ATOM      3  O   UNL     1     -58.143 -70.177  42.113  0.00  0.00    +0.000 OA
ATOM      4  N   UNL     1     -61.368 -68.092  40.788  0.00  0.00    +0.000 N 
ATOM      5  N   UNL     1     -60.424 -69.913  41.936  0.00  0.00    +0.000 N 
ATOM      6  C   UNL     1     -61.616 -69.306  41.473  0.00  0.00    +0.000 C 
ATOM      7  C   UNL     1     -60.083 -67.699  40.679  0.00  0.00    +0.000 C 
ATOM      8  C   UNL     1     -58.949 -68.178  41.064  0.00  0.00    +0.000 C 
ATOM      9  C   UNL     1     -59.098 -69.500  41.753  0.00  0.00    +0.000 C 
ATOM     10  H   UNL     1     -60.548 -70.804  42.397  0.00  0.00    +0.000 HD
ENDROOT
BRANCH   4  13
ATOM     11  O4* UNL     1     -62.700 -66.073  40.773  0.00  0.00    +0.000 OA
ATOM     12  C3* UNL     1     -63.993 -66.483  38.895  0.00  0.00    +0.000 A 
ATOM     13  C1* UNL     1     -62.345 -67.315  40.232  0.00  0.00    +0.000 A 
ATOM     14  C2* UNL     1     -63.120 -67.569  39.085  0.00  0.00    +0.000 A 
ATOM     15  C4* UNL     1     -63.713 -65.551  39.960  0.00  0.00    +0.000 A 
BRANCH  12  16
ATOM     16  O3* UNL     1     -64.427 -66.070  37.666  0.00  0.00    +0.000 OA
ATOM     17  H3* UNL     1     -65.213 -66.563  37.370  0.00  0.00    +0.000 HD
ENDBRANCH  12  16
BRANCH  15  18
ATOM     18  C5* UNL     1     -64.179 -64.228  40.087  0.00  0.00    +0.000 C 
BRANCH  18  19
ATOM     19  O5* UNL     1     -64.629 -62.985  40.225  0.00  0.00    +0.000 OA
ATOM     20  H5* UNL     1     -65.601 -62.970  40.236  0.00  0.00    +0.000 HD
ENDBRANCH  18  19
ENDBRANCH  15  18
ENDBRANCH   4  13
TORSDOF 4
ENDMDL
MODEL 3
REMARK VINA RESULT:      -4.9     12.295     14.171
REMARK  Name = 3363_5FluorouracilDeoxyriboside.pdbqt.pdb
REMARK  4 active torsions:
REMARK  status: ('A' for Active; 'I' for Inactive)
REMARK    1  A    between atoms: N_4  and  C1*_13
REMARK    2  A    between atoms: C3*_12  and  O3*_16
REMARK    3  A    between atoms: C4*_15  and  C5*_18
REMARK    4  A    between atoms: C5*_18  and  O5*_19
REMARK                            x       y       z     vdW  Elec       q    Type
REMARK                         _______ _______ _______ _____ _____    ______ ____
ROOT
ATOM      1  F   UNL     1     -27.550 -54.322  54.923  0.00  0.00    +0.000 F 
ATOM      2  O   UNL     1     -32.545 -53.606  56.934  0.00  0.00    +0.000 OA
ATOM      3  O   UNL     1     -28.206 -54.944  57.603  0.00  0.00    +0.000 OA
ATOM      4  N   UNL     1     -30.986 -53.227  55.189  0.00  0.00    +0.000 N 
ATOM      5  N   UNL     1     -30.348 -54.178  57.242  0.00  0.00    +0.000 N 
ATOM      6  C   UNL     1     -31.412 -53.650  56.471  0.00  0.00    +0.000 C 
ATOM      7  C   UNL     1     -29.679 -53.379  54.894  0.00  0.00    +0.000 C 
ATOM      8  C   UNL     1     -28.652 -53.841  55.522  0.00  0.00    +0.000 C 
ATOM      9  C   UNL     1     -29.009 -54.372  56.877  0.00  0.00    +0.000 C 
ATOM     10  H   UNL     1     -30.612 -54.530  58.151  0.00  0.00    +0.000 HD
ENDROOT
BRANCH   4  13
ATOM     11  O4* UNL     1     -32.910 -51.886  54.594  0.00  0.00    +0.000 OA
ATOM     12  C3* UNL     1     -32.811 -52.080  52.287  0.00  0.00    +0.000 A 
ATOM     13  C1* UNL     1     -31.817 -52.690  54.247  0.00  0.00    +0.000 A 
ATOM     14  C2* UNL     1     -31.744 -52.807  52.846  0.00  0.00    +0.000 A 
ATOM     15  C4* UNL     1     -33.530 -51.504  53.398  0.00  0.00    +0.000 A 
BRANCH  12  16
ATOM     16  O3* UNL     1     -32.749 -51.466  51.068  0.00  0.00    +0.000 OA
ATOM     17  H3* UNL     1     -32.520 -50.522  51.144  0.00  0.00    +0.000 HD
ENDBRANCH  12  16
BRANCH  15  18
ATOM     18  C5* UNL     1     -34.548 -50.532  53.350  0.00  0.00    +0.000 C 
BRANCH  18  19
ATOM     19  O5* UNL     1     -35.499 -49.605  53.321  0.00  0.00    +0.000 OA
ATOM     20  H5* UNL     1     -35.456 -49.043  54.114  0.00  0.00    +0.000 HD
ENDBRANCH  18  19
ENDBRANCH  15  18
ENDBRANCH   4  13
TORSDOF 4
ENDMDL
MODEL 4
REMARK VINA RESULT:      -4.7     28.837     30.787
REMARK  Name = 3363_5FluorouracilDeoxyriboside.pdbqt.pdb
REMARK  4 active torsions:
REMARK  status: ('A' for Active; 'I' for Inactive)
REMARK    1  A    between atoms: N_4  and  C1*_13
REMARK    2  A    between atoms: C3*_12  and  O3*_16
REMARK    3  A    between atoms: C4*_15  and  C5*_18
REMARK    4  A    between atoms: C5*_18  and  O5*_19
REMARK                            x       y       z     vdW  Elec       q    Type
REMARK                         _______ _______ _______ _____ _____    ______ ____
ROOT
ATOM      1  F   UNL     1     -62.952 -75.581  55.421  0.00  0.00    +0.000 F 
ATOM      2  O   UNL     1     -58.037 -73.349  54.803  0.00  0.00    +0.000 OA
ATOM      3  O   UNL     1     -61.801 -73.888  57.374  0.00  0.00    +0.000 OA
ATOM      4  N   UNL     1     -59.658 -74.921  54.081  0.00  0.00    +0.000 N 
ATOM      5  N   UNL     1     -59.898 -73.721  56.088  0.00  0.00    +0.000 N 
ATOM      6  C   UNL     1     -59.091 -73.958  54.949  0.00  0.00    +0.000 C 
ATOM      7  C   UNL     1     -60.840 -75.458  54.446  0.00  0.00    +0.000 C 
ATOM      8  C   UNL     1     -61.637 -75.308  55.450  0.00  0.00    +0.000 C 
ATOM      9  C   UNL     1     -61.152 -74.260  56.405  0.00  0.00    +0.000 C 
ATOM     10  H   UNL     1     -59.552 -73.010  56.717  0.00  0.00    +0.000 HD
ENDROOT
BRANCH   4  13
ATOM     11  O4* UNL     1     -58.446 -74.420  52.048  0.00  0.00    +0.000 OA
ATOM     12  C3* UNL     1     -58.325 -76.550  51.142  0.00  0.00    +0.000 A 
ATOM     13  C1* UNL     1     -59.087 -75.322  52.907  0.00  0.00    +0.000 A 
ATOM     14  C2* UNL     1     -59.010 -76.621  52.368  0.00  0.00    +0.000 A 
ATOM     15  C4* UNL     1     -57.974 -75.163  50.959  0.00  0.00    +0.000 A 
BRANCH  12  16
ATOM     16  O3* UNL     1     -57.553 -77.564  50.650  0.00  0.00    +0.000 OA
ATOM     17  H3* UNL     1     -57.868 -77.877  49.782  0.00  0.00    +0.000 HD
ENDBRANCH  12  16
BRANCH  15  18
ATOM     18  C5* UNL     1     -57.108 -74.617  49.990  0.00  0.00    +0.000 C 
BRANCH  18  19
ATOM     19  O5* UNL     1     -56.282 -74.093  49.091  0.00  0.00    +0.000 OA
ATOM     20  H5* UNL     1     -56.764 -73.852  48.281  0.00  0.00    +0.000 HD
ENDBRANCH  18  19
ENDBRANCH  15  18
ENDBRANCH   4  13
TORSDOF 4
ENDMDL
MODEL 5
REMARK VINA RESULT:      -4.6     35.314     37.723
REMARK  Name = 3363_5FluorouracilDeoxyriboside.pdbqt.pdb
REMARK  4 active torsions:
REMARK  status: ('A' for Active; 'I' for Inactive)
REMARK    1  A    between atoms: N_4  and  C1*_13
REMARK    2  A    between atoms: C3*_12  and  O3*_16
REMARK    3  A    between atoms: C4*_15  and  C5*_18
REMARK    4  A    between atoms: C5*_18  and  O5*_19
REMARK                            x       y       z     vdW  Elec       q    Type
REMARK                         _______ _______ _______ _____ _____    ______ ____
ROOT
ATOM      1  F   UNL     1     -67.260 -74.692  27.343  0.00  0.00    +0.000 F 
ATOM      2  O   UNL     1     -66.910 -69.487  25.826  0.00  0.00    +0.000 OA
ATOM      3  O   UNL     1     -69.533 -73.021  27.127  0.00  0.00    +0.000 OA
ATOM      4  N   UNL     1     -65.825 -71.474  26.531  0.00  0.00    +0.000 N 
ATOM      5  N   UNL     1     -68.165 -71.256  26.564  0.00  0.00    +0.000 N 
ATOM      6  C   UNL     1     -66.930 -70.630  26.267  0.00  0.00    +0.000 C 
ATOM      7  C   UNL     1     -66.091 -72.705  27.012  0.00  0.00    +0.000 C 
ATOM      8  C   UNL     1     -67.166 -73.352  27.311  0.00  0.00    +0.000 C 
ATOM      9  C   UNL     1     -68.404 -72.563  27.011  0.00  0.00    +0.000 C 
ATOM     10  H   UNL     1     -68.986 -70.706  26.354  0.00  0.00    +0.000 HD
ENDROOT
BRANCH   4  13
ATOM     11  O4* UNL     1     -63.836 -71.475  25.154  0.00  0.00    +0.000 OA
ATOM     12  C3* UNL     1     -62.427 -70.241  26.518  0.00  0.00    +0.000 A 
ATOM     13  C1* UNL     1     -64.523 -71.116  26.320  0.00  0.00    +0.000 A 
ATOM     14  C2* UNL     1     -63.677 -70.358  27.152  0.00  0.00    +0.000 A 
ATOM     15  C4* UNL     1     -62.545 -70.943  25.263  0.00  0.00    +0.000 A 
BRANCH  12  16
ATOM     16  O3* UNL     1     -61.602 -69.161  26.669  0.00  0.00    +0.000 OA
ATOM     17  H3* UNL     1     -61.015 -69.038  25.901  0.00  0.00    +0.000 HD
ENDBRANCH  12  16
BRANCH  15  18
ATOM     18  C5* UNL     1     -61.635 -70.939  24.188  0.00  0.00    +0.000 C 
BRANCH  18  19
ATOM     19  O5* UNL     1     -60.761 -70.934  23.188  0.00  0.00    +0.000 OA
ATOM     20  H5* UNL     1     -60.901 -71.699  22.604  0.00  0.00    +0.000 HD
ENDBRANCH  18  19
ENDBRANCH  15  18
ENDBRANCH   4  13
TORSDOF 4
ENDMDL
MODEL 6
REMARK VINA RESULT:      -4.6     10.835     13.366
REMARK  Name = 3363_5FluorouracilDeoxyriboside.pdbqt.pdb
REMARK  4 active torsions:
REMARK  status: ('A' for Active; 'I' for Inactive)
REMARK    1  A    between atoms: N_4  and  C1*_13
REMARK    2  A    between atoms: C3*_12  and  O3*_16
REMARK    3  A    between atoms: C4*_15  and  C5*_18
REMARK    4  A    between atoms: C5*_18  and  O5*_19
REMARK                            x       y       z     vdW  Elec       q    Type
REMARK                         _______ _______ _______ _____ _____    ______ ____
ROOT
ATOM      1  F   UNL     1     -30.351 -54.473  58.152  0.00  0.00    +0.000 F 
ATOM      2  O   UNL     1     -32.808 -52.130  53.911  0.00  0.00    +0.000 OA
ATOM      3  O   UNL     1     -32.195 -52.350  58.454  0.00  0.00    +0.000 OA
ATOM      4  N   UNL     1     -31.119 -53.576  54.734  0.00  0.00    +0.000 N 
ATOM      5  N   UNL     1     -32.401 -52.220  56.164  0.00  0.00    +0.000 N 
ATOM      6  C   UNL     1     -32.152 -52.613  54.826  0.00  0.00    +0.000 C 
ATOM      7  C   UNL     1     -30.538 -53.968  55.886  0.00  0.00    +0.000 C 
ATOM      8  C   UNL     1     -30.694 -53.670  57.131  0.00  0.00    +0.000 C 
ATOM      9  C   UNL     1     -31.812 -52.695  57.344  0.00  0.00    +0.000 C 
ATOM     10  H   UNL     1     -33.158 -51.563  56.284  0.00  0.00    +0.000 HD
ENDROOT
BRANCH   4  13
ATOM     11  O4* UNL     1     -29.622 -55.032  53.511  0.00  0.00    +0.000 OA
ATOM     12  C3* UNL     1     -30.449 -54.715  51.369  0.00  0.00    +0.000 A 
ATOM     13  C1* UNL     1     -30.692 -54.128  53.559  0.00  0.00    +0.000 A 
ATOM     14  C2* UNL     1     -31.206 -53.937  52.263  0.00  0.00    +0.000 A 
ATOM     15  C4* UNL     1     -29.463 -55.400  52.170  0.00  0.00    +0.000 A 
BRANCH  12  16
ATOM     16  O3* UNL     1     -30.959 -55.261  50.225  0.00  0.00    +0.000 OA
ATOM     17  H3* UNL     1     -31.125 -56.217  50.317  0.00  0.00    +0.000 HD
ENDBRANCH  12  16
BRANCH  15  18
ATOM     18  C5* UNL     1     -28.607 -56.444  51.769  0.00  0.00    +0.000 C 
BRANCH  18  19
ATOM     19  O5* UNL     1     -27.814 -57.444  51.397  0.00  0.00    +0.000 OA
ATOM     20  H5* UNL     1     -26.891 -57.142  51.326  0.00  0.00    +0.000 HD
ENDBRANCH  18  19
ENDBRANCH  15  18
ENDBRANCH   4  13
TORSDOF 4
ENDMDL
MODEL 7
REMARK VINA RESULT:      -4.5     14.832     16.896
REMARK  Name = 3363_5FluorouracilDeoxyriboside.pdbqt.pdb
REMARK  4 active torsions:
REMARK  status: ('A' for Active; 'I' for Inactive)
REMARK    1  A    between atoms: N_4  and  C1*_13
REMARK    2  A    between atoms: C3*_12  and  O3*_16
REMARK    3  A    between atoms: C4*_15  and  C5*_18
REMARK    4  A    between atoms: C5*_18  and  O5*_19
REMARK                            x       y       z     vdW  Elec       q    Type
REMARK                         _______ _______ _______ _____ _____    ______ ____
ROOT
ATOM      1  F   UNL     1     -35.453 -41.710  48.585  0.00  0.00    +0.000 F 
ATOM      2  O   UNL     1     -37.825 -45.152  52.055  0.00  0.00    +0.000 OA
ATOM      3  O   UNL     1     -38.226 -41.629  49.140  0.00  0.00    +0.000 OA
ATOM      4  N   UNL     1     -35.923 -44.549  50.775  0.00  0.00    +0.000 N 
ATOM      5  N   UNL     1     -37.988 -43.454  50.524  0.00  0.00    +0.000 N 
ATOM      6  C   UNL     1     -37.270 -44.469  51.202  0.00  0.00    +0.000 C 
ATOM      7  C   UNL     1     -35.528 -43.684  49.819  0.00  0.00    +0.000 C 
ATOM      8  C   UNL     1     -36.102 -42.741  49.152  0.00  0.00    +0.000 C 
ATOM      9  C   UNL     1     -37.525 -42.535  49.574  0.00  0.00    +0.000 C 
ATOM     10  H   UNL     1     -38.945 -43.333  50.825  0.00  0.00    +0.000 HD
ENDROOT
BRANCH   4  13
ATOM     11  O4* UNL     1     -34.770 -46.674  50.667  0.00  0.00    +0.000 OA
ATOM     12  C3* UNL     1     -33.411 -46.464  52.533  0.00  0.00    +0.000 A 
ATOM     13  C1* UNL     1     -35.014 -45.436  51.277  0.00  0.00    +0.000 A 
ATOM     14  C2* UNL     1     -34.186 -45.297  52.408  0.00  0.00    +0.000 A 
ATOM     15  C4* UNL     1     -33.786 -47.315  51.430  0.00  0.00    +0.000 A 
BRANCH  12  16
ATOM     16  O3* UNL     1     -32.153 -46.481  53.065  0.00  0.00    +0.000 OA
ATOM     17  H3* UNL     1     -31.502 -46.050  52.483  0.00  0.00    +0.000 HD
ENDBRANCH  12  16
BRANCH  15  18
ATOM     18  C5* UNL     1     -33.151 -48.498  51.004  0.00  0.00    +0.000 C 
BRANCH  18  19
ATOM     19  O5* UNL     1     -32.566 -49.616  50.587  0.00  0.00    +0.000 OA
ATOM     20  H5* UNL     1     -31.839 -49.866  51.183  0.00  0.00    +0.000 HD
ENDBRANCH  18  19
ENDBRANCH  15  18
ENDBRANCH   4  13
TORSDOF 4
ENDMDL
MODEL 8
REMARK VINA RESULT:      -4.5     33.906     36.949
REMARK  Name = 3363_5FluorouracilDeoxyriboside.pdbqt.pdb
REMARK  4 active torsions:
REMARK  status: ('A' for Active; 'I' for Inactive)
REMARK    1  A    between atoms: N_4  and  C1*_13
REMARK    2  A    between atoms: C3*_12  and  O3*_16
REMARK    3  A    between atoms: C4*_15  and  C5*_18
REMARK    4  A    between atoms: C5*_18  and  O5*_19
REMARK                            x       y       z     vdW  Elec       q    Type
REMARK                         _______ _______ _______ _____ _____    ______ ____
ROOT
ATOM      1  F   UNL     1     -68.439 -73.768  29.187  0.00  0.00    +0.000 F 
ATOM      2  O   UNL     1     -66.328 -69.971  25.925  0.00  0.00    +0.000 OA
ATOM      3  O   UNL     1     -69.526 -73.185  26.641  0.00  0.00    +0.000 OA
ATOM      4  N   UNL     1     -66.428 -70.978  28.069  0.00  0.00    +0.000 N 
ATOM      5  N   UNL     1     -67.956 -71.523  26.367  0.00  0.00    +0.000 N 
ATOM      6  C   UNL     1     -66.835 -70.739  26.735  0.00  0.00    +0.000 C 
ATOM      7  C   UNL     1     -67.138 -71.881  28.776  0.00  0.00    +0.000 C 
ATOM      8  C   UNL     1     -68.159 -72.630  28.531  0.00  0.00    +0.000 C 
ATOM      9  C   UNL     1     -68.633 -72.494  27.116  0.00  0.00    +0.000 C 
ATOM     10  H   UNL     1     -68.257 -71.415  25.409  0.00  0.00    +0.000 HD
ENDROOT
BRANCH   4  13
ATOM     11  O4* UNL     1     -65.141 -70.444  30.047  0.00  0.00    +0.000 OA
ATOM     12  C3* UNL     1     -63.471 -69.162  29.080  0.00  0.00    +0.000 A 
ATOM     13  C1* UNL     1     -65.367 -70.360  28.667  0.00  0.00    +0.000 A 
ATOM     14  C2* UNL     1     -64.351 -69.589  28.070  0.00  0.00    +0.000 A 
ATOM     15  C4* UNL     1     -63.978 -69.712  30.313  0.00  0.00    +0.000 A 
BRANCH  12  16
ATOM     16  O3* UNL     1     -62.136 -68.948  28.877  0.00  0.00    +0.000 OA
ATOM     17  H3* UNL     1     -61.937 -68.724  27.950  0.00  0.00    +0.000 HD
ENDBRANCH  12  16
BRANCH  15  18
ATOM     18  C5* UNL     1     -63.339 -69.737  31.569  0.00  0.00    +0.000 C 
BRANCH  18  19
ATOM     19  O5* UNL     1     -62.745 -69.743  32.757  0.00  0.00    +0.000 OA
ATOM     20  H5* UNL     1     -63.392 -69.576  33.465  0.00  0.00    +0.000 HD
ENDBRANCH  18  19
ENDBRANCH  15  18
ENDBRANCH   4  13
TORSDOF 4
ENDMDL
MODEL 9
REMARK VINA RESULT:      -4.4      1.932      2.234
REMARK  Name = 3363_5FluorouracilDeoxyriboside.pdbqt.pdb
REMARK  4 active torsions:
REMARK  status: ('A' for Active; 'I' for Inactive)
REMARK    1  A    between atoms: N_4  and  C1*_13
REMARK    2  A    between atoms: C3*_12  and  O3*_16
REMARK    3  A    between atoms: C4*_15  and  C5*_18
REMARK    4  A    between atoms: C5*_18  and  O5*_19
REMARK                            x       y       z     vdW  Elec       q    Type
REMARK                         _______ _______ _______ _____ _____    ______ ____
ROOT
ATOM      1  F   UNL     1     -32.277 -58.296  40.755  0.00  0.00    +0.000 F 
ATOM      2  O   UNL     1     -36.568 -61.144  42.483  0.00  0.00    +0.000 OA
ATOM      3  O   UNL     1     -34.281 -59.233  38.993  0.00  0.00    +0.000 OA
ATOM      4  N   UNL     1     -34.430 -60.222  42.930  0.00  0.00    +0.000 N 
ATOM      5  N   UNL     1     -35.344 -60.250  40.765  0.00  0.00    +0.000 N 
ATOM      6  C   UNL     1     -35.533 -60.594  42.125  0.00  0.00    +0.000 C 
ATOM      7  C   UNL     1     -33.394 -59.618  42.313  0.00  0.00    +0.000 C 
ATOM      8  C   UNL     1     -33.136 -59.270  41.098  0.00  0.00    +0.000 C 
ATOM      9  C   UNL     1     -34.274 -59.569  40.170  0.00  0.00    +0.000 C 
ATOM     10  H   UNL     1     -36.124 -60.460  40.158  0.00  0.00    +0.000 HD
ENDROOT
BRANCH   4  13
ATOM     11  O4* UNL     1     -34.002 -59.412  45.170  0.00  0.00    +0.000 OA
ATOM     12  C3* UNL     1     -34.439 -61.349  46.365  0.00  0.00    +0.000 A 
ATOM     13  C1* UNL     1     -34.363 -60.431  44.279  0.00  0.00    +0.000 A 
ATOM     14  C2* UNL     1     -34.638 -61.610  44.998  0.00  0.00    +0.000 A 
ATOM     15  C4* UNL     1     -34.045 -59.964  46.456  0.00  0.00    +0.000 A 
BRANCH  12  16
ATOM     16  O3* UNL     1     -35.137 -61.970  47.362  0.00  0.00    +0.000 OA
ATOM     17  H3* UNL     1     -35.826 -62.564  47.012  0.00  0.00    +0.000 HD
ENDBRANCH  12  16
BRANCH  15  18
ATOM     18  C5* UNL     1     -33.930 -59.178  47.620  0.00  0.00    +0.000 C 
BRANCH  18  19
ATOM     19  O5* UNL     1     -33.802 -58.441  48.718  0.00  0.00    +0.000 OA
ATOM     20  H5* UNL     1     -33.864 -58.997  49.514  0.00  0.00    +0.000 HD
ENDBRANCH  18  19
ENDBRANCH  15  18
ENDBRANCH   4  13
TORSDOF 4
ENDMDL
