MODEL 1
REMARK VINA RESULT:      -4.4      0.000      0.000
REMARK  Name = 3385_5Fluorouracil.pdbqt.pdb
REMARK  0 active torsions:
REMARK  status: ('A' for Active; 'I' for Inactive)
REMARK                            x       y       z     vdW  Elec       q    Type
REMARK                         _______ _______ _______ _____ _____    ______ ____
ROOT
ATOM      1  F   UNL     1     -33.607 -48.232  52.483  0.00  0.00    +0.000 F 
ATOM      2  O   UNL     1     -35.634 -50.012  53.346  0.00  0.00    +0.000 OA
ATOM      3  O   UNL     1     -32.443 -52.829  55.124  0.00  0.00    +0.000 OA
ATOM      4  N   UNL     1     -34.033 -51.446  54.169  0.00  0.00    +0.000 N 
ATOM      5  N   UNL     1     -31.771 -50.989  53.912  0.00  0.00    +0.000 N 
ATOM      6  C   UNL     1     -34.451 -50.312  53.459  0.00  0.00    +0.000 C 
ATOM      7  C   UNL     1     -32.719 -51.842  54.457  0.00  0.00    +0.000 C 
ATOM      8  C   UNL     1     -33.341 -49.491  52.867  0.00  0.00    +0.000 C 
ATOM      9  C   UNL     1     -32.172 -49.928  53.197  0.00  0.00    +0.000 C 
ATOM     10  H   UNL     1     -34.763 -52.012  54.574  0.00  0.00    +0.000 HD
ATOM     11  H   UNL     1     -30.791 -51.185  54.068  0.00  0.00    +0.000 HD
ENDROOT
TORSDOF 0
ENDMDL
MODEL 2
REMARK VINA RESULT:      -4.4     22.683     23.504
REMARK  Name = 3385_5Fluorouracil.pdbqt.pdb
REMARK  0 active torsions:
REMARK  status: ('A' for Active; 'I' for Inactive)
REMARK                            x       y       z     vdW  Elec       q    Type
REMARK                         _______ _______ _______ _____ _____    ______ ____
ROOT
ATOM      1  F   UNL     1     -49.320 -57.515  42.001  0.00  0.00    +0.000 F 
ATOM      2  O   UNL     1     -50.655 -58.037  39.558  0.00  0.00    +0.000 OA
ATOM      3  O   UNL     1     -54.127 -60.033  41.847  0.00  0.00    +0.000 OA
ATOM      4  N   UNL     1     -52.350 -59.093  40.703  0.00  0.00    +0.000 N 
ATOM      5  N   UNL     1     -52.254 -59.358  43.007  0.00  0.00    +0.000 N 
ATOM      6  C   UNL     1     -51.094 -58.475  40.614  0.00  0.00    +0.000 C 
ATOM      7  C   UNL     1     -53.007 -59.542  41.856  0.00  0.00    +0.000 C 
ATOM      8  C   UNL     1     -50.344 -58.379  41.913  0.00  0.00    +0.000 C 
ATOM      9  C   UNL     1     -51.035 -58.806  42.916  0.00  0.00    +0.000 C 
ATOM     10  H   UNL     1     -52.869 -59.169  39.841  0.00  0.00    +0.000 HD
ATOM     11  H   UNL     1     -52.642 -59.645  43.896  0.00  0.00    +0.000 HD
ENDROOT
TORSDOF 0
ENDMDL
MODEL 3
REMARK VINA RESULT:      -4.3     21.702     22.541
REMARK  Name = 3385_5Fluorouracil.pdbqt.pdb
REMARK  0 active torsions:
REMARK  status: ('A' for Active; 'I' for Inactive)
REMARK                            x       y       z     vdW  Elec       q    Type
REMARK                         _______ _______ _______ _____ _____    ______ ____
ROOT
ATOM      1  F   UNL     1     -50.299 -58.396  39.767  0.00  0.00    +0.000 F 
ATOM      2  O   UNL     1     -52.783 -58.945  41.014  0.00  0.00    +0.000 OA
ATOM      3  O   UNL     1     -50.655 -59.532  45.063  0.00  0.00    +0.000 OA
ATOM      4  N   UNL     1     -51.706 -59.304  43.016  0.00  0.00    +0.000 N 
ATOM      5  N   UNL     1     -49.392 -59.197  43.166  0.00  0.00    +0.000 N 
ATOM      6  C   UNL     1     -51.734 -59.067  41.634  0.00  0.00    +0.000 C 
ATOM      7  C   UNL     1     -50.585 -59.363  43.855  0.00  0.00    +0.000 C 
ATOM      8  C   UNL     1     -50.383 -58.959  40.984  0.00  0.00    +0.000 C 
ATOM      9  C   UNL     1     -49.417 -59.012  41.838  0.00  0.00    +0.000 C 
ATOM     10  H   UNL     1     -52.603 -59.382  43.472  0.00  0.00    +0.000 HD
ATOM     11  H   UNL     1     -48.522 -59.217  43.683  0.00  0.00    +0.000 HD
ENDROOT
TORSDOF 0
ENDMDL
MODEL 4
REMARK VINA RESULT:      -4.1      2.638      3.497
REMARK  Name = 3385_5Fluorouracil.pdbqt.pdb
REMARK  0 active torsions:
REMARK  status: ('A' for Active; 'I' for Inactive)
REMARK                            x       y       z     vdW  Elec       q    Type
REMARK                         _______ _______ _______ _____ _____    ______ ____
ROOT
ATOM      1  F   UNL     1     -33.309 -51.319  52.595  0.00  0.00    +0.000 F 
ATOM      2  O   UNL     1     -35.676 -49.925  53.286  0.00  0.00    +0.000 OA
ATOM      3  O   UNL     1     -33.347 -45.944  53.348  0.00  0.00    +0.000 OA
ATOM      4  N   UNL     1     -34.493 -47.953  53.383  0.00  0.00    +0.000 N 
ATOM      5  N   UNL     1     -32.198 -47.916  53.037  0.00  0.00    +0.000 N 
ATOM      6  C   UNL     1     -34.597 -49.345  53.257  0.00  0.00    +0.000 C 
ATOM      7  C   UNL     1     -33.341 -47.163  53.266  0.00  0.00    +0.000 C 
ATOM      8  C   UNL     1     -33.290 -50.062  53.067  0.00  0.00    +0.000 C 
ATOM      9  C   UNL     1     -32.292 -49.251  52.959  0.00  0.00    +0.000 C 
ATOM     10  H   UNL     1     -35.360 -47.452  53.513  0.00  0.00    +0.000 HD
ATOM     11  H   UNL     1     -31.312 -47.438  52.932  0.00  0.00    +0.000 HD
ENDROOT
TORSDOF 0
ENDMDL
MODEL 5
REMARK VINA RESULT:      -4.1     23.174     24.006
REMARK  Name = 3385_5Fluorouracil.pdbqt.pdb
REMARK  0 active torsions:
REMARK  status: ('A' for Active; 'I' for Inactive)
REMARK                            x       y       z     vdW  Elec       q    Type
REMARK                         _______ _______ _______ _____ _____    ______ ____
ROOT
ATOM      1  F   UNL     1     -47.398 -49.391  31.719  0.00  0.00    +0.000 F 
ATOM      2  O   UNL     1     -46.664 -50.445  34.244  0.00  0.00    +0.000 OA
ATOM      3  O   UNL     1     -45.244 -46.273  35.607  0.00  0.00    +0.000 OA
ATOM      4  N   UNL     1     -45.894 -48.375  34.892  0.00  0.00    +0.000 N 
ATOM      5  N   UNL     1     -45.923 -46.575  33.426  0.00  0.00    +0.000 N 
ATOM      6  C   UNL     1     -46.400 -49.285  33.952  0.00  0.00    +0.000 C 
ATOM      7  C   UNL     1     -45.649 -47.006  34.716  0.00  0.00    +0.000 C 
ATOM      8  C   UNL     1     -46.608 -48.721  32.575  0.00  0.00    +0.000 C 
ATOM      9  C   UNL     1     -46.367 -47.455  32.517  0.00  0.00    +0.000 C 
ATOM     10  H   UNL     1     -45.746 -48.734  35.823  0.00  0.00    +0.000 HD
ATOM     11  H   UNL     1     -45.783 -45.599  33.197  0.00  0.00    +0.000 HD
ENDROOT
TORSDOF 0
ENDMDL
MODEL 6
REMARK VINA RESULT:      -4.0     23.895     24.774
REMARK  Name = 3385_5Fluorouracil.pdbqt.pdb
REMARK  0 active torsions:
REMARK  status: ('A' for Active; 'I' for Inactive)
REMARK                            x       y       z     vdW  Elec       q    Type
REMARK                         _______ _______ _______ _____ _____    ______ ____
ROOT
ATOM      1  F   UNL     1     -46.615 -52.483  32.778  0.00  0.00    +0.000 F 
ATOM      2  O   UNL     1     -45.377 -50.912  34.783  0.00  0.00    +0.000 OA
ATOM      3  O   UNL     1     -46.668 -47.058  32.601  0.00  0.00    +0.000 OA
ATOM      4  N   UNL     1     -45.965 -48.995  33.652  0.00  0.00    +0.000 N 
ATOM      5  N   UNL     1     -47.061 -49.100  31.609  0.00  0.00    +0.000 N 
ATOM      6  C   UNL     1     -45.849 -50.386  33.781  0.00  0.00    +0.000 C 
ATOM      7  C   UNL     1     -46.573 -48.277  32.613  0.00  0.00    +0.000 C 
ATOM      8  C   UNL     1     -46.361 -51.175  32.610  0.00  0.00    +0.000 C 
ATOM      9  C   UNL     1     -46.912 -50.428  31.713  0.00  0.00    +0.000 C 
ATOM     10  H   UNL     1     -45.625 -48.446  34.428  0.00  0.00    +0.000 HD
ATOM     11  H   UNL     1     -47.524 -48.678  30.814  0.00  0.00    +0.000 HD
ENDROOT
TORSDOF 0
ENDMDL
MODEL 7
REMARK VINA RESULT:      -4.0     36.125     36.769
REMARK  Name = 3385_5Fluorouracil.pdbqt.pdb
REMARK  0 active torsions:
REMARK  status: ('A' for Active; 'I' for Inactive)
REMARK                            x       y       z     vdW  Elec       q    Type
REMARK                         _______ _______ _______ _____ _____    ______ ____
ROOT
ATOM      1  F   UNL     1     -62.499 -67.594  37.803  0.00  0.00    +0.000 F 
ATOM      2  O   UNL     1     -63.705 -65.331  36.601  0.00  0.00    +0.000 OA
ATOM      3  O   UNL     1     -64.037 -63.284  40.722  0.00  0.00    +0.000 OA
ATOM      4  N   UNL     1     -63.931 -64.345  38.669  0.00  0.00    +0.000 N 
ATOM      5  N   UNL     1     -63.285 -65.458  40.602  0.00  0.00    +0.000 N 
ATOM      6  C   UNL     1     -63.615 -65.416  37.820  0.00  0.00    +0.000 C 
ATOM      7  C   UNL     1     -63.775 -64.278  40.061  0.00  0.00    +0.000 C 
ATOM      8  C   UNL     1     -63.145 -66.660  38.520  0.00  0.00    +0.000 C 
ATOM      9  C   UNL     1     -63.023 -66.495  39.794  0.00  0.00    +0.000 C 
ATOM     10  H   UNL     1     -64.250 -63.500  38.220  0.00  0.00    +0.000 HD
ATOM     11  H   UNL     1     -63.131 -65.510  41.601  0.00  0.00    +0.000 HD
ENDROOT
TORSDOF 0
ENDMDL
MODEL 8
REMARK VINA RESULT:      -3.9      5.266      6.023
REMARK  Name = 3385_5Fluorouracil.pdbqt.pdb
REMARK  0 active torsions:
REMARK  status: ('A' for Active; 'I' for Inactive)
REMARK                            x       y       z     vdW  Elec       q    Type
REMARK                         _______ _______ _______ _____ _____    ______ ____
ROOT
ATOM      1  F   UNL     1     -37.368 -45.737  52.009  0.00  0.00    +0.000 F 
ATOM      2  O   UNL     1     -35.436 -47.707  52.648  0.00  0.00    +0.000 OA
ATOM      3  O   UNL     1     -32.362 -44.414  53.639  0.00  0.00    +0.000 OA
ATOM      4  N   UNL     1     -33.887 -46.059  53.073  0.00  0.00    +0.000 N 
ATOM      5  N   UNL     1     -34.406 -43.818  52.760  0.00  0.00    +0.000 N 
ATOM      6  C   UNL     1     -35.131 -46.521  52.623  0.00  0.00    +0.000 C 
ATOM      7  C   UNL     1     -33.455 -44.730  53.193  0.00  0.00    +0.000 C 
ATOM      8  C   UNL     1     -36.061 -45.449  52.127  0.00  0.00    +0.000 C 
ATOM      9  C   UNL     1     -35.580 -44.263  52.289  0.00  0.00    +0.000 C 
ATOM     10  H   UNL     1     -33.246 -46.763  53.410  0.00  0.00    +0.000 HD
ATOM     11  H   UNL     1     -34.194 -42.830  52.810  0.00  0.00    +0.000 HD
ENDROOT
TORSDOF 0
ENDMDL
MODEL 9
REMARK VINA RESULT:      -3.9     24.361     25.194
REMARK  Name = 3385_5Fluorouracil.pdbqt.pdb
REMARK  0 active torsions:
REMARK  status: ('A' for Active; 'I' for Inactive)
REMARK                            x       y       z     vdW  Elec       q    Type
REMARK                         _______ _______ _______ _____ _____    ______ ____
ROOT
ATOM      1  F   UNL     1     -46.211 -51.513  34.519  0.00  0.00    +0.000 F 
ATOM      2  O   UNL     1     -47.509 -49.013  34.219  0.00  0.00    +0.000 OA
ATOM      3  O   UNL     1     -46.519 -49.007  29.713  0.00  0.00    +0.000 OA
ATOM      4  N   UNL     1     -46.951 -48.985  31.986  0.00  0.00    +0.000 N 
ATOM      5  N   UNL     1     -45.671 -50.680  31.050  0.00  0.00    +0.000 N 
ATOM      6  C   UNL     1     -46.897 -49.514  33.283  0.00  0.00    +0.000 C 
ATOM      7  C   UNL     1     -46.386 -49.515  30.817  0.00  0.00    +0.000 C 
ATOM      8  C   UNL     1     -46.049 -50.746  33.428  0.00  0.00    +0.000 C 
ATOM      9  C   UNL     1     -45.584 -51.162  32.298  0.00  0.00    +0.000 C 
ATOM     10  H   UNL     1     -47.515 -48.156  31.867  0.00  0.00    +0.000 HD
ATOM     11  H   UNL     1     -45.227 -51.145  30.269  0.00  0.00    +0.000 HD
ENDROOT
TORSDOF 0
ENDMDL
