MODEL 1
REMARK VINA RESULT:      -7.6      0.000      0.000
REMARK  Name = 342374_SipholenolA.pdbqt.pdb
REMARK  5 active torsions:
REMARK  status: ('A' for Active; 'I' for Inactive)
REMARK    1  A    between atoms: C_3  and  C_20
REMARK    2  A    between atoms: C_4  and  O_16
REMARK    3  A    between atoms: C_13  and  O_18
REMARK    4  A    between atoms: C_21  and  C_25
REMARK    5  A    between atoms: C_26  and  O_36
REMARK                            x       y       z     vdW  Elec       q    Type
REMARK                         _______ _______ _______ _____ _____    ______ ____
ROOT
ATOM      1  O   UNL     1     -27.630 -53.346  57.256  0.00  0.00    +0.000 OA
ATOM      2  C   UNL     1     -29.509 -52.648  55.582  0.00  0.00    +0.000 C 
ATOM      3  C   UNL     1     -31.021 -52.458  55.431  0.00  0.00    +0.000 C 
ATOM      4  C   UNL     1     -31.973 -53.487  56.015  0.00  0.00    +0.000 C 
ATOM      5  C   UNL     1     -28.991 -53.315  56.931  0.00  0.00    +0.000 C 
ATOM      6  C   UNL     1     -28.833 -51.342  55.627  0.00  0.00    +0.000 C 
ATOM      7  C   UNL     1     -31.273 -54.254  57.026  0.00  0.00    +0.000 C 
ATOM      8  C   UNL     1     -29.871 -54.234  57.536  0.00  0.00    +0.000 C 
ATOM      9  C   UNL     1     -28.973 -53.497  54.396  0.00  0.00    +0.000 C 
ATOM     10  C   UNL     1     -27.727 -50.612  56.349  0.00  0.00    +0.000 C 
ATOM     11  C   UNL     1     -27.085 -52.310  58.138  0.00  0.00    +0.000 C 
ATOM     12  C   UNL     1     -33.228 -52.813  56.591  0.00  0.00    +0.000 C 
ATOM     13  C   UNL     1     -26.852 -50.958  57.400  0.00  0.00    +0.000 C 
ATOM     14  C   UNL     1     -28.004 -52.048  59.368  0.00  0.00    +0.000 C 
ATOM     15  C   UNL     1     -25.694 -52.812  58.627  0.00  0.00    +0.000 C 
ENDROOT
BRANCH   4  16
ATOM     16  O   UNL     1     -32.433 -54.343  54.999  0.00  0.00    +0.000 OA
ATOM     17  H   UNL     1     -32.358 -53.768  54.217  0.00  0.00    +0.000 HD
ENDBRANCH   4  16
BRANCH  13  18
ATOM     18  O   UNL     1     -25.814 -50.091  57.727  0.00  0.00    +0.000 OA
ATOM     19  H   UNL     1     -25.304 -50.419  58.497  0.00  0.00    +0.000 HD
ENDBRANCH  13  18
BRANCH   3  20
ATOM     20  C   UNL     1     -31.527 -51.444  54.543  0.00  0.00    +0.000 C 
ATOM     21  C   UNL     1     -32.052 -50.368  53.587  0.00  0.00    +0.000 C 
BRANCH  21  25
ATOM     22  C   UNL     1     -31.151 -47.189  52.173  0.00  0.00    +0.000 C 
ATOM     23  C   UNL     1     -31.604 -48.602  51.714  0.00  0.00    +0.000 C 
ATOM     24  C   UNL     1     -32.069 -46.044  52.488  0.00  0.00    +0.000 C 
ATOM     25  C   UNL     1     -32.537 -49.361  52.687  0.00  0.00    +0.000 C 
ATOM     26  C   UNL     1     -31.355 -44.697  52.512  0.00  0.00    +0.000 C 
ATOM     27  C   UNL     1     -29.858 -46.609  52.001  0.00  0.00    +0.000 C 
ATOM     28  C   UNL     1     -29.996 -45.125  52.198  0.00  0.00    +0.000 C 
ATOM     29  C   UNL     1     -33.416 -46.354  52.752  0.00  0.00    +0.000 C 
ATOM     30  C   UNL     1     -33.933 -48.945  52.820  0.00  0.00    +0.000 C 
ATOM     31  C   UNL     1     -30.308 -49.469  51.490  0.00  0.00    +0.000 C 
ATOM     32  C   UNL     1     -32.291 -48.463  50.312  0.00  0.00    +0.000 C 
ATOM     33  C   UNL     1     -34.142 -47.667  52.864  0.00  0.00    +0.000 C 
ATOM     34  C   UNL     1     -31.521 -43.974  53.841  0.00  0.00    +0.000 C 
ATOM     35  C   UNL     1     -35.028 -49.836  53.345  0.00  0.00    +0.000 C 
BRANCH  26  36
ATOM     36  O   UNL     1     -31.865 -43.856  51.511  0.00  0.00    +0.000 OA
ATOM     37  H   UNL     1     -31.072 -43.339  51.283  0.00  0.00    +0.000 HD
ENDBRANCH  26  36
ENDBRANCH  21  25
ENDBRANCH   3  20
TORSDOF 5
ENDMDL
MODEL 2
REMARK VINA RESULT:      -7.5      1.417      2.060
REMARK  Name = 342374_SipholenolA.pdbqt.pdb
REMARK  5 active torsions:
REMARK  status: ('A' for Active; 'I' for Inactive)
REMARK    1  A    between atoms: C_3  and  C_20
REMARK    2  A    between atoms: C_4  and  O_16
REMARK    3  A    between atoms: C_13  and  O_18
REMARK    4  A    between atoms: C_21  and  C_25
REMARK    5  A    between atoms: C_26  and  O_36
REMARK                            x       y       z     vdW  Elec       q    Type
REMARK                         _______ _______ _______ _____ _____    ______ ____
ROOT
ATOM      1  O   UNL     1     -27.897 -53.999  57.979  0.00  0.00    +0.000 OA
ATOM      2  C   UNL     1     -29.291 -53.273  55.893  0.00  0.00    +0.000 C 
ATOM      3  C   UNL     1     -30.686 -52.845  55.428  0.00  0.00    +0.000 C 
ATOM      4  C   UNL     1     -31.912 -53.575  55.948  0.00  0.00    +0.000 C 
ATOM      5  C   UNL     1     -29.150 -53.783  57.395  0.00  0.00    +0.000 C 
ATOM      6  C   UNL     1     -28.378 -52.119  55.893  0.00  0.00    +0.000 C 
ATOM      7  C   UNL     1     -31.560 -54.272  57.170  0.00  0.00    +0.000 C 
ATOM      8  C   UNL     1     -30.287 -54.414  57.934  0.00  0.00    +0.000 C 
ATOM      9  C   UNL     1     -28.753 -54.391  54.959  0.00  0.00    +0.000 C 
ATOM     10  C   UNL     1     -27.279 -51.485  56.711  0.00  0.00    +0.000 C 
ATOM     11  C   UNL     1     -27.303 -52.943  58.803  0.00  0.00    +0.000 C 
ATOM     12  C   UNL     1     -33.078 -52.601  56.173  0.00  0.00    +0.000 C 
ATOM     13  C   UNL     1     -26.679 -51.798  57.950  0.00  0.00    +0.000 C 
ATOM     14  C   UNL     1     -28.338 -52.317  59.784  0.00  0.00    +0.000 C 
ATOM     15  C   UNL     1     -26.144 -53.593  59.615  0.00  0.00    +0.000 C 
ENDROOT
BRANCH   4  16
ATOM     16  O   UNL     1     -32.364 -54.495  54.986  0.00  0.00    +0.000 OA
ATOM     17  H   UNL     1     -31.549 -54.995  54.803  0.00  0.00    +0.000 HD
ENDBRANCH   4  16
BRANCH  13  18
ATOM     18  O   UNL     1     -25.554 -51.086  58.353  0.00  0.00    +0.000 OA
ATOM     19  H   UNL     1     -24.945 -50.924  57.602  0.00  0.00    +0.000 HD
ENDBRANCH  13  18
BRANCH   3  20
ATOM     20  C   UNL     1     -30.819 -51.922  54.330  0.00  0.00    +0.000 C 
ATOM     21  C   UNL     1     -30.948 -50.932  53.169  0.00  0.00    +0.000 C 
BRANCH  21  25
ATOM     22  C   UNL     1     -31.879 -47.531  52.471  0.00  0.00    +0.000 C 
ATOM     23  C   UNL     1     -30.691 -48.504  52.236  0.00  0.00    +0.000 C 
ATOM     24  C   UNL     1     -33.044 -47.344  51.543  0.00  0.00    +0.000 C 
ATOM     25  C   UNL     1     -31.063 -49.999  52.085  0.00  0.00    +0.000 C 
ATOM     26  C   UNL     1     -33.824 -46.063  51.817  0.00  0.00    +0.000 C 
ATOM     27  C   UNL     1     -31.897 -46.402  53.343  0.00  0.00    +0.000 C 
ATOM     28  C   UNL     1     -33.055 -45.532  52.937  0.00  0.00    +0.000 C 
ATOM     29  C   UNL     1     -33.282 -48.359  50.599  0.00  0.00    +0.000 C 
ATOM     30  C   UNL     1     -31.701 -50.463  50.853  0.00  0.00    +0.000 C 
ATOM     31  C   UNL     1     -29.706 -48.359  53.457  0.00  0.00    +0.000 C 
ATOM     32  C   UNL     1     -29.904 -48.018  50.971  0.00  0.00    +0.000 C 
ATOM     33  C   UNL     1     -32.624 -49.693  50.369  0.00  0.00    +0.000 C 
ATOM     34  C   UNL     1     -35.295 -46.328  52.102  0.00  0.00    +0.000 C 
ATOM     35  C   UNL     1     -31.692 -51.896  50.391  0.00  0.00    +0.000 C 
BRANCH  26  36
ATOM     36  O   UNL     1     -33.760 -45.206  50.708  0.00  0.00    +0.000 OA
ATOM     37  H   UNL     1     -33.467 -44.379  51.130  0.00  0.00    +0.000 HD
ENDBRANCH  26  36
ENDBRANCH  21  25
ENDBRANCH   3  20
TORSDOF 5
ENDMDL
MODEL 3
REMARK VINA RESULT:      -6.8     41.477     44.843
REMARK  Name = 342374_SipholenolA.pdbqt.pdb
REMARK  5 active torsions:
REMARK  status: ('A' for Active; 'I' for Inactive)
REMARK    1  A    between atoms: C_3  and  C_20
REMARK    2  A    between atoms: C_4  and  O_16
REMARK    3  A    between atoms: C_13  and  O_18
REMARK    4  A    between atoms: C_21  and  C_25
REMARK    5  A    between atoms: C_26  and  O_36
REMARK                            x       y       z     vdW  Elec       q    Type
REMARK                         _______ _______ _______ _____ _____    ______ ____
ROOT
ATOM      1  O   UNL     1     -58.037 -75.134  34.151  0.00  0.00    +0.000 OA
ATOM      2  C   UNL     1     -60.434 -74.378  33.440  0.00  0.00    +0.000 C 
ATOM      3  C   UNL     1     -61.788 -73.902  33.974  0.00  0.00    +0.000 C 
ATOM      4  C   UNL     1     -62.400 -74.576  35.190  0.00  0.00    +0.000 C 
ATOM      5  C   UNL     1     -59.365 -74.876  34.510  0.00  0.00    +0.000 C 
ATOM      6  C   UNL     1     -59.713 -73.261  32.810  0.00  0.00    +0.000 C 
ATOM      7  C   UNL     1     -61.356 -75.271  35.916  0.00  0.00    +0.000 C 
ATOM      8  C   UNL     1     -59.895 -75.455  35.679  0.00  0.00    +0.000 C 
ATOM      9  C   UNL     1     -60.655 -75.528  32.420  0.00  0.00    +0.000 C 
ATOM     10  C   UNL     1     -58.333 -72.661  32.699  0.00  0.00    +0.000 C 
ATOM     11  C   UNL     1     -57.028 -74.093  34.357  0.00  0.00    +0.000 C 
ATOM     12  C   UNL     1     -63.120 -73.554  36.083  0.00  0.00    +0.000 C 
ATOM     13  C   UNL     1     -57.080 -72.983  33.264  0.00  0.00    +0.000 C 
ATOM     14  C   UNL     1     -57.165 -73.415  35.753  0.00  0.00    +0.000 C 
ATOM     15  C   UNL     1     -55.634 -74.779  34.248  0.00  0.00    +0.000 C 
ENDROOT
BRANCH   4  16
ATOM     16  O   UNL     1     -63.389 -75.489  34.782  0.00  0.00    +0.000 OA
ATOM     17  H   UNL     1     -64.188 -75.089  35.169  0.00  0.00    +0.000 HD
ENDBRANCH   4  16
BRANCH  13  18
ATOM     18  O   UNL     1     -55.946 -72.312  32.818  0.00  0.00    +0.000 OA
ATOM     19  H   UNL     1     -55.414 -71.972  33.568  0.00  0.00    +0.000 HD
ENDBRANCH  13  18
BRANCH   3  20
ATOM     20  C   UNL     1     -62.580 -72.987  33.193  0.00  0.00    +0.000 C 
ATOM     21  C   UNL     1     -63.428 -72.028  32.353  0.00  0.00    +0.000 C 
BRANCH  21  25
ATOM     22  C   UNL     1     -64.675 -71.585  29.011  0.00  0.00    +0.000 C 
ATOM     23  C   UNL     1     -65.200 -71.641  30.471  0.00  0.00    +0.000 C 
ATOM     24  C   UNL     1     -64.224 -70.343  28.299  0.00  0.00    +0.000 C 
ATOM     25  C   UNL     1     -64.224 -71.135  31.560  0.00  0.00    +0.000 C 
ATOM     26  C   UNL     1     -64.153 -70.517  26.786  0.00  0.00    +0.000 C 
ATOM     27  C   UNL     1     -64.888 -72.558  27.989  0.00  0.00    +0.000 C 
ATOM     28  C   UNL     1     -64.580 -71.906  26.669  0.00  0.00    +0.000 C 
ATOM     29  C   UNL     1     -63.897 -69.229  29.094  0.00  0.00    +0.000 C 
ATOM     30  C   UNL     1     -63.975 -69.700  31.694  0.00  0.00    +0.000 C 
ATOM     31  C   UNL     1     -65.565 -73.140  30.790  0.00  0.00    +0.000 C 
ATOM     32  C   UNL     1     -66.543 -70.836  30.539  0.00  0.00    +0.000 C 
ATOM     33  C   UNL     1     -63.831 -69.044  30.586  0.00  0.00    +0.000 C 
ATOM     34  C   UNL     1     -62.769 -70.210  26.230  0.00  0.00    +0.000 C 
ATOM     35  C   UNL     1     -63.445 -69.053  32.947  0.00  0.00    +0.000 C 
BRANCH  26  36
ATOM     36  O   UNL     1     -65.059 -69.652  26.152  0.00  0.00    +0.000 OA
ATOM     37  H   UNL     1     -65.542 -70.277  25.583  0.00  0.00    +0.000 HD
ENDBRANCH  26  36
ENDBRANCH  21  25
ENDBRANCH   3  20
TORSDOF 5
ENDMDL
MODEL 4
REMARK VINA RESULT:      -6.7     10.811     16.593
REMARK  Name = 342374_SipholenolA.pdbqt.pdb
REMARK  5 active torsions:
REMARK  status: ('A' for Active; 'I' for Inactive)
REMARK    1  A    between atoms: C_3  and  C_20
REMARK    2  A    between atoms: C_4  and  O_16
REMARK    3  A    between atoms: C_13  and  O_18
REMARK    4  A    between atoms: C_21  and  C_25
REMARK    5  A    between atoms: C_26  and  O_36
REMARK                            x       y       z     vdW  Elec       q    Type
REMARK                         _______ _______ _______ _____ _____    ______ ____
ROOT
ATOM      1  O   UNL     1     -44.343 -36.548  53.584  0.00  0.00    +0.000 OA
ATOM      2  C   UNL     1     -42.601 -38.367  52.893  0.00  0.00    +0.000 C 
ATOM      3  C   UNL     1     -42.433 -39.703  52.164  0.00  0.00    +0.000 C 
ATOM      4  C   UNL     1     -43.453 -40.810  52.371  0.00  0.00    +0.000 C 
ATOM      5  C   UNL     1     -44.087 -37.843  53.117  0.00  0.00    +0.000 C 
ATOM      6  C   UNL     1     -42.026 -37.274  52.094  0.00  0.00    +0.000 C 
ATOM      7  C   UNL     1     -44.676 -40.230  52.888  0.00  0.00    +0.000 C 
ATOM      8  C   UNL     1     -45.072 -38.840  53.257  0.00  0.00    +0.000 C 
ATOM      9  C   UNL     1     -41.910 -38.446  54.282  0.00  0.00    +0.000 C 
ATOM     10  C   UNL     1     -42.299 -35.851  51.674  0.00  0.00    +0.000 C 
ATOM     11  C   UNL     1     -44.640 -35.488  52.617  0.00  0.00    +0.000 C 
ATOM     12  C   UNL     1     -43.704 -41.580  51.065  0.00  0.00    +0.000 C 
ATOM     13  C   UNL     1     -43.362 -34.952  51.905  0.00  0.00    +0.000 C 
ATOM     14  C   UNL     1     -45.649 -35.959  51.528  0.00  0.00    +0.000 C 
ATOM     15  C   UNL     1     -45.254 -34.300  53.416  0.00  0.00    +0.000 C 
ENDROOT
BRANCH   4  16
ATOM     16  O   UNL     1     -42.951 -41.757  53.280  0.00  0.00    +0.000 OA
ATOM     17  H   UNL     1     -41.993 -41.687  53.119  0.00  0.00    +0.000 HD
ENDBRANCH   4  16
BRANCH  13  18
ATOM     18  O   UNL     1     -43.225 -33.627  51.503  0.00  0.00    +0.000 OA
ATOM     19  H   UNL     1     -43.050 -33.562  50.541  0.00  0.00    +0.000 HD
ENDBRANCH  13  18
BRANCH   3  20
ATOM     20  C   UNL     1     -41.200 -39.991  51.477  0.00  0.00    +0.000 C 
ATOM     21  C   UNL     1     -39.881 -40.296  50.762  0.00  0.00    +0.000 C 
BRANCH  21  25
ATOM     22  C   UNL     1     -37.764 -43.039  49.808  0.00  0.00    +0.000 C 
ATOM     23  C   UNL     1     -38.457 -41.804  49.171  0.00  0.00    +0.000 C 
ATOM     24  C   UNL     1     -36.387 -43.048  50.406  0.00  0.00    +0.000 C 
ATOM     25  C   UNL     1     -38.640 -40.579  50.100  0.00  0.00    +0.000 C 
ATOM     26  C   UNL     1     -35.821 -44.454  50.576  0.00  0.00    +0.000 C 
ATOM     27  C   UNL     1     -38.100 -44.410  49.596  0.00  0.00    +0.000 C 
ATOM     28  C   UNL     1     -36.931 -45.240  50.051  0.00  0.00    +0.000 C 
ATOM     29  C   UNL     1     -35.831 -41.805  50.759  0.00  0.00    +0.000 C 
ATOM     30  C   UNL     1     -37.479 -39.760  50.450  0.00  0.00    +0.000 C 
ATOM     31  C   UNL     1     -39.878 -42.261  48.668  0.00  0.00    +0.000 C 
ATOM     32  C   UNL     1     -37.647 -41.392  47.895  0.00  0.00    +0.000 C 
ATOM     33  C   UNL     1     -36.392 -40.408  50.728  0.00  0.00    +0.000 C 
ATOM     34  C   UNL     1     -35.433 -44.754  52.017  0.00  0.00    +0.000 C 
ATOM     35  C   UNL     1     -37.571 -38.338  50.934  0.00  0.00    +0.000 C 
BRANCH  26  36
ATOM     36  O   UNL     1     -34.670 -44.615  49.790  0.00  0.00    +0.000 OA
ATOM     37  H   UNL     1     -34.190 -43.793  49.994  0.00  0.00    +0.000 HD
ENDBRANCH  26  36
ENDBRANCH  21  25
ENDBRANCH   3  20
TORSDOF 5
ENDMDL
MODEL 5
REMARK VINA RESULT:      -6.6     29.412     33.138
REMARK  Name = 342374_SipholenolA.pdbqt.pdb
REMARK  5 active torsions:
REMARK  status: ('A' for Active; 'I' for Inactive)
REMARK    1  A    between atoms: C_3  and  C_20
REMARK    2  A    between atoms: C_4  and  O_16
REMARK    3  A    between atoms: C_13  and  O_18
REMARK    4  A    between atoms: C_21  and  C_25
REMARK    5  A    between atoms: C_26  and  O_36
REMARK                            x       y       z     vdW  Elec       q    Type
REMARK                         _______ _______ _______ _____ _____    ______ ____
ROOT
ATOM      1  O   UNL     1     -44.395 -58.697  28.207  0.00  0.00    +0.000 OA
ATOM      2  C   UNL     1     -45.178 -61.168  27.887  0.00  0.00    +0.000 C 
ATOM      3  C   UNL     1     -44.698 -62.581  27.545  0.00  0.00    +0.000 C 
ATOM      4  C   UNL     1     -43.704 -62.789  26.415  0.00  0.00    +0.000 C 
ATOM      5  C   UNL     1     -44.125 -59.985  27.728  0.00  0.00    +0.000 C 
ATOM      6  C   UNL     1     -45.505 -61.073  29.319  0.00  0.00    +0.000 C 
ATOM      7  C   UNL     1     -43.028 -61.534  26.150  0.00  0.00    +0.000 C 
ATOM      8  C   UNL     1     -43.150 -60.165  26.728  0.00  0.00    +0.000 C 
ATOM      9  C   UNL     1     -46.420 -60.819  27.022  0.00  0.00    +0.000 C 
ATOM     10  C   UNL     1     -45.359 -60.149  30.503  0.00  0.00    +0.000 C 
ATOM     11  C   UNL     1     -43.891 -58.308  29.526  0.00  0.00    +0.000 C 
ATOM     12  C   UNL     1     -42.705 -63.904  26.758  0.00  0.00    +0.000 C 
ATOM     13  C   UNL     1     -44.746 -58.892  30.690  0.00  0.00    +0.000 C 
ATOM     14  C   UNL     1     -42.411 -58.743  29.736  0.00  0.00    +0.000 C 
ATOM     15  C   UNL     1     -43.993 -56.756  29.615  0.00  0.00    +0.000 C 
ENDROOT
BRANCH   4  16
ATOM     16  O   UNL     1     -44.378 -63.222  25.260  0.00  0.00    +0.000 OA
ATOM     17  H   UNL     1     -44.266 -64.188  25.325  0.00  0.00    +0.000 HD
ENDBRANCH   4  16
BRANCH  13  18
ATOM     18  O   UNL     1     -44.939 -58.220  31.893  0.00  0.00    +0.000 OA
ATOM     19  H   UNL     1     -44.088 -58.057  32.351  0.00  0.00    +0.000 HD
ENDBRANCH  13  18
BRANCH   3  20
ATOM     20  C   UNL     1     -45.361 -63.720  28.127  0.00  0.00    +0.000 C 
ATOM     21  C   UNL     1     -46.080 -64.923  28.744  0.00  0.00    +0.000 C 
BRANCH  21  25
ATOM     22  C   UNL     1     -46.273 -66.842  31.777  0.00  0.00    +0.000 C 
ATOM     23  C   UNL     1     -47.207 -66.073  30.803  0.00  0.00    +0.000 C 
ATOM     24  C   UNL     1     -45.907 -68.294  31.663  0.00  0.00    +0.000 C 
ATOM     25  C   UNL     1     -46.762 -66.046  29.321  0.00  0.00    +0.000 C 
ATOM     26  C   UNL     1     -45.326 -68.864  32.951  0.00  0.00    +0.000 C 
ATOM     27  C   UNL     1     -45.932 -66.464  33.110  0.00  0.00    +0.000 C 
ATOM     28  C   UNL     1     -45.376 -67.679  33.800  0.00  0.00    +0.000 C 
ATOM     29  C   UNL     1     -46.103 -68.909  30.413  0.00  0.00    +0.000 C 
ATOM     30  C   UNL     1     -46.891 -67.255  28.507  0.00  0.00    +0.000 C 
ATOM     31  C   UNL     1     -47.312 -64.587  31.316  0.00  0.00    +0.000 C 
ATOM     32  C   UNL     1     -48.645 -66.684  30.919  0.00  0.00    +0.000 C 
ATOM     33  C   UNL     1     -46.553 -68.365  29.084  0.00  0.00    +0.000 C 
ATOM     34  C   UNL     1     -43.941 -69.464  32.749  0.00  0.00    +0.000 C 
ATOM     35  C   UNL     1     -46.940 -67.252  27.002  0.00  0.00    +0.000 C 
BRANCH  26  36
ATOM     36  O   UNL     1     -46.153 -69.882  33.452  0.00  0.00    +0.000 OA
ATOM     37  H   UNL     1     -46.792 -69.361  33.970  0.00  0.00    +0.000 HD
ENDBRANCH  26  36
ENDBRANCH  21  25
ENDBRANCH   3  20
TORSDOF 5
ENDMDL
MODEL 6
REMARK VINA RESULT:      -6.5      6.395     10.672
REMARK  Name = 342374_SipholenolA.pdbqt.pdb
REMARK  5 active torsions:
REMARK  status: ('A' for Active; 'I' for Inactive)
REMARK    1  A    between atoms: C_3  and  C_20
REMARK    2  A    between atoms: C_4  and  O_16
REMARK    3  A    between atoms: C_13  and  O_18
REMARK    4  A    between atoms: C_21  and  C_25
REMARK    5  A    between atoms: C_26  and  O_36
REMARK                            x       y       z     vdW  Elec       q    Type
REMARK                         _______ _______ _______ _____ _____    ______ ____
ROOT
ATOM      1  O   UNL     1     -30.917 -52.315  67.851  0.00  0.00    +0.000 OA
ATOM      2  C   UNL     1     -29.497 -53.424  65.961  0.00  0.00    +0.000 C 
ATOM      3  C   UNL     1     -29.277 -54.725  65.184  0.00  0.00    +0.000 C 
ATOM      4  C   UNL     1     -29.267 -56.053  65.921  0.00  0.00    +0.000 C 
ATOM      5  C   UNL     1     -30.489 -53.480  67.205  0.00  0.00    +0.000 C 
ATOM      6  C   UNL     1     -30.160 -52.426  65.108  0.00  0.00    +0.000 C 
ATOM      7  C   UNL     1     -29.932 -55.885  67.198  0.00  0.00    +0.000 C 
ATOM      8  C   UNL     1     -30.552 -54.714  67.881  0.00  0.00    +0.000 C 
ATOM      9  C   UNL     1     -28.131 -52.885  66.467  0.00  0.00    +0.000 C 
ATOM     10  C   UNL     1     -31.237 -51.370  65.147  0.00  0.00    +0.000 C 
ATOM     11  C   UNL     1     -32.206 -51.725  67.479  0.00  0.00    +0.000 C 
ATOM     12  C   UNL     1     -29.932 -57.154  65.081  0.00  0.00    +0.000 C 
ATOM     13  C   UNL     1     -32.135 -50.927  66.142  0.00  0.00    +0.000 C 
ATOM     14  C   UNL     1     -33.324 -52.802  67.350  0.00  0.00    +0.000 C 
ATOM     15  C   UNL     1     -32.586 -50.712  68.598  0.00  0.00    +0.000 C 
ENDROOT
BRANCH   4  16
ATOM     16  O   UNL     1     -27.942 -56.476  66.123  0.00  0.00    +0.000 OA
ATOM     17  H   UNL     1     -28.078 -57.280  66.656  0.00  0.00    +0.000 HD
ENDBRANCH   4  16
BRANCH  13  18
ATOM     18  O   UNL     1     -32.906 -49.796  65.900  0.00  0.00    +0.000 OA
ATOM     19  H   UNL     1     -32.627 -49.044  66.464  0.00  0.00    +0.000 HD
ENDBRANCH  13  18
BRANCH   3  20
ATOM     20  C   UNL     1     -28.847 -54.670  63.810  0.00  0.00    +0.000 C 
ATOM     21  C   UNL     1     -28.385 -54.628  62.351  0.00  0.00    +0.000 C 
BRANCH  21  25
ATOM     22  C   UNL     1     -29.164 -53.124  59.180  0.00  0.00    +0.000 C 
ATOM     23  C   UNL     1     -27.957 -53.298  60.141  0.00  0.00    +0.000 C 
ATOM     24  C   UNL     1     -29.538 -54.070  58.076  0.00  0.00    +0.000 C 
ATOM     25  C   UNL     1     -27.947 -54.595  60.984  0.00  0.00    +0.000 C 
ATOM     26  C   UNL     1     -30.493 -53.452  57.062  0.00  0.00    +0.000 C 
ATOM     27  C   UNL     1     -29.866 -51.912  58.902  0.00  0.00    +0.000 C 
ATOM     28  C   UNL     1     -30.647 -52.120  57.634  0.00  0.00    +0.000 C 
ATOM     29  C   UNL     1     -29.009 -55.372  58.140  0.00  0.00    +0.000 C 
ATOM     30  C   UNL     1     -27.633 -55.872  60.341  0.00  0.00    +0.000 C 
ATOM     31  C   UNL     1     -27.948 -52.068  61.125  0.00  0.00    +0.000 C 
ATOM     32  C   UNL     1     -26.641 -53.199  59.296  0.00  0.00    +0.000 C 
ATOM     33  C   UNL     1     -28.168 -56.066  59.177  0.00  0.00    +0.000 C 
ATOM     34  C   UNL     1     -31.781 -54.252  56.914  0.00  0.00    +0.000 C 
ATOM     35  C   UNL     1     -27.145 -57.088  61.082  0.00  0.00    +0.000 C 
BRANCH  26  36
ATOM     36  O   UNL     1     -29.890 -53.394  55.796  0.00  0.00    +0.000 OA
ATOM     37  H   UNL     1     -30.158 -54.252  55.424  0.00  0.00    +0.000 HD
ENDBRANCH  26  36
ENDBRANCH  21  25
ENDBRANCH   3  20
TORSDOF 5
ENDMDL
MODEL 7
REMARK VINA RESULT:      -6.3     10.178     16.020
REMARK  Name = 342374_SipholenolA.pdbqt.pdb
REMARK  5 active torsions:
REMARK  status: ('A' for Active; 'I' for Inactive)
REMARK    1  A    between atoms: C_3  and  C_20
REMARK    2  A    between atoms: C_4  and  O_16
REMARK    3  A    between atoms: C_13  and  O_18
REMARK    4  A    between atoms: C_21  and  C_25
REMARK    5  A    between atoms: C_26  and  O_36
REMARK                            x       y       z     vdW  Elec       q    Type
REMARK                         _______ _______ _______ _____ _____    ______ ____
ROOT
ATOM      1  O   UNL     1     -44.922 -39.094  52.337  0.00  0.00    +0.000 OA
ATOM      2  C   UNL     1     -42.811 -40.070  51.149  0.00  0.00    +0.000 C 
ATOM      3  C   UNL     1     -42.021 -40.070  49.838  0.00  0.00    +0.000 C 
ATOM      4  C   UNL     1     -42.758 -40.148  48.512  0.00  0.00    +0.000 C 
ATOM      5  C   UNL     1     -44.220 -39.329  51.149  0.00  0.00    +0.000 C 
ATOM      6  C   UNL     1     -42.086 -39.313  52.181  0.00  0.00    +0.000 C 
ATOM      7  C   UNL     1     -44.136 -39.745  48.717  0.00  0.00    +0.000 C 
ATOM      8  C   UNL     1     -44.910 -39.329  49.922  0.00  0.00    +0.000 C 
ATOM      9  C   UNL     1     -43.044 -41.534  51.613  0.00  0.00    +0.000 C 
ATOM     10  C   UNL     1     -42.316 -38.320  53.295  0.00  0.00    +0.000 C 
ATOM     11  C   UNL     1     -44.792 -37.792  52.996  0.00  0.00    +0.000 C 
ATOM     12  C   UNL     1     -42.072 -39.278  47.448  0.00  0.00    +0.000 C 
ATOM     13  C   UNL     1     -43.457 -37.652  53.787  0.00  0.00    +0.000 C 
ATOM     14  C   UNL     1     -44.889 -36.614  51.982  0.00  0.00    +0.000 C 
ATOM     15  C   UNL     1     -45.952 -37.684  54.029  0.00  0.00    +0.000 C 
ENDROOT
BRANCH   4  16
ATOM     16  O   UNL     1     -42.712 -41.462  48.017  0.00  0.00    +0.000 OA
ATOM     17  H   UNL     1     -43.214 -41.941  48.701  0.00  0.00    +0.000 HD
ENDBRANCH   4  16
BRANCH  13  18
ATOM     18  O   UNL     1     -43.351 -36.910  54.959  0.00  0.00    +0.000 OA
ATOM     19  H   UNL     1     -42.457 -36.519  55.055  0.00  0.00    +0.000 HD
ENDBRANCH  13  18
BRANCH   3  20
ATOM     20  C   UNL     1     -40.590 -40.234  49.867  0.00  0.00    +0.000 C 
ATOM     21  C   UNL     1     -39.069 -40.412  49.882  0.00  0.00    +0.000 C 
BRANCH  21  25
ATOM     22  C   UNL     1     -36.537 -42.954  49.668  0.00  0.00    +0.000 C 
ATOM     23  C   UNL     1     -36.930 -41.616  48.985  0.00  0.00    +0.000 C 
ATOM     24  C   UNL     1     -35.635 -43.087  50.860  0.00  0.00    +0.000 C 
ATOM     25  C   UNL     1     -37.644 -40.581  49.887  0.00  0.00    +0.000 C 
ATOM     26  C   UNL     1     -35.111 -44.505  51.055  0.00  0.00    +0.000 C 
ATOM     27  C   UNL     1     -36.612 -44.259  49.095  0.00  0.00    +0.000 C 
ATOM     28  C   UNL     1     -35.752 -45.170  49.926  0.00  0.00    +0.000 C 
ATOM     29  C   UNL     1     -35.428 -41.936  51.641  0.00  0.00    +0.000 C 
ATOM     30  C   UNL     1     -36.877 -39.853  50.897  0.00  0.00    +0.000 C 
ATOM     31  C   UNL     1     -37.878 -41.957  47.775  0.00  0.00    +0.000 C 
ATOM     32  C   UNL     1     -35.635 -40.984  48.368  0.00  0.00    +0.000 C 
ATOM     33  C   UNL     1     -36.015 -40.552  51.567  0.00  0.00    +0.000 C 
ATOM     34  C   UNL     1     -35.454 -45.070  52.426  0.00  0.00    +0.000 C 
ATOM     35  C   UNL     1     -37.311 -38.543  51.499  0.00  0.00    +0.000 C 
BRANCH  26  36
ATOM     36  O   UNL     1     -33.713 -44.531  50.930  0.00  0.00    +0.000 OA
ATOM     37  H   UNL     1     -33.457 -44.888  51.799  0.00  0.00    +0.000 HD
ENDBRANCH  26  36
ENDBRANCH  21  25
ENDBRANCH   3  20
TORSDOF 5
ENDMDL
MODEL 8
REMARK VINA RESULT:      -6.3     28.342     32.240
REMARK  Name = 342374_SipholenolA.pdbqt.pdb
REMARK  5 active torsions:
REMARK  status: ('A' for Active; 'I' for Inactive)
REMARK    1  A    between atoms: C_3  and  C_20
REMARK    2  A    between atoms: C_4  and  O_16
REMARK    3  A    between atoms: C_13  and  O_18
REMARK    4  A    between atoms: C_21  and  C_25
REMARK    5  A    between atoms: C_26  and  O_36
REMARK                            x       y       z     vdW  Elec       q    Type
REMARK                         _______ _______ _______ _____ _____    ______ ____
ROOT
ATOM      1  O   UNL     1     -46.969 -78.490  41.912  0.00  0.00    +0.000 OA
ATOM      2  C   UNL     1     -45.247 -77.758  43.734  0.00  0.00    +0.000 C 
ATOM      3  C   UNL     1     -44.019 -76.881  43.991  0.00  0.00    +0.000 C 
ATOM      4  C   UNL     1     -42.900 -76.828  42.965  0.00  0.00    +0.000 C 
ATOM      5  C   UNL     1     -45.746 -77.887  42.228  0.00  0.00    +0.000 C 
ATOM      6  C   UNL     1     -46.433 -77.177  44.382  0.00  0.00    +0.000 C 
ATOM      7  C   UNL     1     -43.414 -77.281  41.688  0.00  0.00    +0.000 C 
ATOM      8  C   UNL     1     -44.745 -77.785  41.242  0.00  0.00    +0.000 C 
ATOM      9  C   UNL     1     -44.982 -79.191  44.271  0.00  0.00    +0.000 C 
ATOM     10  C   UNL     1     -47.901 -76.922  44.144  0.00  0.00    +0.000 C 
ATOM     11  C   UNL     1     -48.149 -77.645  41.711  0.00  0.00    +0.000 C 
ATOM     12  C   UNL     1     -42.311 -75.413  42.864  0.00  0.00    +0.000 C 
ATOM     13  C   UNL     1     -48.768 -77.153  43.054  0.00  0.00    +0.000 C 
ATOM     14  C   UNL     1     -47.832 -76.401  40.830  0.00  0.00    +0.000 C 
ATOM     15  C   UNL     1     -49.224 -78.522  41.004  0.00  0.00    +0.000 C 
ENDROOT
BRANCH   4  16
ATOM     16  O   UNL     1     -41.838 -77.654  43.374  0.00  0.00    +0.000 OA
ATOM     17  H   UNL     1     -42.240 -78.537  43.289  0.00  0.00    +0.000 HD
ENDBRANCH   4  16
BRANCH  13  18
ATOM     18  O   UNL     1     -50.133 -76.947  43.222  0.00  0.00    +0.000 OA
ATOM     19  H   UNL     1     -50.349 -76.719  44.151  0.00  0.00    +0.000 HD
ENDBRANCH  13  18
BRANCH   3  20
ATOM     20  C   UNL     1     -43.817 -76.301  45.294  0.00  0.00    +0.000 C 
ATOM     21  C   UNL     1     -43.587 -75.690  46.679  0.00  0.00    +0.000 C 
BRANCH  21  25
ATOM     22  C   UNL     1     -42.222 -76.494  49.906  0.00  0.00    +0.000 C 
ATOM     23  C   UNL     1     -42.086 -75.411  48.800  0.00  0.00    +0.000 C 
ATOM     24  C   UNL     1     -43.181 -76.440  51.059  0.00  0.00    +0.000 C 
ATOM     25  C   UNL     1     -43.364 -75.121  47.978  0.00  0.00    +0.000 C 
ATOM     26  C   UNL     1     -42.819 -77.406  52.181  0.00  0.00    +0.000 C 
ATOM     27  C   UNL     1     -41.254 -77.481  50.257  0.00  0.00    +0.000 C 
ATOM     28  C   UNL     1     -41.617 -78.011  51.617  0.00  0.00    +0.000 C 
ATOM     29  C   UNL     1     -44.276 -75.564  50.944  0.00  0.00    +0.000 C 
ATOM     30  C   UNL     1     -44.462 -74.373  48.591  0.00  0.00    +0.000 C 
ATOM     31  C   UNL     1     -40.954 -75.880  47.810  0.00  0.00    +0.000 C 
ATOM     32  C   UNL     1     -41.569 -74.092  49.470  0.00  0.00    +0.000 C 
ATOM     33  C   UNL     1     -44.747 -74.685  49.815  0.00  0.00    +0.000 C 
ATOM     34  C   UNL     1     -43.948 -78.376  52.501  0.00  0.00    +0.000 C 
ATOM     35  C   UNL     1     -45.519 -73.641  47.807  0.00  0.00    +0.000 C 
BRANCH  26  36
ATOM     36  O   UNL     1     -42.527 -76.701  53.358  0.00  0.00    +0.000 OA
ATOM     37  H   UNL     1     -43.200 -75.999  53.325  0.00  0.00    +0.000 HD
ENDBRANCH  26  36
ENDBRANCH  21  25
ENDBRANCH   3  20
TORSDOF 5
ENDMDL
MODEL 9
REMARK VINA RESULT:      -6.1     29.029     32.521
REMARK  Name = 342374_SipholenolA.pdbqt.pdb
REMARK  5 active torsions:
REMARK  status: ('A' for Active; 'I' for Inactive)
REMARK    1  A    between atoms: C_3  and  C_20
REMARK    2  A    between atoms: C_4  and  O_16
REMARK    3  A    between atoms: C_13  and  O_18
REMARK    4  A    between atoms: C_21  and  C_25
REMARK    5  A    between atoms: C_26  and  O_36
REMARK                            x       y       z     vdW  Elec       q    Type
REMARK                         _______ _______ _______ _____ _____    ______ ____
ROOT
ATOM      1  O   UNL     1     -45.777 -65.171  27.198  0.00  0.00    +0.000 OA
ATOM      2  C   UNL     1     -45.442 -65.557  29.759  0.00  0.00    +0.000 C 
ATOM      3  C   UNL     1     -46.099 -66.130  31.018  0.00  0.00    +0.000 C 
ATOM      4  C   UNL     1     -47.572 -65.871  31.286  0.00  0.00    +0.000 C 
ATOM      5  C   UNL     1     -46.335 -65.482  28.443  0.00  0.00    +0.000 C 
ATOM      6  C   UNL     1     -44.345 -66.430  29.313  0.00  0.00    +0.000 C 
ATOM      7  C   UNL     1     -48.216 -65.494  30.043  0.00  0.00    +0.000 C 
ATOM      8  C   UNL     1     -47.716 -65.299  28.652  0.00  0.00    +0.000 C 
ATOM      9  C   UNL     1     -44.913 -64.127  30.056  0.00  0.00    +0.000 C 
ATOM     10  C   UNL     1     -43.736 -67.013  28.062  0.00  0.00    +0.000 C 
ATOM     11  C   UNL     1     -45.408 -66.260  26.290  0.00  0.00    +0.000 C 
ATOM     12  C   UNL     1     -48.242 -67.101  31.916  0.00  0.00    +0.000 C 
ATOM     13  C   UNL     1     -44.067 -66.944  26.692  0.00  0.00    +0.000 C 
ATOM     14  C   UNL     1     -46.514 -67.354  26.212  0.00  0.00    +0.000 C 
ATOM     15  C   UNL     1     -45.198 -65.631  24.881  0.00  0.00    +0.000 C 
ENDROOT
BRANCH   4  16
ATOM     16  O   UNL     1     -47.710 -64.837  32.229  0.00  0.00    +0.000 OA
ATOM     17  H   UNL     1     -47.502 -65.305  33.057  0.00  0.00    +0.000 HD
ENDBRANCH   4  16
BRANCH  13  18
ATOM     18  O   UNL     1     -43.183 -67.475  25.757  0.00  0.00    +0.000 OA
ATOM     19  H   UNL     1     -43.559 -68.267  25.319  0.00  0.00    +0.000 HD
ENDBRANCH  13  18
BRANCH   3  20
ATOM     20  C   UNL     1     -45.278 -66.705  32.052  0.00  0.00    +0.000 C 
ATOM     21  C   UNL     1     -44.413 -67.330  33.150  0.00  0.00    +0.000 C 
BRANCH  21  25
ATOM     22  C   UNL     1     -44.595 -68.486  36.549  0.00  0.00    +0.000 C 
ATOM     23  C   UNL     1     -44.160 -68.996  35.148  0.00  0.00    +0.000 C 
ATOM     24  C   UNL     1     -43.702 -67.785  37.532  0.00  0.00    +0.000 C 
ATOM     25  C   UNL     1     -43.608 -67.923  34.180  0.00  0.00    +0.000 C 
ATOM     26  C   UNL     1     -44.272 -67.768  38.946  0.00  0.00    +0.000 C 
ATOM     27  C   UNL     1     -45.731 -68.914  37.299  0.00  0.00    +0.000 C 
ATOM     28  C   UNL     1     -45.521 -68.487  38.726  0.00  0.00    +0.000 C 
ATOM     29  C   UNL     1     -42.516 -67.218  37.032  0.00  0.00    +0.000 C 
ATOM     30  C   UNL     1     -42.273 -67.368  34.403  0.00  0.00    +0.000 C 
ATOM     31  C   UNL     1     -45.415 -69.672  34.476  0.00  0.00    +0.000 C 
ATOM     32  C   UNL     1     -43.100 -70.133  35.349  0.00  0.00    +0.000 C 
ATOM     33  C   UNL     1     -41.971 -67.097  35.634  0.00  0.00    +0.000 C 
ATOM     34  C   UNL     1     -44.418 -66.357  39.497  0.00  0.00    +0.000 C 
ATOM     35  C   UNL     1     -41.452 -66.699  33.333  0.00  0.00    +0.000 C 
BRANCH  26  36
ATOM     36  O   UNL     1     -43.429 -68.473  39.820  0.00  0.00    +0.000 OA
ATOM     37  H   UNL     1     -43.986 -69.244  40.031  0.00  0.00    +0.000 HD
ENDBRANCH  26  36
ENDBRANCH  21  25
ENDBRANCH   3  20
TORSDOF 5
ENDMDL
