MODEL 1
REMARK VINA RESULT:      -4.1      0.000      0.000
REMARK  Name = 43806_Diaminocyclohexane.pdbqt.pdb
REMARK  2 active torsions:
REMARK  status: ('A' for Active; 'I' for Inactive)
REMARK    1  A    between atoms: C_1  and  N_7
REMARK    2  A    between atoms: C_2  and  N_10
REMARK                            x       y       z     vdW  Elec       q    Type
REMARK                         _______ _______ _______ _____ _____    ______ ____
ROOT
ATOM      1  C   UNL     1     -64.179 -66.397  34.297  0.00  0.00    +0.000 A 
ATOM      2  C   UNL     1     -63.421 -67.660  34.428  0.00  0.00    +0.000 A 
ATOM      3  C   UNL     1     -64.292 -65.625  35.499  0.00  0.00    +0.000 A 
ATOM      4  C   UNL     1     -62.881 -67.914  35.731  0.00  0.00    +0.000 A 
ATOM      5  C   UNL     1     -63.752 -65.838  36.923  0.00  0.00    +0.000 A 
ATOM      6  C   UNL     1     -62.950 -67.134  37.053  0.00  0.00    +0.000 A 
ENDROOT
BRANCH   1   7
ATOM      7  N   UNL     1     -64.691 -65.937  33.060  0.00  0.00    +0.000 N 
ATOM      8  H   UNL     1     -63.975 -65.602  32.425  0.00  0.00    +0.000 HD
ATOM      9  H   UNL     1     -65.470 -65.291  33.141  0.00  0.00    +0.000 HD
ENDBRANCH   1   7
BRANCH   2  10
ATOM     10  N   UNL     1     -63.302 -68.594  33.371  0.00  0.00    +0.000 N 
ATOM     11  H   UNL     1     -63.757 -69.481  33.561  0.00  0.00    +0.000 HD
ATOM     12  H   UNL     1     -62.358 -68.712  33.018  0.00  0.00    +0.000 HD
ENDBRANCH   2  10
TORSDOF 2
ENDMDL
MODEL 2
REMARK VINA RESULT:      -4.0     24.158     24.513
REMARK  Name = 43806_Diaminocyclohexane.pdbqt.pdb
REMARK  2 active torsions:
REMARK  status: ('A' for Active; 'I' for Inactive)
REMARK    1  A    between atoms: C_1  and  N_7
REMARK    2  A    between atoms: C_2  and  N_10
REMARK                            x       y       z     vdW  Elec       q    Type
REMARK                         _______ _______ _______ _____ _____    ______ ____
ROOT
ATOM      1  C   UNL     1     -46.041 -49.337  33.990  0.00  0.00    +0.000 A 
ATOM      2  C   UNL     1     -45.394 -50.627  34.312  0.00  0.00    +0.000 A 
ATOM      3  C   UNL     1     -46.756 -49.305  32.749  0.00  0.00    +0.000 A 
ATOM      4  C   UNL     1     -45.604 -51.670  33.351  0.00  0.00    +0.000 A 
ATOM      5  C   UNL     1     -47.013 -50.372  31.672  0.00  0.00    +0.000 A 
ATOM      6  C   UNL     1     -46.362 -51.713  32.015  0.00  0.00    +0.000 A 
ENDROOT
BRANCH   1   7
ATOM      7  N   UNL     1     -46.027 -48.233  34.875  0.00  0.00    +0.000 N 
ATOM      8  H   UNL     1     -45.275 -48.270  35.556  0.00  0.00    +0.000 HD
ATOM      9  H   UNL     1     -46.924 -48.022  35.301  0.00  0.00    +0.000 HD
ENDBRANCH   1   7
BRANCH   2  10
ATOM     10  N   UNL     1     -44.562 -50.805  35.442  0.00  0.00    +0.000 N 
ATOM     11  H   UNL     1     -44.783 -51.636  35.982  0.00  0.00    +0.000 HD
ATOM     12  H   UNL     1     -44.463 -49.981  36.026  0.00  0.00    +0.000 HD
ENDBRANCH   2  10
TORSDOF 2
ENDMDL
MODEL 3
REMARK VINA RESULT:      -4.0     24.120     24.578
REMARK  Name = 43806_Diaminocyclohexane.pdbqt.pdb
REMARK  2 active torsions:
REMARK  status: ('A' for Active; 'I' for Inactive)
REMARK    1  A    between atoms: C_1  and  N_7
REMARK    2  A    between atoms: C_2  and  N_10
REMARK                            x       y       z     vdW  Elec       q    Type
REMARK                         _______ _______ _______ _____ _____    ______ ____
ROOT
ATOM      1  C   UNL     1     -45.380 -50.684  34.309  0.00  0.00    +0.000 A 
ATOM      2  C   UNL     1     -46.044 -49.403  33.985  0.00  0.00    +0.000 A 
ATOM      3  C   UNL     1     -45.580 -51.734  33.355  0.00  0.00    +0.000 A 
ATOM      4  C   UNL     1     -46.764 -49.386  32.746  0.00  0.00    +0.000 A 
ATOM      5  C   UNL     1     -46.342 -51.791  32.021  0.00  0.00    +0.000 A 
ATOM      6  C   UNL     1     -47.011 -50.459  31.675  0.00  0.00    +0.000 A 
ENDROOT
BRANCH   1   7
ATOM      7  N   UNL     1     -44.542 -50.847  35.438  0.00  0.00    +0.000 N 
ATOM      8  H   UNL     1     -44.105 -49.984  35.746  0.00  0.00    +0.000 HD
ATOM      9  H   UNL     1     -43.878 -51.611  35.363  0.00  0.00    +0.000 HD
ENDBRANCH   1   7
BRANCH   2  10
ATOM     10  N   UNL     1     -46.040 -48.295  34.866  0.00  0.00    +0.000 N 
ATOM     11  H   UNL     1     -45.174 -48.195  35.387  0.00  0.00    +0.000 HD
ATOM     12  H   UNL     1     -46.859 -48.227  35.461  0.00  0.00    +0.000 HD
ENDBRANCH   2  10
TORSDOF 2
ENDMDL
MODEL 4
REMARK VINA RESULT:      -3.9      8.386      9.458
REMARK  Name = 43806_Diaminocyclohexane.pdbqt.pdb
REMARK  2 active torsions:
REMARK  status: ('A' for Active; 'I' for Inactive)
REMARK    1  A    between atoms: C_1  and  N_7
REMARK    2  A    between atoms: C_2  and  N_10
REMARK                            x       y       z     vdW  Elec       q    Type
REMARK                         _______ _______ _______ _____ _____    ______ ____
ROOT
ATOM      1  C   UNL     1     -58.825 -62.279  41.299  0.00  0.00    +0.000 A 
ATOM      2  C   UNL     1     -59.746 -61.846  42.373  0.00  0.00    +0.000 A 
ATOM      3  C   UNL     1     -59.009 -63.625  40.845  0.00  0.00    +0.000 A 
ATOM      4  C   UNL     1     -60.711 -62.824  42.781  0.00  0.00    +0.000 A 
ATOM      5  C   UNL     1     -60.007 -64.727  41.239  0.00  0.00    +0.000 A 
ATOM      6  C   UNL     1     -60.972 -64.271  42.335  0.00  0.00    +0.000 A 
ENDROOT
BRANCH   1   7
ATOM      7  N   UNL     1     -57.882 -61.409  40.704  0.00  0.00    +0.000 N 
ATOM      8  H   UNL     1     -57.875 -61.452  39.690  0.00  0.00    +0.000 HD
ATOM      9  H   UNL     1     -56.949 -61.465  41.100  0.00  0.00    +0.000 HD
ENDBRANCH   1   7
BRANCH   2  10
ATOM     10  N   UNL     1     -59.638 -60.588  43.012  0.00  0.00    +0.000 N 
ATOM     11  H   UNL     1     -60.532 -60.197  43.291  0.00  0.00    +0.000 HD
ATOM     12  H   UNL     1     -59.059 -59.915  42.521  0.00  0.00    +0.000 HD
ENDBRANCH   2  10
TORSDOF 2
ENDMDL
MODEL 5
REMARK VINA RESULT:      -3.9     18.181     19.003
REMARK  Name = 43806_Diaminocyclohexane.pdbqt.pdb
REMARK  2 active torsions:
REMARK  status: ('A' for Active; 'I' for Inactive)
REMARK    1  A    between atoms: C_1  and  N_7
REMARK    2  A    between atoms: C_2  and  N_10
REMARK                            x       y       z     vdW  Elec       q    Type
REMARK                         _______ _______ _______ _____ _____    ______ ____
ROOT
ATOM      1  C   UNL     1     -48.959 -60.900  43.584  0.00  0.00    +0.000 A 
ATOM      2  C   UNL     1     -48.685 -60.882  45.038  0.00  0.00    +0.000 A 
ATOM      3  C   UNL     1     -47.983 -61.581  42.787  0.00  0.00    +0.000 A 
ATOM      4  C   UNL     1     -47.499 -61.578  45.442  0.00  0.00    +0.000 A 
ATOM      5  C   UNL     1     -46.692 -62.335  43.146  0.00  0.00    +0.000 A 
ATOM      6  C   UNL     1     -46.420 -62.335  44.652  0.00  0.00    +0.000 A 
ENDROOT
BRANCH   1   7
ATOM      7  N   UNL     1     -50.138 -60.354  43.022  0.00  0.00    +0.000 N 
ATOM      8  H   UNL     1     -50.988 -60.801  43.352  0.00  0.00    +0.000 HD
ATOM      9  H   UNL     1     -50.118 -60.259  42.012  0.00  0.00    +0.000 HD
ENDBRANCH   1   7
BRANCH   2  10
ATOM     10  N   UNL     1     -49.485 -60.167  45.959  0.00  0.00    +0.000 N 
ATOM     11  H   UNL     1     -49.695 -59.219  45.663  0.00  0.00    +0.000 HD
ATOM     12  H   UNL     1     -49.162 -60.208  46.919  0.00  0.00    +0.000 HD
ENDBRANCH   2  10
TORSDOF 2
ENDMDL
MODEL 6
REMARK VINA RESULT:      -3.8     23.560     23.881
REMARK  Name = 43806_Diaminocyclohexane.pdbqt.pdb
REMARK  2 active torsions:
REMARK  status: ('A' for Active; 'I' for Inactive)
REMARK    1  A    between atoms: C_1  and  N_7
REMARK    2  A    between atoms: C_2  and  N_10
REMARK                            x       y       z     vdW  Elec       q    Type
REMARK                         _______ _______ _______ _____ _____    ______ ____
ROOT
ATOM      1  C   UNL     1     -45.592 -51.345  34.144  0.00  0.00    +0.000 A 
ATOM      2  C   UNL     1     -45.656 -52.152  32.906  0.00  0.00    +0.000 A 
ATOM      3  C   UNL     1     -46.174 -50.039  34.052  0.00  0.00    +0.000 A 
ATOM      4  C   UNL     1     -46.321 -51.523  31.802  0.00  0.00    +0.000 A 
ATOM      5  C   UNL     1     -46.888 -49.299  32.909  0.00  0.00    +0.000 A 
ATOM      6  C   UNL     1     -46.973 -50.142  31.635  0.00  0.00    +0.000 A 
ENDROOT
BRANCH   1   7
ATOM      7  N   UNL     1     -45.068 -51.848  35.358  0.00  0.00    +0.000 N 
ATOM      8  H   UNL     1     -45.473 -51.418  36.183  0.00  0.00    +0.000 HD
ATOM      9  H   UNL     1     -44.054 -51.881  35.397  0.00  0.00    +0.000 HD
ENDBRANCH   1   7
BRANCH   2  10
ATOM     10  N   UNL     1     -45.040 -53.420  32.787  0.00  0.00    +0.000 N 
ATOM     11  H   UNL     1     -45.676 -54.196  32.945  0.00  0.00    +0.000 HD
ATOM     12  H   UNL     1     -44.175 -53.518  33.306  0.00  0.00    +0.000 HD
ENDBRANCH   2  10
TORSDOF 2
ENDMDL
MODEL 7
REMARK VINA RESULT:      -3.8     28.365     29.420
REMARK  Name = 43806_Diaminocyclohexane.pdbqt.pdb
REMARK  2 active torsions:
REMARK  status: ('A' for Active; 'I' for Inactive)
REMARK    1  A    between atoms: C_1  and  N_7
REMARK    2  A    between atoms: C_2  and  N_10
REMARK                            x       y       z     vdW  Elec       q    Type
REMARK                         _______ _______ _______ _____ _____    ______ ____
ROOT
ATOM      1  C   UNL     1     -65.061 -42.296  50.596  0.00  0.00    +0.000 A 
ATOM      2  C   UNL     1     -65.644 -43.453  51.311  0.00  0.00    +0.000 A 
ATOM      3  C   UNL     1     -64.398 -41.336  51.427  0.00  0.00    +0.000 A 
ATOM      4  C   UNL     1     -65.432 -43.463  52.728  0.00  0.00    +0.000 A 
ATOM      5  C   UNL     1     -64.143 -41.275  52.943  0.00  0.00    +0.000 A 
ATOM      6  C   UNL     1     -64.728 -42.482  53.679  0.00  0.00    +0.000 A 
ENDROOT
BRANCH   1   7
ATOM      7  N   UNL     1     -65.084 -42.178  49.186  0.00  0.00    +0.000 N 
ATOM      8  H   UNL     1     -64.543 -41.393  48.837  0.00  0.00    +0.000 HD
ATOM      9  H   UNL     1     -66.011 -42.223  48.775  0.00  0.00    +0.000 HD
ENDBRANCH   1   7
BRANCH   2  10
ATOM     10  N   UNL     1     -66.423 -44.439  50.662  0.00  0.00    +0.000 N 
ATOM     11  H   UNL     1     -67.350 -44.552  51.060  0.00  0.00    +0.000 HD
ATOM     12  H   UNL     1     -65.951 -45.327  50.527  0.00  0.00    +0.000 HD
ENDBRANCH   2  10
TORSDOF 2
ENDMDL
MODEL 8
REMARK VINA RESULT:      -3.8      1.952      3.511
REMARK  Name = 43806_Diaminocyclohexane.pdbqt.pdb
REMARK  2 active torsions:
REMARK  status: ('A' for Active; 'I' for Inactive)
REMARK    1  A    between atoms: C_1  and  N_7
REMARK    2  A    between atoms: C_2  and  N_10
REMARK                            x       y       z     vdW  Elec       q    Type
REMARK                         _______ _______ _______ _____ _____    ______ ____
ROOT
ATOM      1  C   UNL     1     -63.170 -68.063  34.707  0.00  0.00    +0.000 A 
ATOM      2  C   UNL     1     -63.566 -66.906  35.540  0.00  0.00    +0.000 A 
ATOM      3  C   UNL     1     -63.486 -67.947  33.314  0.00  0.00    +0.000 A 
ATOM      4  C   UNL     1     -64.178 -65.823  34.829  0.00  0.00    +0.000 A 
ATOM      5  C   UNL     1     -64.146 -66.831  32.489  0.00  0.00    +0.000 A 
ATOM      6  C   UNL     1     -64.535 -65.626  33.347  0.00  0.00    +0.000 A 
ENDROOT
BRANCH   1   7
ATOM      7  N   UNL     1     -62.460 -69.172  35.225  0.00  0.00    +0.000 N 
ATOM      8  H   UNL     1     -62.357 -69.933  34.562  0.00  0.00    +0.000 HD
ATOM      9  H   UNL     1     -62.783 -69.491  36.133  0.00  0.00    +0.000 HD
ENDBRANCH   1   7
BRANCH   2  10
ATOM     10  N   UNL     1     -63.426 -66.895  36.948  0.00  0.00    +0.000 N 
ATOM     11  H   UNL     1     -63.108 -67.780  37.331  0.00  0.00    +0.000 HD
ATOM     12  H   UNL     1     -64.227 -66.524  37.448  0.00  0.00    +0.000 HD
ENDBRANCH   2  10
TORSDOF 2
ENDMDL
MODEL 9
REMARK VINA RESULT:      -3.7     22.525     23.713
REMARK  Name = 43806_Diaminocyclohexane.pdbqt.pdb
REMARK  2 active torsions:
REMARK  status: ('A' for Active; 'I' for Inactive)
REMARK    1  A    between atoms: C_1  and  N_7
REMARK    2  A    between atoms: C_2  and  N_10
REMARK                            x       y       z     vdW  Elec       q    Type
REMARK                         _______ _______ _______ _____ _____    ______ ____
ROOT
ATOM      1  C   UNL     1     -63.544 -51.393  18.522  0.00  0.00    +0.000 A 
ATOM      2  C   UNL     1     -62.931 -51.722  17.217  0.00  0.00    +0.000 A 
ATOM      3  C   UNL     1     -63.620 -49.995  18.825  0.00  0.00    +0.000 A 
ATOM      4  C   UNL     1     -62.531 -50.593  16.430  0.00  0.00    +0.000 A 
ATOM      5  C   UNL     1     -63.206 -48.739  18.041  0.00  0.00    +0.000 A 
ATOM      6  C   UNL     1     -62.591 -49.079  16.682  0.00  0.00    +0.000 A 
ENDROOT
BRANCH   1   7
ATOM      7  N   UNL     1     -64.091 -52.377  19.380  0.00  0.00    +0.000 N 
ATOM      8  H   UNL     1     -63.949 -53.326  19.049  0.00  0.00    +0.000 HD
ATOM      9  H   UNL     1     -65.051 -52.205  19.661  0.00  0.00    +0.000 HD
ENDBRANCH   1   7
BRANCH   2  10
ATOM     10  N   UNL     1     -62.680 -53.052  16.803  0.00  0.00    +0.000 N 
ATOM     11  H   UNL     1     -62.963 -53.749  17.485  0.00  0.00    +0.000 HD
ATOM     12  H   UNL     1     -61.743 -53.214  16.451  0.00  0.00    +0.000 HD
ENDBRANCH   2  10
TORSDOF 2
ENDMDL
