MODEL 1
REMARK VINA RESULT:      -7.1      0.000      0.000
REMARK  Name = 44234954_SipholenolL.pdbqt.pdb
REMARK  5 active torsions:
REMARK  status: ('A' for Active; 'I' for Inactive)
REMARK    1  A    between atoms: C_3  and  C_20
REMARK    2  A    between atoms: C_4  and  O_16
REMARK    3  A    between atoms: C_13  and  O_18
REMARK    4  A    between atoms: C_21  and  C_25
REMARK    5  A    between atoms: C_26  and  O_36
REMARK                            x       y       z     vdW  Elec       q    Type
REMARK                         _______ _______ _______ _____ _____    ______ ____
ROOT
ATOM      1  O   UNL     1     -41.770 -52.104  32.749  0.00  0.00    +0.000 OA
ATOM      2  C   UNL     1     -41.312 -54.086  34.377  0.00  0.00    +0.000 C 
ATOM      3  C   UNL     1     -40.347 -55.240  34.659  0.00  0.00    +0.000 C 
ATOM      4  C   UNL     1     -38.851 -54.988  34.632  0.00  0.00    +0.000 C 
ATOM      5  C   UNL     1     -40.881 -53.068  33.232  0.00  0.00    +0.000 C 
ATOM      6  C   UNL     1     -42.590 -54.583  33.843  0.00  0.00    +0.000 C 
ATOM      7  C   UNL     1     -38.592 -53.840  33.783  0.00  0.00    +0.000 C 
ATOM      8  C   UNL     1     -39.492 -52.884  33.072  0.00  0.00    +0.000 C 
ATOM      9  C   UNL     1     -41.560 -53.280  35.679  0.00  0.00    +0.000 C 
ATOM     10  C   UNL     1     -43.608 -54.284  32.772  0.00  0.00    +0.000 C 
ATOM     11  C   UNL     1     -42.512 -52.356  31.502  0.00  0.00    +0.000 C 
ATOM     12  C   UNL     1     -38.264 -54.874  36.036  0.00  0.00    +0.000 C 
ATOM     13  C   UNL     1     -43.707 -53.343  31.722  0.00  0.00    +0.000 C 
ATOM     14  C   UNL     1     -43.074 -50.976  31.064  0.00  0.00    +0.000 C 
ATOM     15  C   UNL     1     -41.575 -52.941  30.400  0.00  0.00    +0.000 C 
ENDROOT
BRANCH   4  16
ATOM     16  O   UNL     1     -38.211 -56.110  34.060  0.00  0.00    +0.000 OA
ATOM     17  H   UNL     1     -38.984 -56.638  33.783  0.00  0.00    +0.000 HD
ENDBRANCH   4  16
BRANCH  13  18
ATOM     18  O   UNL     1     -44.736 -53.470  30.797  0.00  0.00    +0.000 OA
ATOM     19  H   UNL     1     -45.544 -53.002  31.074  0.00  0.00    +0.000 HD
ENDBRANCH  13  18
BRANCH   3  20
ATOM     20  C   UNL     1     -40.841 -56.544  35.009  0.00  0.00    +0.000 C 
ATOM     21  C   UNL     1     -41.376 -57.921  35.414  0.00  0.00    +0.000 C 
BRANCH  21  25
ATOM     22  C   UNL     1     -43.427 -59.427  35.854  0.00  0.00    +0.000 A 
ATOM     23  C   UNL     1     -43.978 -60.840  36.288  0.00  0.00    +0.000 A 
ATOM     24  C   UNL     1     -44.398 -58.237  35.462  0.00  0.00    +0.000 C 
ATOM     25  C   UNL     1     -41.902 -59.184  35.829  0.00  0.00    +0.000 A 
ATOM     26  C   UNL     1     -45.450 -61.308  36.360  0.00  0.00    +0.000 C 
ATOM     27  C   UNL     1     -45.749 -58.784  35.621  0.00  0.00    +0.000 C 
ATOM     28  C   UNL     1     -46.248 -60.145  36.024  0.00  0.00    +0.000 C 
ATOM     29  C   UNL     1     -42.907 -61.698  36.674  0.00  0.00    +0.000 A 
ATOM     30  C   UNL     1     -40.912 -60.218  36.241  0.00  0.00    +0.000 A 
ATOM     31  C   UNL     1     -44.174 -57.848  33.981  0.00  0.00    +0.000 C 
ATOM     32  C   UNL     1     -44.210 -57.058  36.440  0.00  0.00    +0.000 C 
ATOM     33  C   UNL     1     -41.453 -61.331  36.620  0.00  0.00    +0.000 A 
ATOM     34  C   UNL     1     -45.699 -62.499  35.445  0.00  0.00    +0.000 C 
ATOM     35  C   UNL     1     -39.420 -60.114  36.120  0.00  0.00    +0.000 C 
BRANCH  26  36
ATOM     36  O   UNL     1     -45.748 -61.723  37.669  0.00  0.00    +0.000 OA
ATOM     37  H   UNL     1     -45.636 -62.688  37.587  0.00  0.00    +0.000 HD
ENDBRANCH  26  36
ENDBRANCH  21  25
ENDBRANCH   3  20
TORSDOF 5
ENDMDL
MODEL 2
REMARK VINA RESULT:      -6.9      5.046      9.758
REMARK  Name = 44234954_SipholenolL.pdbqt.pdb
REMARK  5 active torsions:
REMARK  status: ('A' for Active; 'I' for Inactive)
REMARK    1  A    between atoms: C_3  and  C_20
REMARK    2  A    between atoms: C_4  and  O_16
REMARK    3  A    between atoms: C_13  and  O_18
REMARK    4  A    between atoms: C_21  and  C_25
REMARK    5  A    between atoms: C_26  and  O_36
REMARK                            x       y       z     vdW  Elec       q    Type
REMARK                         _______ _______ _______ _____ _____    ______ ____
ROOT
ATOM      1  O   UNL     1     -39.788 -46.586  26.948  0.00  0.00    +0.000 OA
ATOM      2  C   UNL     1     -41.882 -47.925  27.730  0.00  0.00    +0.000 C 
ATOM      3  C   UNL     1     -43.259 -47.772  28.379  0.00  0.00    +0.000 C 
ATOM      4  C   UNL     1     -44.203 -46.690  27.887  0.00  0.00    +0.000 C 
ATOM      5  C   UNL     1     -41.126 -46.576  27.352  0.00  0.00    +0.000 C 
ATOM      6  C   UNL     1     -40.921 -48.530  28.664  0.00  0.00    +0.000 C 
ATOM      7  C   UNL     1     -43.415 -45.630  27.285  0.00  0.00    +0.000 C 
ATOM      8  C   UNL     1     -41.956 -45.490  27.004  0.00  0.00    +0.000 C 
ATOM      9  C   UNL     1     -41.998 -48.795  26.451  0.00  0.00    +0.000 C 
ATOM     10  C   UNL     1     -39.498 -48.385  29.141  0.00  0.00    +0.000 C 
ATOM     11  C   UNL     1     -38.730 -46.273  27.923  0.00  0.00    +0.000 C 
ATOM     12  C   UNL     1     -45.295 -47.250  26.981  0.00  0.00    +0.000 C 
ATOM     13  C   UNL     1     -38.446 -47.476  28.884  0.00  0.00    +0.000 C 
ATOM     14  C   UNL     1     -37.456 -45.989  27.081  0.00  0.00    +0.000 C 
ATOM     15  C   UNL     1     -39.109 -45.026  28.782  0.00  0.00    +0.000 C 
ENDROOT
BRANCH   4  16
ATOM     16  O   UNL     1     -44.892 -46.149  28.996  0.00  0.00    +0.000 OA
ATOM     17  H   UNL     1     -44.930 -45.207  28.744  0.00  0.00    +0.000 HD
ENDBRANCH   4  16
BRANCH  13  18
ATOM     18  O   UNL     1     -37.289 -47.549  29.650  0.00  0.00    +0.000 OA
ATOM     19  H   UNL     1     -37.473 -47.764  30.581  0.00  0.00    +0.000 HD
ENDBRANCH  13  18
BRANCH   3  20
ATOM     20  C   UNL     1     -43.694 -48.679  29.406  0.00  0.00    +0.000 C 
ATOM     21  C   UNL     1     -44.172 -49.667  30.475  0.00  0.00    +0.000 C 
BRANCH  21  25
ATOM     22  C   UNL     1     -43.668 -51.731  31.942  0.00  0.00    +0.000 A 
ATOM     23  C   UNL     1     -44.181 -52.757  33.026  0.00  0.00    +0.000 A 
ATOM     24  C   UNL     1     -42.206 -51.817  31.338  0.00  0.00    +0.000 C 
ATOM     25  C   UNL     1     -44.620 -50.625  31.437  0.00  0.00    +0.000 A 
ATOM     26  C   UNL     1     -43.400 -53.917  33.686  0.00  0.00    +0.000 C 
ATOM     27  C   UNL     1     -41.592 -52.976  31.996  0.00  0.00    +0.000 C 
ATOM     28  C   UNL     1     -42.101 -53.932  33.040  0.00  0.00    +0.000 C 
ATOM     29  C   UNL     1     -45.552 -52.516  33.334  0.00  0.00    +0.000 A 
ATOM     30  C   UNL     1     -46.031 -50.501  31.897  0.00  0.00    +0.000 A 
ATOM     31  C   UNL     1     -41.413 -50.540  31.707  0.00  0.00    +0.000 C 
ATOM     32  C   UNL     1     -42.277 -52.077  29.818  0.00  0.00    +0.000 C 
ATOM     33  C   UNL     1     -46.379 -51.407  32.753  0.00  0.00    +0.000 A 
ATOM     34  C   UNL     1     -43.324 -53.746  35.196  0.00  0.00    +0.000 C 
ATOM     35  C   UNL     1     -46.977 -49.384  31.563  0.00  0.00    +0.000 C 
BRANCH  26  36
ATOM     36  O   UNL     1     -44.063 -55.130  33.440  0.00  0.00    +0.000 OA
ATOM     37  H   UNL     1     -44.406 -55.337  34.329  0.00  0.00    +0.000 HD
ENDBRANCH  26  36
ENDBRANCH  21  25
ENDBRANCH   3  20
TORSDOF 5
ENDMDL
MODEL 3
REMARK VINA RESULT:      -6.8     21.371     24.781
REMARK  Name = 44234954_SipholenolL.pdbqt.pdb
REMARK  5 active torsions:
REMARK  status: ('A' for Active; 'I' for Inactive)
REMARK    1  A    between atoms: C_3  and  C_20
REMARK    2  A    between atoms: C_4  and  O_16
REMARK    3  A    between atoms: C_13  and  O_18
REMARK    4  A    between atoms: C_21  and  C_25
REMARK    5  A    between atoms: C_26  and  O_36
REMARK                            x       y       z     vdW  Elec       q    Type
REMARK                         _______ _______ _______ _____ _____    ______ ____
ROOT
ATOM      1  O   UNL     1     -40.759 -39.669  49.225  0.00  0.00    +0.000 OA
ATOM      2  C   UNL     1     -42.880 -38.748  50.427  0.00  0.00    +0.000 C 
ATOM      3  C   UNL     1     -44.108 -39.171  51.236  0.00  0.00    +0.000 C 
ATOM      4  C   UNL     1     -43.946 -40.148  52.387  0.00  0.00    +0.000 C 
ATOM      5  C   UNL     1     -41.809 -39.886  50.122  0.00  0.00    +0.000 C 
ATOM      6  C   UNL     1     -43.257 -38.347  49.063  0.00  0.00    +0.000 C 
ATOM      7  C   UNL     1     -42.757 -40.945  52.151  0.00  0.00    +0.000 C 
ATOM      8  C   UNL     1     -41.698 -40.896  51.099  0.00  0.00    +0.000 C 
ATOM      9  C   UNL     1     -42.158 -37.577  51.143  0.00  0.00    +0.000 C 
ATOM     10  C   UNL     1     -42.819 -38.510  47.629  0.00  0.00    +0.000 C 
ATOM     11  C   UNL     1     -40.873 -40.154  47.839  0.00  0.00    +0.000 C 
ATOM     12  C   UNL     1     -43.971 -39.446  53.741  0.00  0.00    +0.000 C 
ATOM     13  C   UNL     1     -41.799 -39.236  46.973  0.00  0.00    +0.000 C 
ATOM     14  C   UNL     1     -39.433 -40.105  47.260  0.00  0.00    +0.000 C 
ATOM     15  C   UNL     1     -41.432 -41.610  47.798  0.00  0.00    +0.000 C 
ENDROOT
BRANCH   4  16
ATOM     16  O   UNL     1     -45.060 -41.016  52.406  0.00  0.00    +0.000 OA
ATOM     17  H   UNL     1     -45.270 -41.022  53.358  0.00  0.00    +0.000 HD
ENDBRANCH   4  16
BRANCH  13  18
ATOM     18  O   UNL     1     -41.794 -39.287  45.584  0.00  0.00    +0.000 OA
ATOM     19  H   UNL     1     -42.691 -39.366  45.212  0.00  0.00    +0.000 HD
ENDBRANCH  13  18
BRANCH   3  20
ATOM     20  C   UNL     1     -45.401 -38.609  50.960  0.00  0.00    +0.000 C 
ATOM     21  C   UNL     1     -46.765 -37.984  50.645  0.00  0.00    +0.000 C 
BRANCH  21  25
ATOM     22  C   UNL     1     -48.219 -36.710  48.934  0.00  0.00    +0.000 A 
ATOM     23  C   UNL     1     -49.619 -36.075  48.581  0.00  0.00    +0.000 A 
ATOM     24  C   UNL     1     -47.002 -36.661  47.920  0.00  0.00    +0.000 C 
ATOM     25  C   UNL     1     -48.016 -37.379  50.311  0.00  0.00    +0.000 A 
ATOM     26  C   UNL     1     -50.050 -35.385  47.266  0.00  0.00    +0.000 C 
ATOM     27  C   UNL     1     -47.514 -35.942  46.749  0.00  0.00    +0.000 C 
ATOM     28  C   UNL     1     -48.864 -35.358  46.432  0.00  0.00    +0.000 C 
ATOM     29  C   UNL     1     -50.508 -36.175  49.691  0.00  0.00    +0.000 A 
ATOM     30  C   UNL     1     -49.078 -37.419  51.354  0.00  0.00    +0.000 A 
ATOM     31  C   UNL     1     -46.609 -38.100  47.506  0.00  0.00    +0.000 C 
ATOM     32  C   UNL     1     -45.834 -35.860  48.535  0.00  0.00    +0.000 C 
ATOM     33  C   UNL     1     -50.179 -36.840  50.996  0.00  0.00    +0.000 A 
ATOM     34  C   UNL     1     -51.228 -36.102  46.622  0.00  0.00    +0.000 C 
ATOM     35  C   UNL     1     -49.012 -38.160  52.658  0.00  0.00    +0.000 C 
BRANCH  26  36
ATOM     36  O   UNL     1     -50.465 -34.071  47.539  0.00  0.00    +0.000 OA
ATOM     37  H   UNL     1     -51.216 -34.235  48.139  0.00  0.00    +0.000 HD
ENDBRANCH  26  36
ENDBRANCH  21  25
ENDBRANCH   3  20
TORSDOF 5
ENDMDL
MODEL 4
REMARK VINA RESULT:      -6.6     22.430     25.567
REMARK  Name = 44234954_SipholenolL.pdbqt.pdb
REMARK  5 active torsions:
REMARK  status: ('A' for Active; 'I' for Inactive)
REMARK    1  A    between atoms: C_3  and  C_20
REMARK    2  A    between atoms: C_4  and  O_16
REMARK    3  A    between atoms: C_13  and  O_18
REMARK    4  A    between atoms: C_21  and  C_25
REMARK    5  A    between atoms: C_26  and  O_36
REMARK                            x       y       z     vdW  Elec       q    Type
REMARK                         _______ _______ _______ _____ _____    ______ ____
ROOT
ATOM      1  O   UNL     1     -41.075 -39.431  49.273  0.00  0.00    +0.000 OA
ATOM      2  C   UNL     1     -43.166 -38.570  50.569  0.00  0.00    +0.000 C 
ATOM      3  C   UNL     1     -44.367 -39.032  51.398  0.00  0.00    +0.000 C 
ATOM      4  C   UNL     1     -44.165 -40.047  52.507  0.00  0.00    +0.000 C 
ATOM      5  C   UNL     1     -42.097 -39.688  50.193  0.00  0.00    +0.000 C 
ATOM      6  C   UNL     1     -43.586 -38.124  49.232  0.00  0.00    +0.000 C 
ATOM      7  C   UNL     1     -42.978 -40.826  52.209  0.00  0.00    +0.000 C 
ATOM      8  C   UNL     1     -41.951 -40.732  51.129  0.00  0.00    +0.000 C 
ATOM      9  C   UNL     1     -42.431 -37.420  51.305  0.00  0.00    +0.000 C 
ATOM     10  C   UNL     1     -43.190 -38.233  47.781  0.00  0.00    +0.000 C 
ATOM     11  C   UNL     1     -41.227 -39.868  47.875  0.00  0.00    +0.000 C 
ATOM     12  C   UNL     1     -44.155 -39.394  53.887  0.00  0.00    +0.000 C 
ATOM     13  C   UNL     1     -42.184 -38.927  47.069  0.00  0.00    +0.000 C 
ATOM     14  C   UNL     1     -39.805 -39.787  47.256  0.00  0.00    +0.000 C 
ATOM     15  C   UNL     1     -41.777 -41.326  47.798  0.00  0.00    +0.000 C 
ENDROOT
BRANCH   4  16
ATOM     16  O   UNL     1     -45.272 -40.924  52.528  0.00  0.00    +0.000 OA
ATOM     17  H   UNL     1     -44.878 -41.705  52.959  0.00  0.00    +0.000 HD
ENDBRANCH   4  16
BRANCH  13  18
ATOM     18  O   UNL     1     -42.220 -38.928  45.680  0.00  0.00    +0.000 OA
ATOM     19  H   UNL     1     -41.455 -39.386  45.289  0.00  0.00    +0.000 HD
ENDBRANCH  13  18
BRANCH   3  20
ATOM     20  C   UNL     1     -45.672 -38.470  51.179  0.00  0.00    +0.000 C 
ATOM     21  C   UNL     1     -47.064 -37.886  50.914  0.00  0.00    +0.000 C 
BRANCH  21  25
ATOM     22  C   UNL     1     -49.345 -37.044  51.780  0.00  0.00    +0.000 A 
ATOM     23  C   UNL     1     -50.769 -36.455  51.439  0.00  0.00    +0.000 A 
ATOM     24  C   UNL     1     -48.895 -37.326  53.273  0.00  0.00    +0.000 C 
ATOM     25  C   UNL     1     -48.369 -37.377  50.631  0.00  0.00    +0.000 A 
ATOM     26  C   UNL     1     -51.886 -36.030  52.421  0.00  0.00    +0.000 C 
ATOM     27  C   UNL     1     -50.046 -36.938  54.095  0.00  0.00    +0.000 C 
ATOM     28  C   UNL     1     -51.392 -36.363  53.743  0.00  0.00    +0.000 C 
ATOM     29  C   UNL     1     -50.956 -36.382  50.028  0.00  0.00    +0.000 A 
ATOM     30  C   UNL     1     -48.723 -37.207  49.194  0.00  0.00    +0.000 A 
ATOM     31  C   UNL     1     -47.686 -36.429  53.631  0.00  0.00    +0.000 C 
ATOM     32  C   UNL     1     -48.620 -38.832  53.466  0.00  0.00    +0.000 C 
ATOM     33  C   UNL     1     -49.923 -36.758  49.006  0.00  0.00    +0.000 A 
ATOM     34  C   UNL     1     -52.237 -34.558  52.258  0.00  0.00    +0.000 C 
ATOM     35  C   UNL     1     -47.796 -37.376  48.027  0.00  0.00    +0.000 C 
BRANCH  26  36
ATOM     36  O   UNL     1     -53.052 -36.766  52.153  0.00  0.00    +0.000 OA
ATOM     37  H   UNL     1     -53.094 -36.699  51.182  0.00  0.00    +0.000 HD
ENDBRANCH  26  36
ENDBRANCH  21  25
ENDBRANCH   3  20
TORSDOF 5
ENDMDL
MODEL 5
REMARK VINA RESULT:      -6.5     23.253     26.422
REMARK  Name = 44234954_SipholenolL.pdbqt.pdb
REMARK  5 active torsions:
REMARK  status: ('A' for Active; 'I' for Inactive)
REMARK    1  A    between atoms: C_3  and  C_20
REMARK    2  A    between atoms: C_4  and  O_16
REMARK    3  A    between atoms: C_13  and  O_18
REMARK    4  A    between atoms: C_21  and  C_25
REMARK    5  A    between atoms: C_26  and  O_36
REMARK                            x       y       z     vdW  Elec       q    Type
REMARK                         _______ _______ _______ _____ _____    ______ ____
ROOT
ATOM      1  O   UNL     1     -52.320 -35.566  51.735  0.00  0.00    +0.000 OA
ATOM      2  C   UNL     1     -50.238 -37.132  51.692  0.00  0.00    +0.000 C 
ATOM      3  C   UNL     1     -48.837 -37.322  52.280  0.00  0.00    +0.000 C 
ATOM      4  C   UNL     1     -48.628 -37.175  53.776  0.00  0.00    +0.000 C 
ATOM      5  C   UNL     1     -51.116 -35.965  52.324  0.00  0.00    +0.000 C 
ATOM      6  C   UNL     1     -50.167 -36.700  50.288  0.00  0.00    +0.000 C 
ATOM      7  C   UNL     1     -49.672 -36.318  54.306  0.00  0.00    +0.000 C 
ATOM      8  C   UNL     1     -50.878 -35.693  53.687  0.00  0.00    +0.000 C 
ATOM      9  C   UNL     1     -51.036 -38.458  51.799  0.00  0.00    +0.000 C 
ATOM     10  C   UNL     1     -50.795 -35.719  49.330  0.00  0.00    +0.000 C 
ATOM     11  C   UNL     1     -52.346 -34.382  50.860  0.00  0.00    +0.000 C 
ATOM     12  C   UNL     1     -48.512 -38.526  54.474  0.00  0.00    +0.000 C 
ATOM     13  C   UNL     1     -51.758 -34.689  49.442  0.00  0.00    +0.000 C 
ATOM     14  C   UNL     1     -53.845 -34.005  50.712  0.00  0.00    +0.000 C 
ATOM     15  C   UNL     1     -51.543 -33.201  51.490  0.00  0.00    +0.000 C 
ENDROOT
BRANCH   4  16
ATOM     16  O   UNL     1     -47.385 -36.541  54.000  0.00  0.00    +0.000 OA
ATOM     17  H   UNL     1     -47.675 -35.726  54.452  0.00  0.00    +0.000 HD
ENDBRANCH   4  16
BRANCH  13  18
ATOM     18  O   UNL     1     -51.979 -33.851  48.356  0.00  0.00    +0.000 OA
ATOM     19  H   UNL     1     -51.650 -34.230  47.521  0.00  0.00    +0.000 HD
ENDBRANCH  13  18
BRANCH   3  20
ATOM     20  C   UNL     1     -47.732 -37.699  51.442  0.00  0.00    +0.000 C 
ATOM     21  C   UNL     1     -46.572 -38.091  50.521  0.00  0.00    +0.000 C 
BRANCH  21  25
ATOM     22  C   UNL     1     -44.208 -39.063  50.159  0.00  0.00    +0.000 A 
ATOM     23  C   UNL     1     -43.063 -39.451  49.144  0.00  0.00    +0.000 A 
ATOM     24  C   UNL     1     -44.049 -39.288  51.720  0.00  0.00    +0.000 C 
ATOM     25  C   UNL     1     -45.510 -38.427  49.625  0.00  0.00    +0.000 A 
ATOM     26  C   UNL     1     -41.701 -40.115  49.451  0.00  0.00    +0.000 C 
ATOM     27  C   UNL     1     -42.711 -39.865  51.885  0.00  0.00    +0.000 C 
ATOM     28  C   UNL     1     -41.642 -40.239  50.894  0.00  0.00    +0.000 C 
ATOM     29  C   UNL     1     -43.419 -39.066  47.818  0.00  0.00    +0.000 A 
ATOM     30  C   UNL     1     -45.727 -38.119  48.185  0.00  0.00    +0.000 A 
ATOM     31  C   UNL     1     -45.109 -40.303  52.211  0.00  0.00    +0.000 C 
ATOM     32  C   UNL     1     -44.111 -37.933  52.457  0.00  0.00    +0.000 C 
ATOM     33  C   UNL     1     -44.723 -38.432  47.430  0.00  0.00    +0.000 A 
ATOM     34  C   UNL     1     -41.555 -41.443  48.722  0.00  0.00    +0.000 C 
ATOM     35  C   UNL     1     -47.004 -37.630  47.566  0.00  0.00    +0.000 C 
BRANCH  26  36
ATOM     36  O   UNL     1     -40.661 -39.282  49.005  0.00  0.00    +0.000 OA
ATOM     37  H   UNL     1     -41.035 -38.951  48.168  0.00  0.00    +0.000 HD
ENDBRANCH  26  36
ENDBRANCH  21  25
ENDBRANCH   3  20
TORSDOF 5
ENDMDL
MODEL 6
REMARK VINA RESULT:      -6.2     33.665     36.324
REMARK  Name = 44234954_SipholenolL.pdbqt.pdb
REMARK  5 active torsions:
REMARK  status: ('A' for Active; 'I' for Inactive)
REMARK    1  A    between atoms: C_3  and  C_20
REMARK    2  A    between atoms: C_4  and  O_16
REMARK    3  A    between atoms: C_13  and  O_18
REMARK    4  A    between atoms: C_21  and  C_25
REMARK    5  A    between atoms: C_26  and  O_36
REMARK                            x       y       z     vdW  Elec       q    Type
REMARK                         _______ _______ _______ _____ _____    ______ ____
ROOT
ATOM      1  O   UNL     1     -75.881 -66.856  20.008  0.00  0.00    +0.000 OA
ATOM      2  C   UNL     1     -76.357 -64.657  21.323  0.00  0.00    +0.000 C 
ATOM      3  C   UNL     1     -75.764 -63.292  21.679  0.00  0.00    +0.000 C 
ATOM      4  C   UNL     1     -75.139 -62.441  20.589  0.00  0.00    +0.000 C 
ATOM      5  C   UNL     1     -75.551 -65.520  20.255  0.00  0.00    +0.000 C 
ATOM      6  C   UNL     1     -76.338 -65.561  22.484  0.00  0.00    +0.000 C 
ATOM      7  C   UNL     1     -74.700 -63.314  19.516  0.00  0.00    +0.000 C 
ATOM      8  C   UNL     1     -74.844 -64.782  19.285  0.00  0.00    +0.000 C 
ATOM      9  C   UNL     1     -77.811 -64.481  20.813  0.00  0.00    +0.000 C 
ATOM     10  C   UNL     1     -76.021 -66.988  22.854  0.00  0.00    +0.000 C 
ATOM     11  C   UNL     1     -75.110 -67.929  20.659  0.00  0.00    +0.000 C 
ATOM     12  C   UNL     1     -76.064 -61.314  20.141  0.00  0.00    +0.000 C 
ATOM     13  C   UNL     1     -75.512 -68.110  22.161  0.00  0.00    +0.000 C 
ATOM     14  C   UNL     1     -75.464 -69.227  19.883  0.00  0.00    +0.000 C 
ATOM     15  C   UNL     1     -73.577 -67.644  20.582  0.00  0.00    +0.000 C 
ENDROOT
BRANCH   4  16
ATOM     16  O   UNL     1     -74.001 -61.789  21.117  0.00  0.00    +0.000 OA
ATOM     17  H   UNL     1     -74.339 -60.879  21.207  0.00  0.00    +0.000 HD
ENDBRANCH   4  16
BRANCH  13  18
ATOM     18  O   UNL     1     -75.180 -69.253  22.879  0.00  0.00    +0.000 OA
ATOM     19  H   UNL     1     -75.841 -69.469  23.560  0.00  0.00    +0.000 HD
ENDBRANCH  13  18
BRANCH   3  20
ATOM     20  C   UNL     1     -75.847 -62.780  23.020  0.00  0.00    +0.000 C 
ATOM     21  C   UNL     1     -75.920 -62.203  24.437  0.00  0.00    +0.000 C 
BRANCH  21  25
ATOM     22  C   UNL     1     -75.675 -60.119  25.941  0.00  0.00    +0.000 A 
ATOM     23  C   UNL     1     -75.780 -59.494  27.386  0.00  0.00    +0.000 A 
ATOM     24  C   UNL     1     -75.238 -59.252  24.688  0.00  0.00    +0.000 C 
ATOM     25  C   UNL     1     -75.983 -61.619  25.740  0.00  0.00    +0.000 A 
ATOM     26  C   UNL     1     -75.544 -58.026  27.810  0.00  0.00    +0.000 C 
ATOM     27  C   UNL     1     -74.993 -57.910  25.224  0.00  0.00    +0.000 C 
ATOM     28  C   UNL     1     -75.116 -57.336  26.610  0.00  0.00    +0.000 C 
ATOM     29  C   UNL     1     -76.103 -60.500  28.344  0.00  0.00    +0.000 A 
ATOM     30  C   UNL     1     -76.339 -62.529  26.865  0.00  0.00    +0.000 A 
ATOM     31  C   UNL     1     -76.398 -59.192  23.666  0.00  0.00    +0.000 C 
ATOM     32  C   UNL     1     -73.926 -59.808  24.094  0.00  0.00    +0.000 C 
ATOM     33  C   UNL     1     -76.363 -61.942  28.018  0.00  0.00    +0.000 A 
ATOM     34  C   UNL     1     -76.791 -57.424  28.443  0.00  0.00    +0.000 C 
ATOM     35  C   UNL     1     -76.782 -63.957  26.742  0.00  0.00    +0.000 C 
BRANCH  26  36
ATOM     36  O   UNL     1     -74.525 -57.974  28.775  0.00  0.00    +0.000 OA
ATOM     37  H   UNL     1     -74.508 -58.900  29.078  0.00  0.00    +0.000 HD
ENDBRANCH  26  36
ENDBRANCH  21  25
ENDBRANCH   3  20
TORSDOF 5
ENDMDL
MODEL 7
REMARK VINA RESULT:      -6.2      6.886      9.797
REMARK  Name = 44234954_SipholenolL.pdbqt.pdb
REMARK  5 active torsions:
REMARK  status: ('A' for Active; 'I' for Inactive)
REMARK    1  A    between atoms: C_3  and  C_20
REMARK    2  A    between atoms: C_4  and  O_16
REMARK    3  A    between atoms: C_13  and  O_18
REMARK    4  A    between atoms: C_21  and  C_25
REMARK    5  A    between atoms: C_26  and  O_36
REMARK                            x       y       z     vdW  Elec       q    Type
REMARK                         _______ _______ _______ _____ _____    ______ ____
ROOT
ATOM      1  O   UNL     1     -45.301 -61.879  28.689  0.00  0.00    +0.000 OA
ATOM      2  C   UNL     1     -45.124 -64.074  30.082  0.00  0.00    +0.000 C 
ATOM      3  C   UNL     1     -45.924 -65.289  30.558  0.00  0.00    +0.000 C 
ATOM      4  C   UNL     1     -46.789 -66.050  29.569  0.00  0.00    +0.000 C 
ATOM      5  C   UNL     1     -45.848 -63.119  29.034  0.00  0.00    +0.000 C 
ATOM      6  C   UNL     1     -44.875 -63.138  31.188  0.00  0.00    +0.000 C 
ATOM      7  C   UNL     1     -47.152 -65.153  28.488  0.00  0.00    +0.000 C 
ATOM      8  C   UNL     1     -46.762 -63.749  28.165  0.00  0.00    +0.000 C 
ATOM      9  C   UNL     1     -43.778 -64.541  29.468  0.00  0.00    +0.000 C 
ATOM     10  C   UNL     1     -44.891 -61.663  31.503  0.00  0.00    +0.000 C 
ATOM     11  C   UNL     1     -45.802 -60.655  29.338  0.00  0.00    +0.000 C 
ATOM     12  C   UNL     1     -46.129 -67.347  29.112  0.00  0.00    +0.000 C 
ATOM     13  C   UNL     1     -45.243 -60.494  30.791  0.00  0.00    +0.000 C 
ATOM     14  C   UNL     1     -45.285 -59.479  28.466  0.00  0.00    +0.000 C 
ATOM     15  C   UNL     1     -47.361 -60.650  29.398  0.00  0.00    +0.000 C 
ENDROOT
BRANCH   4  16
ATOM     16  O   UNL     1     -47.975 -66.455  30.221  0.00  0.00    +0.000 OA
ATOM     17  H   UNL     1     -48.403 -65.591  30.372  0.00  0.00    +0.000 HD
ENDBRANCH   4  16
BRANCH  13  18
ATOM     18  O   UNL     1     -45.295 -59.282  31.469  0.00  0.00    +0.000 OA
ATOM     19  H   UNL     1     -45.422 -58.525  30.869  0.00  0.00    +0.000 HD
ENDBRANCH  13  18
BRANCH   3  20
ATOM     20  C   UNL     1     -45.820 -65.754  31.914  0.00  0.00    +0.000 C 
ATOM     21  C   UNL     1     -45.673 -66.258  33.353  0.00  0.00    +0.000 C 
BRANCH  21  25
ATOM     22  C   UNL     1     -45.193 -65.720  35.833  0.00  0.00    +0.000 A 
ATOM     23  C   UNL     1     -45.020 -66.255  37.307  0.00  0.00    +0.000 A 
ATOM     24  C   UNL     1     -45.050 -64.181  35.483  0.00  0.00    +0.000 C 
ATOM     25  C   UNL     1     -45.487 -66.720  34.693  0.00  0.00    +0.000 A 
ATOM     26  C   UNL     1     -44.750 -65.440  38.592  0.00  0.00    +0.000 C 
ATOM     27  C   UNL     1     -44.745 -63.529  36.760  0.00  0.00    +0.000 C 
ATOM     28  C   UNL     1     -44.599 -64.064  38.159  0.00  0.00    +0.000 C 
ATOM     29  C   UNL     1     -45.107 -67.678  37.336  0.00  0.00    +0.000 A 
ATOM     30  C   UNL     1     -45.575 -68.191  34.911  0.00  0.00    +0.000 A 
ATOM     31  C   UNL     1     -46.397 -63.642  34.943  0.00  0.00    +0.000 C 
ATOM     32  C   UNL     1     -43.871 -63.968  34.510  0.00  0.00    +0.000 C 
ATOM     33  C   UNL     1     -45.381 -68.544  36.142  0.00  0.00    +0.000 A 
ATOM     34  C   UNL     1     -45.859 -65.635  39.616  0.00  0.00    +0.000 C 
ATOM     35  C   UNL     1     -45.987 -69.214  33.894  0.00  0.00    +0.000 C 
BRANCH  26  36
ATOM     36  O   UNL     1     -43.557 -65.881  39.187  0.00  0.00    +0.000 OA
ATOM     37  H   UNL     1     -43.524 -66.804  38.875  0.00  0.00    +0.000 HD
ENDBRANCH  26  36
ENDBRANCH  21  25
ENDBRANCH   3  20
TORSDOF 5
ENDMDL
MODEL 8
REMARK VINA RESULT:      -6.2     33.769     35.854
REMARK  Name = 44234954_SipholenolL.pdbqt.pdb
REMARK  5 active torsions:
REMARK  status: ('A' for Active; 'I' for Inactive)
REMARK    1  A    between atoms: C_3  and  C_20
REMARK    2  A    between atoms: C_4  and  O_16
REMARK    3  A    between atoms: C_13  and  O_18
REMARK    4  A    between atoms: C_21  and  C_25
REMARK    5  A    between atoms: C_26  and  O_36
REMARK                            x       y       z     vdW  Elec       q    Type
REMARK                         _______ _______ _______ _____ _____    ______ ____
ROOT
ATOM      1  O   UNL     1     -79.808 -53.637  34.444  0.00  0.00    +0.000 OA
ATOM      2  C   UNL     1     -79.294 -56.136  34.979  0.00  0.00    +0.000 C 
ATOM      3  C   UNL     1     -78.216 -57.072  35.530  0.00  0.00    +0.000 C 
ATOM      4  C   UNL     1     -77.489 -56.704  36.811  0.00  0.00    +0.000 C 
ATOM      5  C   UNL     1     -78.999 -54.575  35.093  0.00  0.00    +0.000 C 
ATOM      6  C   UNL     1     -79.433 -56.288  33.522  0.00  0.00    +0.000 C 
ATOM      7  C   UNL     1     -77.538 -55.263  36.972  0.00  0.00    +0.000 C 
ATOM      8  C   UNL     1     -78.219 -54.182  36.200  0.00  0.00    +0.000 C 
ATOM      9  C   UNL     1     -80.649 -56.429  35.674  0.00  0.00    +0.000 C 
ATOM     10  C   UNL     1     -79.589 -55.467  32.267  0.00  0.00    +0.000 C 
ATOM     11  C   UNL     1     -79.381 -53.077  33.151  0.00  0.00    +0.000 C 
ATOM     12  C   UNL     1     -78.013 -57.487  38.011  0.00  0.00    +0.000 C 
ATOM     13  C   UNL     1     -79.608 -54.084  31.974  0.00  0.00    +0.000 C 
ATOM     14  C   UNL     1     -80.272 -51.826  32.923  0.00  0.00    +0.000 C 
ATOM     15  C   UNL     1     -77.872 -52.678  33.183  0.00  0.00    +0.000 C 
ENDROOT
BRANCH   4  16
ATOM     16  O   UNL     1     -76.134 -57.086  36.690  0.00  0.00    +0.000 OA
ATOM     17  H   UNL     1     -75.839 -56.488  35.978  0.00  0.00    +0.000 HD
ENDBRANCH   4  16
BRANCH  13  18
ATOM     18  O   UNL     1     -79.602 -53.676  30.645  0.00  0.00    +0.000 OA
ATOM     19  H   UNL     1     -80.498 -53.505  30.305  0.00  0.00    +0.000 HD
ENDBRANCH  13  18
BRANCH   3  20
ATOM     20  C   UNL     1     -77.927 -58.323  34.884  0.00  0.00    +0.000 C 
ATOM     21  C   UNL     1     -77.587 -59.644  34.187  0.00  0.00    +0.000 C 
BRANCH  21  25
ATOM     22  C   UNL     1     -76.959 -60.895  32.017  0.00  0.00    +0.000 A 
ATOM     23  C   UNL     1     -76.527 -62.250  31.333  0.00  0.00    +0.000 A 
ATOM     24  C   UNL     1     -77.154 -59.564  31.180  0.00  0.00    +0.000 C 
ATOM     25  C   UNL     1     -77.221 -60.865  33.539  0.00  0.00    +0.000 A 
ATOM     26  C   UNL     1     -76.193 -62.503  29.845  0.00  0.00    +0.000 C 
ATOM     27  C   UNL     1     -76.863 -59.943  29.794  0.00  0.00    +0.000 C 
ATOM     28  C   UNL     1     -76.438 -61.244  29.169  0.00  0.00    +0.000 C 
ATOM     29  C   UNL     1     -76.511 -63.309  32.288  0.00  0.00    +0.000 A 
ATOM     30  C   UNL     1     -77.126 -62.076  34.400  0.00  0.00    +0.000 A 
ATOM     31  C   UNL     1     -76.129 -58.501  31.645  0.00  0.00    +0.000 C 
ATOM     32  C   UNL     1     -78.619 -59.088  31.279  0.00  0.00    +0.000 C 
ATOM     33  C   UNL     1     -76.807 -63.150  33.750  0.00  0.00    +0.000 A 
ATOM     34  C   UNL     1     -74.769 -63.014  29.676  0.00  0.00    +0.000 C 
ATOM     35  C   UNL     1     -77.231 -62.111  35.896  0.00  0.00    +0.000 C 
BRANCH  26  36
ATOM     36  O   UNL     1     -77.049 -63.490  29.332  0.00  0.00    +0.000 OA
ATOM     37  H   UNL     1     -77.869 -63.299  29.824  0.00  0.00    +0.000 HD
ENDBRANCH  26  36
ENDBRANCH  21  25
ENDBRANCH   3  20
TORSDOF 5
ENDMDL
MODEL 9
REMARK VINA RESULT:      -6.0      1.669      2.130
REMARK  Name = 44234954_SipholenolL.pdbqt.pdb
REMARK  5 active torsions:
REMARK  status: ('A' for Active; 'I' for Inactive)
REMARK    1  A    between atoms: C_3  and  C_20
REMARK    2  A    between atoms: C_4  and  O_16
REMARK    3  A    between atoms: C_13  and  O_18
REMARK    4  A    between atoms: C_21  and  C_25
REMARK    5  A    between atoms: C_26  and  O_36
REMARK                            x       y       z     vdW  Elec       q    Type
REMARK                         _______ _______ _______ _____ _____    ______ ____
ROOT
ATOM      1  O   UNL     1     -41.705 -52.475  32.571  0.00  0.00    +0.000 OA
ATOM      2  C   UNL     1     -40.356 -54.444  33.618  0.00  0.00    +0.000 C 
ATOM      3  C   UNL     1     -39.563 -55.705  33.269  0.00  0.00    +0.000 C 
ATOM      4  C   UNL     1     -38.525 -55.654  32.163  0.00  0.00    +0.000 C 
ATOM      5  C   UNL     1     -40.807 -53.532  32.393  0.00  0.00    +0.000 C 
ATOM      6  C   UNL     1     -41.661 -54.786  34.206  0.00  0.00    +0.000 C 
ATOM      7  C   UNL     1     -38.874 -54.580  31.252  0.00  0.00    +0.000 C 
ATOM      8  C   UNL     1     -39.943 -53.539  31.279  0.00  0.00    +0.000 C 
ATOM      9  C   UNL     1     -39.542 -53.569  34.606  0.00  0.00    +0.000 C 
ATOM     10  C   UNL     1     -43.115 -54.392  34.143  0.00  0.00    +0.000 C 
ATOM     11  C   UNL     1     -43.130 -52.670  32.255  0.00  0.00    +0.000 C 
ATOM     12  C   UNL     1     -37.104 -55.571  32.714  0.00  0.00    +0.000 C 
ATOM     13  C   UNL     1     -43.871 -53.482  33.369  0.00  0.00    +0.000 C 
ATOM     14  C   UNL     1     -43.740 -51.243  32.183  0.00  0.00    +0.000 C 
ATOM     15  C   UNL     1     -43.307 -53.411  30.893  0.00  0.00    +0.000 C 
ENDROOT
BRANCH   4  16
ATOM     16  O   UNL     1     -38.566 -56.870  31.444  0.00  0.00    +0.000 OA
ATOM     17  H   UNL     1     -39.337 -57.301  31.859  0.00  0.00    +0.000 HD
ENDBRANCH   4  16
BRANCH  13  18
ATOM     18  O   UNL     1     -45.257 -53.503  33.466  0.00  0.00    +0.000 OA
ATOM     19  H   UNL     1     -45.565 -53.896  34.302  0.00  0.00    +0.000 HD
ENDBRANCH  13  18
BRANCH   3  20
ATOM     20  C   UNL     1     -39.744 -56.920  34.016  0.00  0.00    +0.000 C 
ATOM     21  C   UNL     1     -39.928 -58.197  34.842  0.00  0.00    +0.000 C 
BRANCH  21  25
ATOM     22  C   UNL     1     -41.506 -59.747  36.174  0.00  0.00    +0.000 A 
ATOM     23  C   UNL     1     -41.676 -61.052  37.044  0.00  0.00    +0.000 A 
ATOM     24  C   UNL     1     -42.735 -58.805  35.834  0.00  0.00    +0.000 C 
ATOM     25  C   UNL     1     -40.104 -59.360  35.654  0.00  0.00    +0.000 A 
ATOM     26  C   UNL     1     -42.977 -61.638  37.641  0.00  0.00    +0.000 C 
ATOM     27  C   UNL     1     -43.885 -59.432  36.494  0.00  0.00    +0.000 C 
ATOM     28  C   UNL     1     -44.022 -60.690  37.309  0.00  0.00    +0.000 C 
ATOM     29  C   UNL     1     -40.411 -61.667  37.277  0.00  0.00    +0.000 A 
ATOM     30  C   UNL     1     -38.880 -60.145  35.973  0.00  0.00    +0.000 A 
ATOM     31  C   UNL     1     -42.971 -58.786  34.305  0.00  0.00    +0.000 C 
ATOM     32  C   UNL     1     -42.508 -57.403  36.437  0.00  0.00    +0.000 C 
ATOM     33  C   UNL     1     -39.105 -61.175  36.725  0.00  0.00    +0.000 A 
ATOM     34  C   UNL     1     -43.244 -63.042  37.118  0.00  0.00    +0.000 C 
ATOM     35  C   UNL     1     -37.509 -59.919  35.404  0.00  0.00    +0.000 C 
BRANCH  26  36
ATOM     36  O   UNL     1     -42.852 -61.734  39.037  0.00  0.00    +0.000 OA
ATOM     37  H   UNL     1     -41.961 -62.121  39.117  0.00  0.00    +0.000 HD
ENDBRANCH  26  36
ENDBRANCH  21  25
ENDBRANCH   3  20
TORSDOF 5
ENDMDL
