MODEL 1
REMARK VINA RESULT:      -6.8      0.000      0.000
REMARK  Name = 442793_6gingerol.pdbqt.pdb
REMARK  7 active torsions:
REMARK  status: ('A' for Active; 'I' for Inactive)
REMARK    1  A    between atoms: C_1  and  C_3
REMARK    2  A    between atoms: C_5  and  O_6
REMARK    3  A    between atoms: C_5  and  C_8
REMARK    4  A    between atoms: C_9  and  C_10
REMARK    5  A    between atoms: C_13  and  C_14
REMARK    6  A    between atoms: C_17  and  O_20
REMARK    7  A    between atoms: C_19  and  O_22
REMARK                            x       y       z     vdW  Elec       q    Type
REMARK                         _______ _______ _______ _____ _____    ______ ____
ROOT
ATOM      1  C   UNL     1     -63.950 -66.206  35.845  0.00  0.00    +0.000 C 
ATOM      2  C   UNL     1     -63.729 -66.018  37.352  0.00  0.00    +0.000 C 
ENDROOT
BRANCH   2   3
ATOM      3  C   UNL     1     -63.524 -65.846  38.750  0.00  0.00    +0.000 A 
ATOM      4  C   UNL     1     -64.549 -66.148  39.644  0.00  0.00    +0.000 A 
ATOM      5  C   UNL     1     -62.300 -65.378  39.219  0.00  0.00    +0.000 A 
ATOM      6  C   UNL     1     -64.363 -65.984  41.020  0.00  0.00    +0.000 A 
ATOM      7  C   UNL     1     -62.100 -65.210  40.587  0.00  0.00    +0.000 A 
ATOM      8  C   UNL     1     -63.129 -65.512  41.478  0.00  0.00    +0.000 A 
BRANCH   6   9
ATOM      9  O   UNL     1     -65.318 -66.255  41.968  0.00  0.00    +0.000 OA
ATOM     10  C   UNL     1     -66.407 -67.024  41.529  0.00  0.00    +0.000 C 
ENDBRANCH   6   9
BRANCH   8  11
ATOM     11  O   UNL     1     -62.927 -65.345  42.820  0.00  0.00    +0.000 OA
ATOM     12  H   UNL     1     -62.061 -65.727  43.055  0.00  0.00    +0.000 HD
ENDBRANCH   8  11
ENDBRANCH   2   3
BRANCH   1  14
ATOM     13  O   UNL     1     -64.718 -65.521  33.774  0.00  0.00    +0.000 OA
ATOM     14  C   UNL     1     -64.155 -66.385  34.430  0.00  0.00    +0.000 C 
ATOM     15  C   UNL     1     -63.696 -67.590  33.796  0.00  0.00    +0.000 C 
ATOM     16  C   UNL     1     -63.248 -68.773  33.169  0.00  0.00    +0.000 C 
BRANCH  16  17
ATOM     17  O   UNL     1     -62.400 -69.585  33.882  0.00  0.00    +0.000 OA
ATOM     18  H   UNL     1     -61.528 -69.659  33.458  0.00  0.00    +0.000 HD
ENDBRANCH  16  17
BRANCH  16  19
ATOM     19  C   UNL     1     -63.627 -69.158  31.859  0.00  0.00    +0.000 C 
ATOM     20  C   UNL     1     -64.044 -69.579  30.446  0.00  0.00    +0.000 C 
BRANCH  20  21
ATOM     21  C   UNL     1     -64.467 -70.003  29.037  0.00  0.00    +0.000 C 
ATOM     22  C   UNL     1     -64.891 -70.427  27.627  0.00  0.00    +0.000 C 
ATOM     23  C   UNL     1     -65.319 -70.844  26.216  0.00  0.00    +0.000 C 
ENDBRANCH  20  21
ENDBRANCH  16  19
ENDBRANCH   1  14
TORSDOF 7
ENDMDL
MODEL 2
REMARK VINA RESULT:      -6.8     16.725     17.703
REMARK  Name = 442793_6gingerol.pdbqt.pdb
REMARK  7 active torsions:
REMARK  status: ('A' for Active; 'I' for Inactive)
REMARK    1  A    between atoms: C_1  and  C_3
REMARK    2  A    between atoms: C_5  and  O_6
REMARK    3  A    between atoms: C_5  and  C_8
REMARK    4  A    between atoms: C_9  and  C_10
REMARK    5  A    between atoms: C_13  and  C_14
REMARK    6  A    between atoms: C_17  and  O_20
REMARK    7  A    between atoms: C_19  and  O_22
REMARK                            x       y       z     vdW  Elec       q    Type
REMARK                         _______ _______ _______ _____ _____    ______ ____
ROOT
ATOM      1  C   UNL     1     -47.007 -62.291  40.517  0.00  0.00    +0.000 C 
ATOM      2  C   UNL     1     -47.383 -62.000  41.976  0.00  0.00    +0.000 C 
ENDROOT
BRANCH   2   3
ATOM      3  C   UNL     1     -47.729 -61.731  43.331  0.00  0.00    +0.000 A 
ATOM      4  C   UNL     1     -48.803 -60.891  43.618  0.00  0.00    +0.000 A 
ATOM      5  C   UNL     1     -46.993 -62.307  44.363  0.00  0.00    +0.000 A 
ATOM      6  C   UNL     1     -49.155 -60.616  44.943  0.00  0.00    +0.000 A 
ATOM      7  C   UNL     1     -47.333 -62.042  45.687  0.00  0.00    +0.000 A 
ATOM      8  C   UNL     1     -48.408 -61.200  45.970  0.00  0.00    +0.000 A 
BRANCH   6   9
ATOM      9  O   UNL     1     -50.196 -59.801  45.315  0.00  0.00    +0.000 OA
ATOM     10  C   UNL     1     -50.781 -59.055  44.280  0.00  0.00    +0.000 C 
ENDBRANCH   6   9
BRANCH   8  11
ATOM     11  O   UNL     1     -48.736 -60.945  47.273  0.00  0.00    +0.000 OA
ATOM     12  H   UNL     1     -49.650 -60.607  47.304  0.00  0.00    +0.000 HD
ENDBRANCH   8  11
ENDBRANCH   2   3
BRANCH   1  14
ATOM     13  O   UNL     1     -45.604 -63.136  38.885  0.00  0.00    +0.000 OA
ATOM     14  C   UNL     1     -46.651 -62.564  39.148  0.00  0.00    +0.000 C 
ATOM     15  C   UNL     1     -47.537 -62.157  38.093  0.00  0.00    +0.000 C 
ATOM     16  C   UNL     1     -48.403 -61.756  37.052  0.00  0.00    +0.000 C 
BRANCH  16  17
ATOM     17  O   UNL     1     -49.671 -61.361  37.402  0.00  0.00    +0.000 OA
ATOM     18  H   UNL     1     -49.735 -60.395  37.496  0.00  0.00    +0.000 HD
ENDBRANCH  16  17
BRANCH  16  19
ATOM     19  C   UNL     1     -48.032 -61.741  35.685  0.00  0.00    +0.000 C 
ATOM     20  C   UNL     1     -47.630 -61.734  34.206  0.00  0.00    +0.000 C 
BRANCH  20  21
ATOM     21  C   UNL     1     -47.226 -61.733  32.729  0.00  0.00    +0.000 C 
ATOM     22  C   UNL     1     -46.824 -61.734  31.250  0.00  0.00    +0.000 C 
ATOM     23  C   UNL     1     -46.429 -61.737  29.770  0.00  0.00    +0.000 C 
ENDBRANCH  20  21
ENDBRANCH  16  19
ENDBRANCH   1  14
TORSDOF 7
ENDMDL
MODEL 3
REMARK VINA RESULT:      -6.3      3.001     11.515
REMARK  Name = 442793_6gingerol.pdbqt.pdb
REMARK  7 active torsions:
REMARK  status: ('A' for Active; 'I' for Inactive)
REMARK    1  A    between atoms: C_1  and  C_3
REMARK    2  A    between atoms: C_5  and  O_6
REMARK    3  A    between atoms: C_5  and  C_8
REMARK    4  A    between atoms: C_9  and  C_10
REMARK    5  A    between atoms: C_13  and  C_14
REMARK    6  A    between atoms: C_17  and  O_20
REMARK    7  A    between atoms: C_19  and  O_22
REMARK                            x       y       z     vdW  Elec       q    Type
REMARK                         _______ _______ _______ _____ _____    ______ ____
ROOT
ATOM      1  C   UNL     1     -63.735 -69.375  32.039  0.00  0.00    +0.000 C 
ATOM      2  C   UNL     1     -64.244 -69.835  30.667  0.00  0.00    +0.000 C 
ENDROOT
BRANCH   2   3
ATOM      3  C   UNL     1     -64.717 -70.265  29.395  0.00  0.00    +0.000 A 
ATOM      4  C   UNL     1     -64.068 -69.844  28.235  0.00  0.00    +0.000 A 
ATOM      5  C   UNL     1     -65.826 -71.102  29.313  0.00  0.00    +0.000 A 
ATOM      6  C   UNL     1     -64.522 -70.256  26.979  0.00  0.00    +0.000 A 
ATOM      7  C   UNL     1     -66.288 -71.521  28.068  0.00  0.00    +0.000 A 
ATOM      8  C   UNL     1     -65.636 -71.097  26.910  0.00  0.00    +0.000 A 
BRANCH   6   9
ATOM      9  O   UNL     1     -63.944 -69.889  25.788  0.00  0.00    +0.000 OA
ATOM     10  C   UNL     1     -62.542 -69.949  25.751  0.00  0.00    +0.000 C 
ENDBRANCH   6   9
BRANCH   8  11
ATOM     11  O   UNL     1     -66.095 -71.512  25.691  0.00  0.00    +0.000 OA
ATOM     12  H   UNL     1     -66.725 -72.244  25.827  0.00  0.00    +0.000 HD
ENDBRANCH   8  11
ENDBRANCH   2   3
BRANCH   1  14
ATOM     13  O   UNL     1     -62.471 -69.636  33.958  0.00  0.00    +0.000 OA
ATOM     14  C   UNL     1     -63.258 -68.945  33.329  0.00  0.00    +0.000 C 
ATOM     15  C   UNL     1     -63.719 -67.697  33.873  0.00  0.00    +0.000 C 
ATOM     16  C   UNL     1     -64.170 -66.473  34.412  0.00  0.00    +0.000 C 
BRANCH  16  17
ATOM     17  O   UNL     1     -64.838 -65.619  33.569  0.00  0.00    +0.000 OA
ATOM     18  H   UNL     1     -65.768 -65.880  33.451  0.00  0.00    +0.000 HD
ENDBRANCH  16  17
BRANCH  16  19
ATOM     19  C   UNL     1     -63.973 -66.090  35.761  0.00  0.00    +0.000 C 
ATOM     20  C   UNL     1     -63.764 -65.684  37.224  0.00  0.00    +0.000 C 
BRANCH  20  21
ATOM     21  C   UNL     1     -63.558 -65.284  38.688  0.00  0.00    +0.000 C 
ATOM     22  C   UNL     1     -63.351 -64.883  40.153  0.00  0.00    +0.000 C 
ATOM     23  C   UNL     1     -63.136 -64.484  41.616  0.00  0.00    +0.000 C 
ENDBRANCH  20  21
ENDBRANCH  16  19
ENDBRANCH   1  14
TORSDOF 7
ENDMDL
MODEL 4
REMARK VINA RESULT:      -6.3     23.169     25.226
REMARK  Name = 442793_6gingerol.pdbqt.pdb
REMARK  7 active torsions:
REMARK  status: ('A' for Active; 'I' for Inactive)
REMARK    1  A    between atoms: C_1  and  C_3
REMARK    2  A    between atoms: C_5  and  O_6
REMARK    3  A    between atoms: C_5  and  C_8
REMARK    4  A    between atoms: C_9  and  C_10
REMARK    5  A    between atoms: C_13  and  C_14
REMARK    6  A    between atoms: C_17  and  O_20
REMARK    7  A    between atoms: C_19  and  O_22
REMARK                            x       y       z     vdW  Elec       q    Type
REMARK                         _______ _______ _______ _____ _____    ______ ____
ROOT
ATOM      1  C   UNL     1     -44.226 -53.475  33.463  0.00  0.00    +0.000 C 
ATOM      2  C   UNL     1     -44.851 -52.103  33.180  0.00  0.00    +0.000 C 
ENDROOT
BRANCH   2   3
ATOM      3  C   UNL     1     -45.433 -50.830  32.918  0.00  0.00    +0.000 A 
ATOM      4  C   UNL     1     -45.214 -50.206  31.692  0.00  0.00    +0.000 A 
ATOM      5  C   UNL     1     -46.219 -50.214  33.888  0.00  0.00    +0.000 A 
ATOM      6  C   UNL     1     -45.778 -48.957  31.420  0.00  0.00    +0.000 A 
ATOM      7  C   UNL     1     -46.788 -48.969  33.631  0.00  0.00    +0.000 A 
ATOM      8  C   UNL     1     -46.565 -48.348  32.402  0.00  0.00    +0.000 A 
BRANCH   6   9
ATOM      9  O   UNL     1     -45.613 -48.272  30.241  0.00  0.00    +0.000 OA
ATOM     10  C   UNL     1     -45.132 -49.030  29.162  0.00  0.00    +0.000 C 
ENDBRANCH   6   9
BRANCH   8  11
ATOM     11  O   UNL     1     -47.127 -47.125  32.156  0.00  0.00    +0.000 OA
ATOM     12  H   UNL     1     -48.091 -47.238  32.062  0.00  0.00    +0.000 HD
ENDBRANCH   8  11
ENDBRANCH   2   3
BRANCH   1  14
ATOM     13  O   UNL     1     -43.114 -55.401  32.830  0.00  0.00    +0.000 OA
ATOM     14  C   UNL     1     -43.641 -54.765  33.730  0.00  0.00    +0.000 C 
ATOM     15  C   UNL     1     -43.685 -55.298  35.063  0.00  0.00    +0.000 C 
ATOM     16  C   UNL     1     -43.728 -55.828  36.371  0.00  0.00    +0.000 C 
BRANCH  16  17
ATOM     17  O   UNL     1     -44.089 -54.976  37.387  0.00  0.00    +0.000 OA
ATOM     18  H   UNL     1     -44.099 -55.426  38.250  0.00  0.00    +0.000 HD
ENDBRANCH  16  17
BRANCH  16  19
ATOM     19  C   UNL     1     -43.423 -57.176  36.682  0.00  0.00    +0.000 C 
ATOM     20  C   UNL     1     -43.084 -58.632  37.018  0.00  0.00    +0.000 C 
BRANCH  20  21
ATOM     21  C   UNL     1     -42.738 -60.086  37.353  0.00  0.00    +0.000 C 
ATOM     22  C   UNL     1     -42.392 -61.541  37.685  0.00  0.00    +0.000 C 
ATOM     23  C   UNL     1     -42.042 -62.996  38.012  0.00  0.00    +0.000 C 
ENDBRANCH  20  21
ENDBRANCH  16  19
ENDBRANCH   1  14
TORSDOF 7
ENDMDL
MODEL 5
REMARK VINA RESULT:      -6.1     17.822     20.578
REMARK  Name = 442793_6gingerol.pdbqt.pdb
REMARK  7 active torsions:
REMARK  status: ('A' for Active; 'I' for Inactive)
REMARK    1  A    between atoms: C_1  and  C_3
REMARK    2  A    between atoms: C_5  and  O_6
REMARK    3  A    between atoms: C_5  and  C_8
REMARK    4  A    between atoms: C_9  and  C_10
REMARK    5  A    between atoms: C_13  and  C_14
REMARK    6  A    between atoms: C_17  and  O_20
REMARK    7  A    between atoms: C_19  and  O_22
REMARK                            x       y       z     vdW  Elec       q    Type
REMARK                         _______ _______ _______ _____ _____    ______ ____
ROOT
ATOM      1  C   UNL     1     -45.183 -63.342  41.797  0.00  0.00    +0.000 C 
ATOM      2  C   UNL     1     -46.154 -62.501  42.635  0.00  0.00    +0.000 C 
ENDROOT
BRANCH   2   3
ATOM      3  C   UNL     1     -47.054 -61.718  43.414  0.00  0.00    +0.000 A 
ATOM      4  C   UNL     1     -48.308 -61.388  42.901  0.00  0.00    +0.000 A 
ATOM      5  C   UNL     1     -46.679 -61.285  44.682  0.00  0.00    +0.000 A 
ATOM      6  C   UNL     1     -49.201 -60.620  43.653  0.00  0.00    +0.000 A 
ATOM      7  C   UNL     1     -47.560 -60.519  45.442  0.00  0.00    +0.000 A 
ATOM      8  C   UNL     1     -48.812 -60.191  44.925  0.00  0.00    +0.000 A 
BRANCH   6   9
ATOM      9  O   UNL     1     -50.453 -60.249  43.225  0.00  0.00    +0.000 OA
ATOM     10  C   UNL     1     -50.488 -59.218  42.274  0.00  0.00    +0.000 C 
ENDBRANCH   6   9
BRANCH   8  11
ATOM     11  O   UNL     1     -49.672 -59.439  45.677  0.00  0.00    +0.000 OA
ATOM     12  H   UNL     1     -49.395 -58.505  45.628  0.00  0.00    +0.000 HD
ENDBRANCH   8  11
ENDBRANCH   2   3
BRANCH   1  14
ATOM     13  O   UNL     1     -43.975 -63.784  39.876  0.00  0.00    +0.000 OA
ATOM     14  C   UNL     1     -44.268 -64.130  41.010  0.00  0.00    +0.000 C 
ATOM     15  C   UNL     1     -43.706 -65.327  41.569  0.00  0.00    +0.000 C 
ATOM     16  C   UNL     1     -43.152 -66.507  42.112  0.00  0.00    +0.000 C 
BRANCH  16  17
ATOM     17  O   UNL     1     -43.301 -66.711  43.463  0.00  0.00    +0.000 OA
ATOM     18  H   UNL     1     -43.967 -67.394  43.654  0.00  0.00    +0.000 HD
ENDBRANCH  16  17
BRANCH  16  19
ATOM     19  C   UNL     1     -42.461 -67.476  41.344  0.00  0.00    +0.000 C 
ATOM     20  C   UNL     1     -41.710 -68.528  40.521  0.00  0.00    +0.000 C 
BRANCH  20  21
ATOM     21  C   UNL     1     -40.957 -69.582  39.704  0.00  0.00    +0.000 C 
ATOM     22  C   UNL     1     -40.201 -70.636  38.888  0.00  0.00    +0.000 C 
ATOM     23  C   UNL     1     -39.444 -71.693  38.078  0.00  0.00    +0.000 C 
ENDBRANCH  20  21
ENDBRANCH  16  19
ENDBRANCH   1  14
TORSDOF 7
ENDMDL
MODEL 6
REMARK VINA RESULT:      -5.8      6.396      9.805
REMARK  Name = 442793_6gingerol.pdbqt.pdb
REMARK  7 active torsions:
REMARK  status: ('A' for Active; 'I' for Inactive)
REMARK    1  A    between atoms: C_1  and  C_3
REMARK    2  A    between atoms: C_5  and  O_6
REMARK    3  A    between atoms: C_5  and  C_8
REMARK    4  A    between atoms: C_9  and  C_10
REMARK    5  A    between atoms: C_13  and  C_14
REMARK    6  A    between atoms: C_17  and  O_20
REMARK    7  A    between atoms: C_19  and  O_22
REMARK                            x       y       z     vdW  Elec       q    Type
REMARK                         _______ _______ _______ _____ _____    ______ ____
ROOT
ATOM      1  C   UNL     1     -64.129 -65.802  40.201  0.00  0.00    +0.000 C 
ATOM      2  C   UNL     1     -65.171 -66.883  40.514  0.00  0.00    +0.000 C 
ENDROOT
BRANCH   2   3
ATOM      3  C   UNL     1     -66.137 -67.889  40.803  0.00  0.00    +0.000 A 
ATOM      4  C   UNL     1     -66.454 -68.844  39.838  0.00  0.00    +0.000 A 
ATOM      5  C   UNL     1     -66.762 -67.915  42.047  0.00  0.00    +0.000 A 
ATOM      6  C   UNL     1     -67.400 -69.837  40.107  0.00  0.00    +0.000 A 
ATOM      7  C   UNL     1     -67.706 -68.899  42.327  0.00  0.00    +0.000 A 
ATOM      8  C   UNL     1     -68.021 -69.852  41.359  0.00  0.00    +0.000 A 
BRANCH   6   9
ATOM      9  O   UNL     1     -67.772 -70.814  39.215  0.00  0.00    +0.000 OA
ATOM     10  C   UNL     1     -66.923 -71.929  39.150  0.00  0.00    +0.000 C 
ENDBRANCH   6   9
BRANCH   8  11
ATOM     11  O   UNL     1     -68.949 -70.815  41.642  0.00  0.00    +0.000 OA
ATOM     12  H   UNL     1     -69.737 -70.662  41.086  0.00  0.00    +0.000 HD
ENDBRANCH   8  11
ENDBRANCH   2   3
BRANCH   1  14
ATOM     13  O   UNL     1     -63.177 -64.194  38.839  0.00  0.00    +0.000 OA
ATOM     14  C   UNL     1     -63.148 -64.788  39.906  0.00  0.00    +0.000 C 
ATOM     15  C   UNL     1     -62.134 -64.483  40.876  0.00  0.00    +0.000 C 
ATOM     16  C   UNL     1     -61.133 -64.180  41.825  0.00  0.00    +0.000 C 
BRANCH  16  17
ATOM     17  O   UNL     1     -61.296 -64.677  43.096  0.00  0.00    +0.000 OA
ATOM     18  H   UNL     1     -61.946 -65.401  43.120  0.00  0.00    +0.000 HD
ENDBRANCH  16  17
BRANCH  16  19
ATOM     19  C   UNL     1     -59.986 -63.402  41.535  0.00  0.00    +0.000 C 
ATOM     20  C   UNL     1     -58.749 -62.557  41.213  0.00  0.00    +0.000 C 
BRANCH  20  21
ATOM     21  C   UNL     1     -57.514 -61.712  40.885  0.00  0.00    +0.000 C 
ATOM     22  C   UNL     1     -56.281 -60.865  40.556  0.00  0.00    +0.000 C 
ATOM     23  C   UNL     1     -55.052 -60.011  40.226  0.00  0.00    +0.000 C 
ENDBRANCH  20  21
ENDBRANCH  16  19
ENDBRANCH   1  14
TORSDOF 7
ENDMDL
MODEL 7
REMARK VINA RESULT:      -5.7     36.565     38.049
REMARK  Name = 442793_6gingerol.pdbqt.pdb
REMARK  7 active torsions:
REMARK  status: ('A' for Active; 'I' for Inactive)
REMARK    1  A    between atoms: C_1  and  C_3
REMARK    2  A    between atoms: C_5  and  O_6
REMARK    3  A    between atoms: C_5  and  C_8
REMARK    4  A    between atoms: C_9  and  C_10
REMARK    5  A    between atoms: C_13  and  C_14
REMARK    6  A    between atoms: C_17  and  O_20
REMARK    7  A    between atoms: C_19  and  O_22
REMARK                            x       y       z     vdW  Elec       q    Type
REMARK                         _______ _______ _______ _____ _____    ______ ____
ROOT
ATOM      1  C   UNL     1     -38.810 -43.049  48.849  0.00  0.00    +0.000 C 
ATOM      2  C   UNL     1     -40.023 -42.144  48.599  0.00  0.00    +0.000 C 
ENDROOT
BRANCH   2   3
ATOM      3  C   UNL     1     -41.150 -41.306  48.366  0.00  0.00    +0.000 A 
ATOM      4  C   UNL     1     -42.227 -41.330  49.251  0.00  0.00    +0.000 A 
ATOM      5  C   UNL     1     -41.173 -40.466  47.257  0.00  0.00    +0.000 A 
ATOM      6  C   UNL     1     -43.341 -40.514  49.036  0.00  0.00    +0.000 A 
ATOM      7  C   UNL     1     -42.277 -39.648  47.030  0.00  0.00    +0.000 A 
ATOM      8  C   UNL     1     -43.352 -39.676  47.917  0.00  0.00    +0.000 A 
BRANCH   6   9
ATOM      9  O   UNL     1     -44.443 -40.476  49.855  0.00  0.00    +0.000 OA
ATOM     10  C   UNL     1     -44.208 -40.039  51.167  0.00  0.00    +0.000 C 
ENDBRANCH   6   9
BRANCH   8  11
ATOM     11  O   UNL     1     -44.433 -38.869  47.689  0.00  0.00    +0.000 OA
ATOM     12  H   UNL     1     -44.125 -38.047  47.264  0.00  0.00    +0.000 HD
ENDBRANCH   8  11
ENDBRANCH   2   3
BRANCH   1  14
ATOM     13  O   UNL     1     -36.952 -44.238  48.155  0.00  0.00    +0.000 OA
ATOM     14  C   UNL     1     -37.672 -43.902  49.083  0.00  0.00    +0.000 C 
ATOM     15  C   UNL     1     -37.391 -44.355  50.417  0.00  0.00    +0.000 C 
ATOM     16  C   UNL     1     -37.112 -44.806  51.726  0.00  0.00    +0.000 C 
BRANCH  16  17
ATOM     17  O   UNL     1     -37.782 -44.198  52.760  0.00  0.00    +0.000 OA
ATOM     18  H   UNL     1     -37.790 -43.229  52.666  0.00  0.00    +0.000 HD
ENDBRANCH  16  17
BRANCH  16  19
ATOM     19  C   UNL     1     -36.191 -45.841  52.020  0.00  0.00    +0.000 C 
ATOM     20  C   UNL     1     -35.201 -46.967  52.336  0.00  0.00    +0.000 C 
BRANCH  20  21
ATOM     21  C   UNL     1     -34.216 -48.097  52.653  0.00  0.00    +0.000 C 
ATOM     22  C   UNL     1     -33.230 -49.226  52.968  0.00  0.00    +0.000 C 
ATOM     23  C   UNL     1     -32.239 -50.352  53.278  0.00  0.00    +0.000 C 
ENDBRANCH  20  21
ENDBRANCH  16  19
ENDBRANCH   1  14
TORSDOF 7
ENDMDL
MODEL 8
REMARK VINA RESULT:      -5.6     36.293     37.654
REMARK  Name = 442793_6gingerol.pdbqt.pdb
REMARK  7 active torsions:
REMARK  status: ('A' for Active; 'I' for Inactive)
REMARK    1  A    between atoms: C_1  and  C_3
REMARK    2  A    between atoms: C_5  and  O_6
REMARK    3  A    between atoms: C_5  and  C_8
REMARK    4  A    between atoms: C_9  and  C_10
REMARK    5  A    between atoms: C_13  and  C_14
REMARK    6  A    between atoms: C_17  and  O_20
REMARK    7  A    between atoms: C_19  and  O_22
REMARK                            x       y       z     vdW  Elec       q    Type
REMARK                         _______ _______ _______ _____ _____    ______ ____
ROOT
ATOM      1  C   UNL     1     -38.113 -43.477  47.362  0.00  0.00    +0.000 C 
ATOM      2  C   UNL     1     -37.464 -44.115  48.596  0.00  0.00    +0.000 C 
ENDROOT
BRANCH   2   3
ATOM      3  C   UNL     1     -36.862 -44.705  49.744  0.00  0.00    +0.000 A 
ATOM      4  C   UNL     1     -35.562 -45.201  49.668  0.00  0.00    +0.000 A 
ATOM      5  C   UNL     1     -37.574 -44.786  50.937  0.00  0.00    +0.000 A 
ATOM      6  C   UNL     1     -34.958 -45.784  50.785  0.00  0.00    +0.000 A 
ATOM      7  C   UNL     1     -36.985 -45.364  52.058  0.00  0.00    +0.000 A 
ATOM      8  C   UNL     1     -35.684 -45.859  51.978  0.00  0.00    +0.000 A 
BRANCH   6   9
ATOM      9  O   UNL     1     -33.684 -46.298  50.798  0.00  0.00    +0.000 OA
ATOM     10  C   UNL     1     -33.561 -47.624  50.357  0.00  0.00    +0.000 C 
ENDBRANCH   6   9
BRANCH   8  11
ATOM     11  O   UNL     1     -35.111 -46.426  53.082  0.00  0.00    +0.000 OA
ATOM     12  H   UNL     1     -35.781 -46.970  53.537  0.00  0.00    +0.000 HD
ENDBRANCH   8  11
ENDBRANCH   2   3
BRANCH   1  14
ATOM     13  O   UNL     1     -39.939 -42.737  46.150  0.00  0.00    +0.000 OA
ATOM     14  C   UNL     1     -38.726 -42.877  46.204  0.00  0.00    +0.000 C 
ATOM     15  C   UNL     1     -37.900 -42.446  45.110  0.00  0.00    +0.000 C 
ATOM     16  C   UNL     1     -37.093 -42.023  44.032  0.00  0.00    +0.000 C 
BRANCH  16  17
ATOM     17  O   UNL     1     -35.737 -41.959  44.245  0.00  0.00    +0.000 OA
ATOM     18  H   UNL     1     -35.423 -42.692  44.803  0.00  0.00    +0.000 HD
ENDBRANCH  16  17
BRANCH  16  19
ATOM     19  C   UNL     1     -37.605 -41.668  42.760  0.00  0.00    +0.000 C 
ATOM     20  C   UNL     1     -38.151 -41.288  41.380  0.00  0.00    +0.000 C 
BRANCH  20  21
ATOM     21  C   UNL     1     -38.691 -40.909  39.997  0.00  0.00    +0.000 C 
ATOM     22  C   UNL     1     -39.232 -40.531  38.615  0.00  0.00    +0.000 C 
ATOM     23  C   UNL     1     -39.780 -40.156  37.234  0.00  0.00    +0.000 C 
ENDBRANCH  20  21
ENDBRANCH  16  19
ENDBRANCH   1  14
TORSDOF 7
ENDMDL
MODEL 9
REMARK VINA RESULT:      -5.5     36.372     38.142
REMARK  Name = 442793_6gingerol.pdbqt.pdb
REMARK  7 active torsions:
REMARK  status: ('A' for Active; 'I' for Inactive)
REMARK    1  A    between atoms: C_1  and  C_3
REMARK    2  A    between atoms: C_5  and  O_6
REMARK    3  A    between atoms: C_5  and  C_8
REMARK    4  A    between atoms: C_9  and  C_10
REMARK    5  A    between atoms: C_13  and  C_14
REMARK    6  A    between atoms: C_17  and  O_20
REMARK    7  A    between atoms: C_19  and  O_22
REMARK                            x       y       z     vdW  Elec       q    Type
REMARK                         _______ _______ _______ _____ _____    ______ ____
ROOT
ATOM      1  C   UNL     1     -42.300 -40.414  49.383  0.00  0.00    +0.000 C 
ATOM      2  C   UNL     1     -41.123 -41.339  49.045  0.00  0.00    +0.000 C 
ENDROOT
BRANCH   2   3
ATOM      3  C   UNL     1     -40.031 -42.196  48.729  0.00  0.00    +0.000 A 
ATOM      4  C   UNL     1     -39.006 -42.383  49.654  0.00  0.00    +0.000 A 
ATOM      5  C   UNL     1     -39.990 -42.843  47.497  0.00  0.00    +0.000 A 
ATOM      6  C   UNL     1     -37.927 -43.221  49.358  0.00  0.00    +0.000 A 
ATOM      7  C   UNL     1     -38.921 -43.680  47.189  0.00  0.00    +0.000 A 
ATOM      8  C   UNL     1     -37.898 -43.864  48.118  0.00  0.00    +0.000 A 
BRANCH   6   9
ATOM      9  O   UNL     1     -36.876 -43.460  50.210  0.00  0.00    +0.000 OA
ATOM     10  C   UNL     1     -37.172 -44.254  51.329  0.00  0.00    +0.000 C 
ENDBRANCH   6   9
BRANCH   8  11
ATOM     11  O   UNL     1     -36.851 -44.688  47.809  0.00  0.00    +0.000 OA
ATOM     12  H   UNL     1     -36.520 -44.454  46.921  0.00  0.00    +0.000 HD
ENDBRANCH   8  11
ENDBRANCH   2   3
BRANCH   1  14
ATOM     13  O   UNL     1     -43.597 -38.530  49.045  0.00  0.00    +0.000 OA
ATOM     14  C   UNL     1     -43.405 -39.545  49.698  0.00  0.00    +0.000 C 
ATOM     15  C   UNL     1     -44.279 -39.879  50.788  0.00  0.00    +0.000 C 
ATOM     16  C   UNL     1     -45.140 -40.202  51.860  0.00  0.00    +0.000 C 
BRANCH  16  17
ATOM     17  O   UNL     1     -45.044 -41.466  52.388  0.00  0.00    +0.000 OA
ATOM     18  H   UNL     1     -44.587 -42.077  51.784  0.00  0.00    +0.000 HD
ENDBRANCH  16  17
BRANCH  16  19
ATOM     19  C   UNL     1     -46.081 -39.297  52.410  0.00  0.00    +0.000 C 
ATOM     20  C   UNL     1     -47.102 -38.317  52.996  0.00  0.00    +0.000 C 
BRANCH  20  21
ATOM     21  C   UNL     1     -48.124 -37.334  53.576  0.00  0.00    +0.000 C 
ATOM     22  C   UNL     1     -49.148 -36.352  54.155  0.00  0.00    +0.000 C 
ATOM     23  C   UNL     1     -50.176 -35.376  54.734  0.00  0.00    +0.000 C 
ENDBRANCH  20  21
ENDBRANCH  16  19
ENDBRANCH   1  14
TORSDOF 7
ENDMDL
