MODEL 1
REMARK VINA RESULT:      -7.3      0.000      0.000
REMARK  Name = 44423609_SipholenoneA.pdbqt.pdb
REMARK  4 active torsions:
REMARK  status: ('A' for Active; 'I' for Inactive)
REMARK    1  A    between atoms: C_3  and  C_19
REMARK    2  A    between atoms: C_5  and  O_17
REMARK    3  A    between atoms: C_20  and  C_24
REMARK    4  A    between atoms: C_25  and  O_35
REMARK                            x       y       z     vdW  Elec       q    Type
REMARK                         _______ _______ _______ _____ _____    ______ ____
ROOT
ATOM      1  O   UNL     1     -51.918 -41.905  40.367  0.00  0.00    +0.000 OA
ATOM      2  O   UNL     1     -48.557 -41.935  38.818  0.00  0.00    +0.000 OA
ATOM      3  C   UNL     1     -54.431 -41.041  37.444  0.00  0.00    +0.000 C 
ATOM      4  C   UNL     1     -53.417 -41.859  38.241  0.00  0.00    +0.000 C 
ATOM      5  C   UNL     1     -55.490 -40.224  38.166  0.00  0.00    +0.000 C 
ATOM      6  C   UNL     1     -52.973 -41.316  39.663  0.00  0.00    +0.000 C 
ATOM      7  C   UNL     1     -55.106 -40.083  39.557  0.00  0.00    +0.000 C 
ATOM      8  C   UNL     1     -53.934 -40.550  40.353  0.00  0.00    +0.000 C 
ATOM      9  C   UNL     1     -52.121 -41.902  37.543  0.00  0.00    +0.000 C 
ATOM     10  C   UNL     1     -53.952 -43.306  38.430  0.00  0.00    +0.000 C 
ATOM     11  C   UNL     1     -55.684 -38.861  37.494  0.00  0.00    +0.000 C 
ATOM     12  C   UNL     1     -50.636 -41.889  37.835  0.00  0.00    +0.000 C 
ATOM     13  C   UNL     1     -50.572 -41.325  40.292  0.00  0.00    +0.000 C 
ATOM     14  C   UNL     1     -49.758 -41.758  38.974  0.00  0.00    +0.000 C 
ATOM     15  C   UNL     1     -49.840 -41.850  41.570  0.00  0.00    +0.000 C 
ATOM     16  C   UNL     1     -50.647 -39.753  40.357  0.00  0.00    +0.000 C 
ENDROOT
BRANCH   5  17
ATOM     17  O   UNL     1     -56.732 -40.877  38.080  0.00  0.00    +0.000 OA
ATOM     18  H   UNL     1     -57.334 -40.177  38.390  0.00  0.00    +0.000 HD
ENDBRANCH   5  17
BRANCH   3  19
ATOM     19  C   UNL     1     -54.543 -41.250  36.023  0.00  0.00    +0.000 C 
ATOM     20  C   UNL     1     -54.649 -41.470  34.512  0.00  0.00    +0.000 C 
BRANCH  20  24
ATOM     21  C   UNL     1     -56.578 -40.579  31.569  0.00  0.00    +0.000 C 
ATOM     22  C   UNL     1     -56.106 -41.817  32.371  0.00  0.00    +0.000 C 
ATOM     23  C   UNL     1     -55.894 -40.005  30.355  0.00  0.00    +0.000 C 
ATOM     24  C   UNL     1     -54.745 -41.668  33.094  0.00  0.00    +0.000 C 
ATOM     25  C   UNL     1     -56.655 -38.807  29.785  0.00  0.00    +0.000 C 
ATOM     26  C   UNL     1     -57.755 -39.804  31.776  0.00  0.00    +0.000 C 
ATOM     27  C   UNL     1     -57.791 -38.758  30.697  0.00  0.00    +0.000 C 
ATOM     28  C   UNL     1     -54.509 -40.262  30.275  0.00  0.00    +0.000 C 
ATOM     29  C   UNL     1     -53.508 -41.631  32.311  0.00  0.00    +0.000 C 
ATOM     30  C   UNL     1     -57.215 -42.152  33.441  0.00  0.00    +0.000 C 
ATOM     31  C   UNL     1     -56.059 -43.047  31.402  0.00  0.00    +0.000 C 
ATOM     32  C   UNL     1     -53.559 -40.995  31.183  0.00  0.00    +0.000 C 
ATOM     33  C   UNL     1     -56.985 -38.987  28.313  0.00  0.00    +0.000 C 
ATOM     34  C   UNL     1     -52.140 -41.880  32.891  0.00  0.00    +0.000 C 
BRANCH  25  35
ATOM     35  O   UNL     1     -55.885 -37.635  29.898  0.00  0.00    +0.000 OA
ATOM     36  H   UNL     1     -55.280 -37.743  29.143  0.00  0.00    +0.000 HD
ENDBRANCH  25  35
ENDBRANCH  20  24
ENDBRANCH   3  19
TORSDOF 4
ENDMDL
MODEL 2
REMARK VINA RESULT:      -7.0     24.070     27.169
REMARK  Name = 44423609_SipholenoneA.pdbqt.pdb
REMARK  4 active torsions:
REMARK  status: ('A' for Active; 'I' for Inactive)
REMARK    1  A    between atoms: C_3  and  C_19
REMARK    2  A    between atoms: C_5  and  O_17
REMARK    3  A    between atoms: C_20  and  C_24
REMARK    4  A    between atoms: C_25  and  O_35
REMARK                            x       y       z     vdW  Elec       q    Type
REMARK                         _______ _______ _______ _____ _____    ______ ____
ROOT
ATOM      1  O   UNL     1     -47.171 -64.254  29.473  0.00  0.00    +0.000 OA
ATOM      2  O   UNL     1     -45.032 -61.266  29.911  0.00  0.00    +0.000 OA
ATOM      3  C   UNL     1     -46.177 -66.714  32.401  0.00  0.00    +0.000 C 
ATOM      4  C   UNL     1     -46.757 -65.466  31.738  0.00  0.00    +0.000 C 
ATOM      5  C   UNL     1     -46.341 -68.074  31.743  0.00  0.00    +0.000 C 
ATOM      6  C   UNL     1     -46.829 -65.427  30.155  0.00  0.00    +0.000 C 
ATOM      7  C   UNL     1     -46.732 -67.882  30.360  0.00  0.00    +0.000 C 
ATOM      8  C   UNL     1     -46.974 -66.674  29.518  0.00  0.00    +0.000 C 
ATOM      9  C   UNL     1     -45.909 -64.293  32.008  0.00  0.00    +0.000 C 
ATOM     10  C   UNL     1     -48.189 -65.206  32.285  0.00  0.00    +0.000 C 
ATOM     11  C   UNL     1     -45.053 -68.896  31.856  0.00  0.00    +0.000 C 
ATOM     12  C   UNL     1     -45.409 -63.033  31.334  0.00  0.00    +0.000 C 
ATOM     13  C   UNL     1     -46.118 -63.383  28.939  0.00  0.00    +0.000 C 
ATOM     14  C   UNL     1     -45.479 -62.398  30.038  0.00  0.00    +0.000 C 
ATOM     15  C   UNL     1     -46.820 -62.550  27.818  0.00  0.00    +0.000 C 
ATOM     16  C   UNL     1     -44.970 -64.243  28.290  0.00  0.00    +0.000 C 
ENDROOT
BRANCH   5  17
ATOM     17  O   UNL     1     -47.329 -68.811  32.418  0.00  0.00    +0.000 OA
ATOM     18  H   UNL     1     -46.835 -69.618  32.651  0.00  0.00    +0.000 HD
ENDBRANCH   5  17
BRANCH   3  19
ATOM     19  C   UNL     1     -45.709 -66.635  33.761  0.00  0.00    +0.000 C 
ATOM     20  C   UNL     1     -45.223 -66.555  35.211  0.00  0.00    +0.000 C 
BRANCH  20  24
ATOM     21  C   UNL     1     -44.379 -64.231  37.868  0.00  0.00    +0.000 C 
ATOM     22  C   UNL     1     -43.771 -65.396  37.047  0.00  0.00    +0.000 C 
ATOM     23  C   UNL     1     -45.028 -64.354  39.222  0.00  0.00    +0.000 C 
ATOM     24  C   UNL     1     -44.775 -66.474  36.571  0.00  0.00    +0.000 C 
ATOM     25  C   UNL     1     -45.479 -62.997  39.764  0.00  0.00    +0.000 C 
ATOM     26  C   UNL     1     -44.382 -62.845  37.541  0.00  0.00    +0.000 C 
ATOM     27  C   UNL     1     -45.032 -62.122  38.687  0.00  0.00    +0.000 C 
ATOM     28  C   UNL     1     -45.582 -65.620  39.503  0.00  0.00    +0.000 C 
ATOM     29  C   UNL     1     -45.369 -67.393  37.545  0.00  0.00    +0.000 C 
ATOM     30  C   UNL     1     -43.054 -64.777  35.786  0.00  0.00    +0.000 C 
ATOM     31  C   UNL     1     -42.639 -66.064  37.899  0.00  0.00    +0.000 C 
ATOM     32  C   UNL     1     -45.670 -66.891  38.701  0.00  0.00    +0.000 C 
ATOM     33  C   UNL     1     -44.905 -62.711  41.141  0.00  0.00    +0.000 C 
ATOM     34  C   UNL     1     -46.030 -68.696  37.175  0.00  0.00    +0.000 C 
BRANCH  25  35
ATOM     35  O   UNL     1     -46.880 -62.955  39.881  0.00  0.00    +0.000 OA
ATOM     36  H   UNL     1     -47.109 -63.870  39.642  0.00  0.00    +0.000 HD
ENDBRANCH  25  35
ENDBRANCH  20  24
ENDBRANCH   3  19
TORSDOF 4
ENDMDL
MODEL 3
REMARK VINA RESULT:      -6.9     25.349     28.244
REMARK  Name = 44423609_SipholenoneA.pdbqt.pdb
REMARK  4 active torsions:
REMARK  status: ('A' for Active; 'I' for Inactive)
REMARK    1  A    between atoms: C_3  and  C_19
REMARK    2  A    between atoms: C_5  and  O_17
REMARK    3  A    between atoms: C_20  and  C_24
REMARK    4  A    between atoms: C_25  and  O_35
REMARK                            x       y       z     vdW  Elec       q    Type
REMARK                         _______ _______ _______ _____ _____    ______ ____
ROOT
ATOM      1  O   UNL     1     -43.715 -63.683  23.929  0.00  0.00    +0.000 OA
ATOM      2  O   UNL     1     -44.906 -66.926  22.603  0.00  0.00    +0.000 OA
ATOM      3  C   UNL     1     -45.463 -63.264  27.448  0.00  0.00    +0.000 C 
ATOM      4  C   UNL     1     -44.527 -63.855  26.395  0.00  0.00    +0.000 C 
ATOM      5  C   UNL     1     -45.682 -61.762  27.517  0.00  0.00    +0.000 C 
ATOM      6  C   UNL     1     -44.402 -63.107  25.003  0.00  0.00    +0.000 C 
ATOM      7  C   UNL     1     -45.213 -61.162  26.282  0.00  0.00    +0.000 C 
ATOM      8  C   UNL     1     -44.607 -61.714  25.036  0.00  0.00    +0.000 C 
ATOM      9  C   UNL     1     -45.005 -65.178  25.959  0.00  0.00    +0.000 C 
ATOM     10  C   UNL     1     -43.097 -63.992  26.991  0.00  0.00    +0.000 C 
ATOM     11  C   UNL     1     -47.156 -61.435  27.778  0.00  0.00    +0.000 C 
ATOM     12  C   UNL     1     -45.099 -66.034  24.714  0.00  0.00    +0.000 C 
ATOM     13  C   UNL     1     -44.455 -64.413  22.892  0.00  0.00    +0.000 C 
ATOM     14  C   UNL     1     -44.811 -65.926  23.303  0.00  0.00    +0.000 C 
ATOM     15  C   UNL     1     -43.509 -64.404  21.648  0.00  0.00    +0.000 C 
ATOM     16  C   UNL     1     -45.784 -63.652  22.528  0.00  0.00    +0.000 C 
ENDROOT
BRANCH   5  17
ATOM     17  O   UNL     1     -44.970 -61.229  28.605  0.00  0.00    +0.000 OA
ATOM     18  H   UNL     1     -44.174 -60.886  28.160  0.00  0.00    +0.000 HD
ENDBRANCH   5  17
BRANCH   3  19
ATOM     19  C   UNL     1     -45.926 -64.100  28.526  0.00  0.00    +0.000 C 
ATOM     20  C   UNL     1     -46.413 -64.979  29.680  0.00  0.00    +0.000 C 
BRANCH  20  24
ATOM     21  C   UNL     1     -45.906 -68.186  31.303  0.00  0.00    +0.000 C 
ATOM     22  C   UNL     1     -47.012 -67.340  30.626  0.00  0.00    +0.000 C 
ATOM     23  C   UNL     1     -45.634 -68.256  32.784  0.00  0.00    +0.000 C 
ATOM     24  C   UNL     1     -46.860 -65.805  30.765  0.00  0.00    +0.000 C 
ATOM     25  C   UNL     1     -44.496 -69.224  33.109  0.00  0.00    +0.000 C 
ATOM     26  C   UNL     1     -44.997 -69.090  30.681  0.00  0.00    +0.000 C 
ATOM     27  C   UNL     1     -44.171 -69.709  31.773  0.00  0.00    +0.000 C 
ATOM     28  C   UNL     1     -46.031 -67.118  33.516  0.00  0.00    +0.000 C 
ATOM     29  C   UNL     1     -47.087 -65.168  32.063  0.00  0.00    +0.000 C 
ATOM     30  C   UNL     1     -47.036 -67.712  29.093  0.00  0.00    +0.000 C 
ATOM     31  C   UNL     1     -48.399 -67.789  31.199  0.00  0.00    +0.000 C 
ATOM     32  C   UNL     1     -46.670 -65.818  33.104  0.00  0.00    +0.000 C 
ATOM     33  C   UNL     1     -44.914 -70.278  34.121  0.00  0.00    +0.000 C 
ATOM     34  C   UNL     1     -47.352 -63.695  32.242  0.00  0.00    +0.000 C 
BRANCH  25  35
ATOM     35  O   UNL     1     -43.402 -68.531  33.659  0.00  0.00    +0.000 OA
ATOM     36  H   UNL     1     -43.097 -69.173  34.324  0.00  0.00    +0.000 HD
ENDBRANCH  25  35
ENDBRANCH  20  24
ENDBRANCH   3  19
TORSDOF 4
ENDMDL
MODEL 4
REMARK VINA RESULT:      -6.7     22.998     25.875
REMARK  Name = 44423609_SipholenoneA.pdbqt.pdb
REMARK  4 active torsions:
REMARK  status: ('A' for Active; 'I' for Inactive)
REMARK    1  A    between atoms: C_3  and  C_19
REMARK    2  A    between atoms: C_5  and  O_17
REMARK    3  A    between atoms: C_20  and  C_24
REMARK    4  A    between atoms: C_25  and  O_35
REMARK                            x       y       z     vdW  Elec       q    Type
REMARK                         _______ _______ _______ _____ _____    ______ ____
ROOT
ATOM      1  O   UNL     1     -46.790 -66.896  29.207  0.00  0.00    +0.000 OA
ATOM      2  O   UNL     1     -46.354 -63.725  27.350  0.00  0.00    +0.000 OA
ATOM      3  C   UNL     1     -45.792 -66.090  32.944  0.00  0.00    +0.000 C 
ATOM      4  C   UNL     1     -46.613 -66.037  31.657  0.00  0.00    +0.000 C 
ATOM      5  C   UNL     1     -45.160 -67.397  33.393  0.00  0.00    +0.000 C 
ATOM      6  C   UNL     1     -46.210 -67.014  30.475  0.00  0.00    +0.000 C 
ATOM      7  C   UNL     1     -45.155 -68.324  32.278  0.00  0.00    +0.000 C 
ATOM      8  C   UNL     1     -45.616 -68.231  30.862  0.00  0.00    +0.000 C 
ATOM      9  C   UNL     1     -46.464 -64.728  30.999  0.00  0.00    +0.000 C 
ATOM     10  C   UNL     1     -48.112 -66.284  31.987  0.00  0.00    +0.000 C 
ATOM     11  C   UNL     1     -43.746 -67.163  33.937  0.00  0.00    +0.000 C 
ATOM     12  C   UNL     1     -46.363 -64.121  29.616  0.00  0.00    +0.000 C 
ATOM     13  C   UNL     1     -46.095 -66.154  28.149  0.00  0.00    +0.000 C 
ATOM     14  C   UNL     1     -46.297 -64.562  28.243  0.00  0.00    +0.000 C 
ATOM     15  C   UNL     1     -46.707 -66.694  26.815  0.00  0.00    +0.000 C 
ATOM     16  C   UNL     1     -44.554 -66.479  28.171  0.00  0.00    +0.000 C 
ENDROOT
BRANCH   5  17
ATOM     17  O   UNL     1     -45.898 -67.939  34.459  0.00  0.00    +0.000 OA
ATOM     18  H   UNL     1     -46.799 -67.928  34.088  0.00  0.00    +0.000 HD
ENDBRANCH   5  17
BRANCH   3  19
ATOM     19  C   UNL     1     -45.838 -64.974  33.854  0.00  0.00    +0.000 C 
ATOM     20  C   UNL     1     -45.883 -63.780  34.810  0.00  0.00    +0.000 C 
BRANCH  20  24
ATOM     21  C   UNL     1     -43.875 -61.086  36.184  0.00  0.00    +0.000 C 
ATOM     22  C   UNL     1     -44.725 -62.303  36.627  0.00  0.00    +0.000 C 
ATOM     23  C   UNL     1     -44.355 -59.660  36.102  0.00  0.00    +0.000 C 
ATOM     24  C   UNL     1     -45.916 -62.658  35.705  0.00  0.00    +0.000 C 
ATOM     25  C   UNL     1     -43.240 -58.707  35.669  0.00  0.00    +0.000 C 
ATOM     26  C   UNL     1     -42.492 -61.069  35.840  0.00  0.00    +0.000 C 
ATOM     27  C   UNL     1     -42.127 -59.641  35.546  0.00  0.00    +0.000 C 
ATOM     28  C   UNL     1     -45.742 -59.510  35.898  0.00  0.00    +0.000 C 
ATOM     29  C   UNL     1     -47.088 -61.781  35.661  0.00  0.00    +0.000 C 
ATOM     30  C   UNL     1     -43.768 -63.552  36.726  0.00  0.00    +0.000 C 
ATOM     31  C   UNL     1     -45.241 -62.041  38.083  0.00  0.00    +0.000 C 
ATOM     32  C   UNL     1     -46.857 -60.508  35.728  0.00  0.00    +0.000 C 
ATOM     33  C   UNL     1     -43.050 -57.565  36.653  0.00  0.00    +0.000 C 
ATOM     34  C   UNL     1     -48.433 -62.202  35.128  0.00  0.00    +0.000 C 
BRANCH  25  35
ATOM     35  O   UNL     1     -43.539 -58.134  34.420  0.00  0.00    +0.000 OA
ATOM     36  H   UNL     1     -42.647 -58.051  34.040  0.00  0.00    +0.000 HD
ENDBRANCH  25  35
ENDBRANCH  20  24
ENDBRANCH   3  19
TORSDOF 4
ENDMDL
MODEL 5
REMARK VINA RESULT:      -6.6     19.576     23.083
REMARK  Name = 44423609_SipholenoneA.pdbqt.pdb
REMARK  4 active torsions:
REMARK  status: ('A' for Active; 'I' for Inactive)
REMARK    1  A    between atoms: C_3  and  C_19
REMARK    2  A    between atoms: C_5  and  O_17
REMARK    3  A    between atoms: C_20  and  C_24
REMARK    4  A    between atoms: C_25  and  O_35
REMARK                            x       y       z     vdW  Elec       q    Type
REMARK                         _______ _______ _______ _____ _____    ______ ____
ROOT
ATOM      1  O   UNL     1     -42.441 -58.007  30.892  0.00  0.00    +0.000 OA
ATOM      2  O   UNL     1     -45.355 -59.140  28.912  0.00  0.00    +0.000 OA
ATOM      3  C   UNL     1     -43.304 -58.872  34.650  0.00  0.00    +0.000 C 
ATOM      4  C   UNL     1     -42.963 -59.126  33.182  0.00  0.00    +0.000 C 
ATOM      5  C   UNL     1     -42.645 -57.726  35.399  0.00  0.00    +0.000 C 
ATOM      6  C   UNL     1     -42.582 -57.881  32.278  0.00  0.00    +0.000 C 
ATOM      7  C   UNL     1     -42.047 -56.819  34.438  0.00  0.00    +0.000 C 
ATOM      8  C   UNL     1     -41.975 -56.800  32.948  0.00  0.00    +0.000 C 
ATOM      9  C   UNL     1     -44.135 -59.648  32.460  0.00  0.00    +0.000 C 
ATOM     10  C   UNL     1     -41.799 -60.153  33.091  0.00  0.00    +0.000 C 
ATOM     11  C   UNL     1     -43.655 -57.007  36.299  0.00  0.00    +0.000 C 
ATOM     12  C   UNL     1     -44.810 -59.555  31.108  0.00  0.00    +0.000 C 
ATOM     13  C   UNL     1     -43.559 -57.662  30.006  0.00  0.00    +0.000 C 
ATOM     14  C   UNL     1     -44.652 -58.833  29.867  0.00  0.00    +0.000 C 
ATOM     15  C   UNL     1     -42.896 -57.381  28.619  0.00  0.00    +0.000 C 
ATOM     16  C   UNL     1     -44.271 -56.350  30.506  0.00  0.00    +0.000 C 
ENDROOT
BRANCH   5  17
ATOM     17  O   UNL     1     -41.654 -58.230  36.258  0.00  0.00    +0.000 OA
ATOM     18  H   UNL     1     -41.870 -59.180  36.260  0.00  0.00    +0.000 HD
ENDBRANCH   5  17
BRANCH   3  19
ATOM     19  C   UNL     1     -44.044 -59.867  35.383  0.00  0.00    +0.000 C 
ATOM     20  C   UNL     1     -44.839 -60.924  36.153  0.00  0.00    +0.000 C 
BRANCH  20  24
ATOM     21  C   UNL     1     -45.349 -62.364  39.445  0.00  0.00    +0.000 C 
ATOM     22  C   UNL     1     -44.964 -62.767  38.000  0.00  0.00    +0.000 C 
ATOM     23  C   UNL     1     -46.733 -62.436  40.039  0.00  0.00    +0.000 C 
ATOM     24  C   UNL     1     -45.592 -61.908  36.876  0.00  0.00    +0.000 C 
ATOM     25  C   UNL     1     -46.747 -62.003  41.506  0.00  0.00    +0.000 C 
ATOM     26  C   UNL     1     -44.483 -61.923  40.487  0.00  0.00    +0.000 C 
ATOM     27  C   UNL     1     -45.331 -61.722  41.711  0.00  0.00    +0.000 C 
ATOM     28  C   UNL     1     -47.786 -62.348  39.106  0.00  0.00    +0.000 C 
ATOM     29  C   UNL     1     -47.024 -62.024  36.588  0.00  0.00    +0.000 C 
ATOM     30  C   UNL     1     -43.393 -62.692  37.879  0.00  0.00    +0.000 C 
ATOM     31  C   UNL     1     -45.339 -64.273  37.789  0.00  0.00    +0.000 C 
ATOM     32  C   UNL     1     -47.806 -62.178  37.610  0.00  0.00    +0.000 C 
ATOM     33  C   UNL     1     -47.358 -63.061  42.408  0.00  0.00    +0.000 C 
ATOM     34  C   UNL     1     -47.663 -61.557  35.306  0.00  0.00    +0.000 C 
BRANCH  25  35
ATOM     35  O   UNL     1     -47.508 -60.831  41.666  0.00  0.00    +0.000 OA
ATOM     36  H   UNL     1     -48.388 -61.209  41.838  0.00  0.00    +0.000 HD
ENDBRANCH  25  35
ENDBRANCH  20  24
ENDBRANCH   3  19
TORSDOF 4
ENDMDL
MODEL 6
REMARK VINA RESULT:      -6.6     29.293     31.908
REMARK  Name = 44423609_SipholenoneA.pdbqt.pdb
REMARK  4 active torsions:
REMARK  status: ('A' for Active; 'I' for Inactive)
REMARK    1  A    between atoms: C_3  and  C_19
REMARK    2  A    between atoms: C_5  and  O_17
REMARK    3  A    between atoms: C_20  and  C_24
REMARK    4  A    between atoms: C_25  and  O_35
REMARK                            x       y       z     vdW  Elec       q    Type
REMARK                         _______ _______ _______ _____ _____    ______ ____
ROOT
ATOM      1  O   UNL     1     -63.869 -74.943  45.437  0.00  0.00    +0.000 OA
ATOM      2  O   UNL     1     -60.868 -74.040  47.405  0.00  0.00    +0.000 OA
ATOM      3  C   UNL     1     -64.552 -71.862  43.060  0.00  0.00    +0.000 C 
ATOM      4  C   UNL     1     -63.821 -73.080  43.621  0.00  0.00    +0.000 C 
ATOM      5  C   UNL     1     -66.070 -71.852  42.981  0.00  0.00    +0.000 C 
ATOM      6  C   UNL     1     -64.545 -73.932  44.746  0.00  0.00    +0.000 C 
ATOM      7  C   UNL     1     -66.591 -72.913  43.822  0.00  0.00    +0.000 C 
ATOM      8  C   UNL     1     -65.953 -73.936  44.700  0.00  0.00    +0.000 C 
ATOM      9  C   UNL     1     -62.596 -72.671  44.327  0.00  0.00    +0.000 C 
ATOM     10  C   UNL     1     -63.452 -74.044  42.459  0.00  0.00    +0.000 C 
ATOM     11  C   UNL     1     -66.631 -70.485  43.386  0.00  0.00    +0.000 C 
ATOM     12  C   UNL     1     -61.771 -73.035  45.544  0.00  0.00    +0.000 C 
ATOM     13  C   UNL     1     -63.274 -74.663  46.749  0.00  0.00    +0.000 C 
ATOM     14  C   UNL     1     -61.836 -73.947  46.662  0.00  0.00    +0.000 C 
ATOM     15  C   UNL     1     -63.133 -76.063  47.430  0.00  0.00    +0.000 C 
ATOM     16  C   UNL     1     -64.241 -73.771  47.612  0.00  0.00    +0.000 C 
ENDROOT
BRANCH   5  17
ATOM     17  O   UNL     1     -66.476 -72.057  41.651  0.00  0.00    +0.000 OA
ATOM     18  H   UNL     1     -65.994 -72.875  41.430  0.00  0.00    +0.000 HD
ENDBRANCH   5  17
BRANCH   3  19
ATOM     19  C   UNL     1     -63.799 -70.844  42.374  0.00  0.00    +0.000 C 
ATOM     20  C   UNL     1     -63.003 -69.766  41.634  0.00  0.00    +0.000 C 
BRANCH  20  24
ATOM     21  C   UNL     1     -62.672 -66.184  41.147  0.00  0.00    +0.000 C 
ATOM     22  C   UNL     1     -62.915 -67.491  40.352  0.00  0.00    +0.000 C 
ATOM     23  C   UNL     1     -61.338 -65.509  41.341  0.00  0.00    +0.000 C 
ATOM     24  C   UNL     1     -62.252 -68.763  40.935  0.00  0.00    +0.000 C 
ATOM     25  C   UNL     1     -61.468 -64.212  42.142  0.00  0.00    +0.000 C 
ATOM     26  C   UNL     1     -63.643 -65.353  41.774  0.00  0.00    +0.000 C 
ATOM     27  C   UNL     1     -62.909 -64.176  42.353  0.00  0.00    +0.000 C 
ATOM     28  C   UNL     1     -60.221 -66.366  41.267  0.00  0.00    +0.000 C 
ATOM     29  C   UNL     1     -60.798 -68.921  40.862  0.00  0.00    +0.000 C 
ATOM     30  C   UNL     1     -64.473 -67.723  40.268  0.00  0.00    +0.000 C 
ATOM     31  C   UNL     1     -62.435 -67.271  38.877  0.00  0.00    +0.000 C 
ATOM     32  C   UNL     1     -60.092 -67.849  41.042  0.00  0.00    +0.000 C 
ATOM     33  C   UNL     1     -60.868 -63.025  41.407  0.00  0.00    +0.000 C 
ATOM     34  C   UNL     1     -60.088 -70.240  41.027  0.00  0.00    +0.000 C 
BRANCH  25  35
ATOM     35  O   UNL     1     -60.793 -64.323  43.371  0.00  0.00    +0.000 OA
ATOM     36  H   UNL     1     -61.432 -63.893  43.967  0.00  0.00    +0.000 HD
ENDBRANCH  25  35
ENDBRANCH  20  24
ENDBRANCH   3  19
TORSDOF 4
ENDMDL
MODEL 7
REMARK VINA RESULT:      -6.4     24.984     28.023
REMARK  Name = 44423609_SipholenoneA.pdbqt.pdb
REMARK  4 active torsions:
REMARK  status: ('A' for Active; 'I' for Inactive)
REMARK    1  A    between atoms: C_3  and  C_19
REMARK    2  A    between atoms: C_5  and  O_17
REMARK    3  A    between atoms: C_20  and  C_24
REMARK    4  A    between atoms: C_25  and  O_35
REMARK                            x       y       z     vdW  Elec       q    Type
REMARK                         _______ _______ _______ _____ _____    ______ ____
ROOT
ATOM      1  O   UNL     1     -42.690 -64.550  21.807  0.00  0.00    +0.000 OA
ATOM      2  O   UNL     1     -44.501 -67.757  21.455  0.00  0.00    +0.000 OA
ATOM      3  C   UNL     1     -44.412 -62.680  24.833  0.00  0.00    +0.000 C 
ATOM      4  C   UNL     1     -43.592 -63.750  24.113  0.00  0.00    +0.000 C 
ATOM      5  C   UNL     1     -44.310 -61.225  24.407  0.00  0.00    +0.000 C 
ATOM      6  C   UNL     1     -43.271 -63.535  22.576  0.00  0.00    +0.000 C 
ATOM      7  C   UNL     1     -43.689 -61.162  23.098  0.00  0.00    +0.000 C 
ATOM      8  C   UNL     1     -43.177 -62.195  22.151  0.00  0.00    +0.000 C 
ATOM      9  C   UNL     1     -44.327 -65.025  24.069  0.00  0.00    +0.000 C 
ATOM     10  C   UNL     1     -42.242 -63.955  24.856  0.00  0.00    +0.000 C 
ATOM     11  C   UNL     1     -45.688 -60.556  24.410  0.00  0.00    +0.000 C 
ATOM     12  C   UNL     1     -44.563 -66.206  23.151  0.00  0.00    +0.000 C 
ATOM     13  C   UNL     1     -43.537 -65.422  20.985  0.00  0.00    +0.000 C 
ATOM     14  C   UNL     1     -44.218 -66.621  21.812  0.00  0.00    +0.000 C 
ATOM     15  C   UNL     1     -42.575 -66.001  19.897  0.00  0.00    +0.000 C 
ATOM     16  C   UNL     1     -44.664 -64.583  20.274  0.00  0.00    +0.000 C 
ENDROOT
BRANCH   5  17
ATOM     17  O   UNL     1     -43.533 -60.513  25.337  0.00  0.00    +0.000 OA
ATOM     18  H   UNL     1     -42.947 -61.216  25.671  0.00  0.00    +0.000 HD
ENDBRANCH   5  17
BRANCH   3  19
ATOM     19  C   UNL     1     -45.073 -63.014  26.069  0.00  0.00    +0.000 C 
ATOM     20  C   UNL     1     -45.786 -63.361  27.378  0.00  0.00    +0.000 C 
BRANCH  20  24
ATOM     21  C   UNL     1     -45.876 -65.738  30.120  0.00  0.00    +0.000 C 
ATOM     22  C   UNL     1     -46.783 -65.133  29.019  0.00  0.00    +0.000 C 
ATOM     23  C   UNL     1     -45.786 -65.260  31.546  0.00  0.00    +0.000 C 
ATOM     24  C   UNL     1     -46.454 -63.677  28.608  0.00  0.00    +0.000 C 
ATOM     25  C   UNL     1     -44.824 -66.114  32.374  0.00  0.00    +0.000 C 
ATOM     26  C   UNL     1     -45.025 -66.876  30.018  0.00  0.00    +0.000 C 
ATOM     27  C   UNL     1     -44.414 -67.092  31.374  0.00  0.00    +0.000 C 
ATOM     28  C   UNL     1     -46.116 -63.902  31.740  0.00  0.00    +0.000 C 
ATOM     29  C   UNL     1     -46.744 -62.578  29.532  0.00  0.00    +0.000 C 
ATOM     30  C   UNL     1     -46.679 -66.056  27.745  0.00  0.00    +0.000 C 
ATOM     31  C   UNL     1     -48.271 -65.226  29.497  0.00  0.00    +0.000 C 
ATOM     32  C   UNL     1     -46.534 -62.813  30.789  0.00  0.00    +0.000 C 
ATOM     33  C   UNL     1     -45.485 -66.669  33.624  0.00  0.00    +0.000 C 
ATOM     34  C   UNL     1     -46.839 -61.133  29.116  0.00  0.00    +0.000 C 
BRANCH  25  35
ATOM     35  O   UNL     1     -43.721 -65.348  32.792  0.00  0.00    +0.000 OA
ATOM     36  H   UNL     1     -43.578 -65.709  33.684  0.00  0.00    +0.000 HD
ENDBRANCH  25  35
ENDBRANCH  20  24
ENDBRANCH   3  19
TORSDOF 4
ENDMDL
MODEL 8
REMARK VINA RESULT:      -6.3     31.778     34.315
REMARK  Name = 44423609_SipholenoneA.pdbqt.pdb
REMARK  4 active torsions:
REMARK  status: ('A' for Active; 'I' for Inactive)
REMARK    1  A    between atoms: C_3  and  C_19
REMARK    2  A    between atoms: C_5  and  O_17
REMARK    3  A    between atoms: C_20  and  C_24
REMARK    4  A    between atoms: C_25  and  O_35
REMARK                            x       y       z     vdW  Elec       q    Type
REMARK                         _______ _______ _______ _____ _____    ______ ____
ROOT
ATOM      1  O   UNL     1     -53.062 -73.974  28.232  0.00  0.00    +0.000 OA
ATOM      2  O   UNL     1     -55.301 -74.769  31.069  0.00  0.00    +0.000 OA
ATOM      3  C   UNL     1     -55.426 -73.562  25.092  0.00  0.00    +0.000 C 
ATOM      4  C   UNL     1     -54.806 -73.231  26.449  0.00  0.00    +0.000 C 
ATOM      5  C   UNL     1     -54.558 -74.102  23.968  0.00  0.00    +0.000 C 
ATOM      6  C   UNL     1     -53.564 -74.091  26.931  0.00  0.00    +0.000 C 
ATOM      7  C   UNL     1     -53.300 -74.563  24.526  0.00  0.00    +0.000 C 
ATOM      8  C   UNL     1     -52.745 -74.610  25.910  0.00  0.00    +0.000 C 
ATOM      9  C   UNL     1     -55.765 -73.493  27.535  0.00  0.00    +0.000 C 
ATOM     10  C   UNL     1     -54.387 -71.734  26.477  0.00  0.00    +0.000 C 
ATOM     11  C   UNL     1     -55.280 -75.220  23.208  0.00  0.00    +0.000 C 
ATOM     12  C   UNL     1     -55.806 -74.014  28.956  0.00  0.00    +0.000 C 
ATOM     13  C   UNL     1     -53.477 -74.929  29.266  0.00  0.00    +0.000 C 
ATOM     14  C   UNL     1     -54.901 -74.582  29.927  0.00  0.00    +0.000 C 
ATOM     15  C   UNL     1     -52.352 -74.857  30.349  0.00  0.00    +0.000 C 
ATOM     16  C   UNL     1     -53.525 -76.389  28.678  0.00  0.00    +0.000 C 
ENDROOT
BRANCH   5  17
ATOM     17  O   UNL     1     -54.317 -73.088  23.026  0.00  0.00    +0.000 OA
ATOM     18  H   UNL     1     -55.191 -73.015  22.601  0.00  0.00    +0.000 HD
ENDBRANCH   5  17
BRANCH   3  19
ATOM     19  C   UNL     1     -56.766 -73.119  24.804  0.00  0.00    +0.000 C 
ATOM     20  C   UNL     1     -58.185 -72.640  24.490  0.00  0.00    +0.000 C 
BRANCH  20  24
ATOM     21  C   UNL     1     -61.702 -73.370  25.016  0.00  0.00    +0.000 C 
ATOM     22  C   UNL     1     -60.672 -73.157  23.879  0.00  0.00    +0.000 C 
ATOM     23  C   UNL     1     -62.623 -72.317  25.576  0.00  0.00    +0.000 C 
ATOM     24  C   UNL     1     -59.513 -72.182  24.199  0.00  0.00    +0.000 C 
ATOM     25  C   UNL     1     -63.541 -72.882  26.661  0.00  0.00    +0.000 C 
ATOM     26  C   UNL     1     -62.017 -74.585  25.689  0.00  0.00    +0.000 C 
ATOM     27  C   UNL     1     -63.124 -74.278  26.659  0.00  0.00    +0.000 C 
ATOM     28  C   UNL     1     -62.160 -70.991  25.445  0.00  0.00    +0.000 C 
ATOM     29  C   UNL     1     -59.781 -70.746  24.303  0.00  0.00    +0.000 C 
ATOM     30  C   UNL     1     -60.064 -74.565  23.507  0.00  0.00    +0.000 C 
ATOM     31  C   UNL     1     -61.438 -72.671  22.602  0.00  0.00    +0.000 C 
ATOM     32  C   UNL     1     -60.901 -70.408  24.860  0.00  0.00    +0.000 C 
ATOM     33  C   UNL     1     -65.008 -72.620  26.362  0.00  0.00    +0.000 C 
ATOM     34  C   UNL     1     -58.716 -69.684  24.218  0.00  0.00    +0.000 C 
BRANCH  25  35
ATOM     35  O   UNL     1     -63.259 -72.287  27.904  0.00  0.00    +0.000 OA
ATOM     36  H   UNL     1     -63.949 -72.690  28.459  0.00  0.00    +0.000 HD
ENDBRANCH  25  35
ENDBRANCH  20  24
ENDBRANCH   3  19
TORSDOF 4
ENDMDL
MODEL 9
REMARK VINA RESULT:      -6.3      5.360     10.444
REMARK  Name = 44423609_SipholenoneA.pdbqt.pdb
REMARK  4 active torsions:
REMARK  status: ('A' for Active; 'I' for Inactive)
REMARK    1  A    between atoms: C_3  and  C_19
REMARK    2  A    between atoms: C_5  and  O_17
REMARK    3  A    between atoms: C_20  and  C_24
REMARK    4  A    between atoms: C_25  and  O_35
REMARK                            x       y       z     vdW  Elec       q    Type
REMARK                         _______ _______ _______ _____ _____    ______ ____
ROOT
ATOM      1  O   UNL     1     -52.791 -40.395  37.566  0.00  0.00    +0.000 OA
ATOM      2  O   UNL     1     -53.035 -42.952  34.903  0.00  0.00    +0.000 OA
ATOM      3  C   UNL     1     -49.021 -40.445  38.750  0.00  0.00    +0.000 C 
ATOM      4  C   UNL     1     -50.206 -40.217  37.814  0.00  0.00    +0.000 C 
ATOM      5  C   UNL     1     -49.150 -40.138  40.233  0.00  0.00    +0.000 C 
ATOM      6  C   UNL     1     -51.667 -40.403  38.400  0.00  0.00    +0.000 C 
ATOM      7  C   UNL     1     -50.556 -40.012  40.566  0.00  0.00    +0.000 C 
ATOM      8  C   UNL     1     -51.815 -40.131  39.775  0.00  0.00    +0.000 C 
ATOM      9  C   UNL     1     -50.212 -41.214  36.730  0.00  0.00    +0.000 C 
ATOM     10  C   UNL     1     -50.118 -38.789  37.204  0.00  0.00    +0.000 C 
ATOM     11  C   UNL     1     -48.466 -41.219  41.077  0.00  0.00    +0.000 C 
ATOM     12  C   UNL     1     -51.178 -42.037  35.906  0.00  0.00    +0.000 C 
ATOM     13  C   UNL     1     -53.367 -41.661  37.101  0.00  0.00    +0.000 C 
ATOM     14  C   UNL     1     -52.598 -42.290  35.836  0.00  0.00    +0.000 C 
ATOM     15  C   UNL     1     -54.840 -41.309  36.711  0.00  0.00    +0.000 C 
ATOM     16  C   UNL     1     -53.387 -42.718  38.267  0.00  0.00    +0.000 C 
ENDROOT
BRANCH   5  17
ATOM     17  O   UNL     1     -48.481 -38.938  40.528  0.00  0.00    +0.000 OA
ATOM     18  H   UNL     1     -48.992 -38.301  39.996  0.00  0.00    +0.000 HD
ENDBRANCH   5  17
BRANCH   3  19
ATOM     19  C   UNL     1     -47.720 -40.700  38.188  0.00  0.00    +0.000 C 
ATOM     20  C   UNL     1     -46.332 -40.975  37.603  0.00  0.00    +0.000 C 
BRANCH  20  24
ATOM     21  C   UNL     1     -43.248 -39.366  36.565  0.00  0.00    +0.000 C 
ATOM     22  C   UNL     1     -44.371 -40.284  36.021  0.00  0.00    +0.000 C 
ATOM     23  C   UNL     1     -41.925 -39.828  37.118  0.00  0.00    +0.000 C 
ATOM     24  C   UNL     1     -45.028 -41.226  37.060  0.00  0.00    +0.000 C 
ATOM     25  C   UNL     1     -41.035 -38.652  37.526  0.00  0.00    +0.000 C 
ATOM     26  C   UNL     1     -43.222 -37.942  36.587  0.00  0.00    +0.000 C 
ATOM     27  C   UNL     1     -41.891 -37.533  37.152  0.00  0.00    +0.000 C 
ATOM     28  C   UNL     1     -41.927 -41.132  37.656  0.00  0.00    +0.000 C 
ATOM     29  C   UNL     1     -44.273 -42.364  37.588  0.00  0.00    +0.000 C 
ATOM     30  C   UNL     1     -45.486 -39.364  35.392  0.00  0.00    +0.000 C 
ATOM     31  C   UNL     1     -43.790 -41.127  34.835  0.00  0.00    +0.000 C 
ATOM     32  C   UNL     1     -43.011 -42.167  37.805  0.00  0.00    +0.000 C 
ATOM     33  C   UNL     1     -39.673 -38.707  36.855  0.00  0.00    +0.000 C 
ATOM     34  C   UNL     1     -44.906 -43.544  38.278  0.00  0.00    +0.000 C 
BRANCH  25  35
ATOM     35  O   UNL     1     -40.815 -38.660  38.915  0.00  0.00    +0.000 OA
ATOM     36  H   UNL     1     -41.092 -39.566  39.137  0.00  0.00    +0.000 HD
ENDBRANCH  25  35
ENDBRANCH  20  24
ENDBRANCH   3  19
TORSDOF 4
ENDMDL
