MODEL 1
REMARK VINA RESULT:      -7.7      0.000      0.000
REMARK  Name = 445154_Resveratrol.pdbqt.pdb
REMARK  5 active torsions:
REMARK  status: ('A' for Active; 'I' for Inactive)
REMARK    1  A    between atoms: C_1  and  C_11
REMARK    2  A    between atoms: C_4  and  O_7
REMARK    3  A    between atoms: C_5  and  O_9
REMARK    4  A    between atoms: C_12  and  C_13
REMARK    5  A    between atoms: C_18  and  O_19
REMARK                            x       y       z     vdW  Elec       q    Type
REMARK                         _______ _______ _______ _____ _____    ______ ____
ROOT
ATOM      1  C   UNL     1     -60.584 -63.252  41.385  0.00  0.00    +0.000 A 
ATOM      2  C   UNL     1     -61.516 -63.018  40.375  0.00  0.00    +0.000 A 
ATOM      3  C   UNL     1     -60.974 -63.875  42.570  0.00  0.00    +0.000 A 
ATOM      4  C   UNL     1     -62.302 -64.262  42.735  0.00  0.00    +0.000 A 
ATOM      5  C   UNL     1     -62.838 -63.411  40.560  0.00  0.00    +0.000 A 
ATOM      6  C   UNL     1     -63.243 -64.035  41.735  0.00  0.00    +0.000 A 
ENDROOT
BRANCH   4   7
ATOM      7  O   UNL     1     -62.712 -64.875  43.883  0.00  0.00    +0.000 OA
ATOM      8  H   UNL     1     -62.842 -64.190  44.563  0.00  0.00    +0.000 HD
ENDBRANCH   4   7
BRANCH   5   9
ATOM      9  O   UNL     1     -63.733 -63.172  39.557  0.00  0.00    +0.000 OA
ATOM     10  H   UNL     1     -63.832 -63.991  39.041  0.00  0.00    +0.000 HD
ENDBRANCH   5   9
BRANCH   1  11
ATOM     11  C   UNL     1     -59.226 -62.853  41.208  0.00  0.00    +0.000 C 
ATOM     12  C   UNL     1     -58.083 -62.515  41.059  0.00  0.00    +0.000 C 
BRANCH  12  13
ATOM     13  C   UNL     1     -56.726 -62.115  40.883  0.00  0.00    +0.000 A 
ATOM     14  C   UNL     1     -55.694 -62.954  41.303  0.00  0.00    +0.000 A 
ATOM     15  C   UNL     1     -56.434 -60.886  40.291  0.00  0.00    +0.000 A 
ATOM     16  C   UNL     1     -54.368 -62.565  41.132  0.00  0.00    +0.000 A 
ATOM     17  C   UNL     1     -55.109 -60.494  40.119  0.00  0.00    +0.000 A 
ATOM     18  C   UNL     1     -54.086 -61.337  40.541  0.00  0.00    +0.000 A 
BRANCH  18  19
ATOM     19  O   UNL     1     -52.796 -60.931  40.361  0.00  0.00    +0.000 OA
ATOM     20  H   UNL     1     -52.807 -60.012  40.040  0.00  0.00    +0.000 HD
ENDBRANCH  18  19
ENDBRANCH  12  13
ENDBRANCH   1  11
TORSDOF 5
ENDMDL
MODEL 2
REMARK VINA RESULT:      -6.8      6.540      9.437
REMARK  Name = 445154_Resveratrol.pdbqt.pdb
REMARK  5 active torsions:
REMARK  status: ('A' for Active; 'I' for Inactive)
REMARK    1  A    between atoms: C_1  and  C_11
REMARK    2  A    between atoms: C_4  and  O_7
REMARK    3  A    between atoms: C_5  and  O_9
REMARK    4  A    between atoms: C_12  and  C_13
REMARK    5  A    between atoms: C_18  and  O_19
REMARK                            x       y       z     vdW  Elec       q    Type
REMARK                         _______ _______ _______ _____ _____    ______ ____
ROOT
ATOM      1  C   UNL     1     -63.061 -66.121  38.104  0.00  0.00    +0.000 A 
ATOM      2  C   UNL     1     -63.470 -64.808  38.338  0.00  0.00    +0.000 A 
ATOM      3  C   UNL     1     -62.522 -66.883  39.140  0.00  0.00    +0.000 A 
ATOM      4  C   UNL     1     -62.398 -66.323  40.409  0.00  0.00    +0.000 A 
ATOM      5  C   UNL     1     -63.336 -64.267  39.612  0.00  0.00    +0.000 A 
ATOM      6  C   UNL     1     -62.802 -65.015  40.657  0.00  0.00    +0.000 A 
ENDROOT
BRANCH   4   7
ATOM      7  O   UNL     1     -61.875 -67.045  41.442  0.00  0.00    +0.000 OA
ATOM      8  H   UNL     1     -61.919 -67.989  41.205  0.00  0.00    +0.000 HD
ENDBRANCH   4   7
BRANCH   5   9
ATOM      9  O   UNL     1     -63.744 -62.980  39.818  0.00  0.00    +0.000 OA
ATOM     10  H   UNL     1     -62.950 -62.425  39.909  0.00  0.00    +0.000 HD
ENDBRANCH   5   9
BRANCH   1  11
ATOM     11  C   UNL     1     -63.192 -66.687  36.802  0.00  0.00    +0.000 C 
ATOM     12  C   UNL     1     -63.303 -67.163  35.704  0.00  0.00    +0.000 C 
BRANCH  12  13
ATOM     13  C   UNL     1     -63.434 -67.728  34.402  0.00  0.00    +0.000 A 
ATOM     14  C   UNL     1     -63.055 -69.051  34.177  0.00  0.00    +0.000 A 
ATOM     15  C   UNL     1     -63.940 -66.957  33.356  0.00  0.00    +0.000 A 
ATOM     16  C   UNL     1     -63.183 -69.605  32.906  0.00  0.00    +0.000 A 
ATOM     17  C   UNL     1     -64.069 -67.507  32.084  0.00  0.00    +0.000 A 
ATOM     18  C   UNL     1     -63.689 -68.827  31.869  0.00  0.00    +0.000 A 
BRANCH  18  19
ATOM     19  O   UNL     1     -63.824 -69.345  30.614  0.00  0.00    +0.000 OA
ATOM     20  H   UNL     1     -64.650 -69.002  30.230  0.00  0.00    +0.000 HD
ENDBRANCH  18  19
ENDBRANCH  12  13
ENDBRANCH   1  11
TORSDOF 5
ENDMDL
MODEL 3
REMARK VINA RESULT:      -6.6      5.621      8.565
REMARK  Name = 445154_Resveratrol.pdbqt.pdb
REMARK  5 active torsions:
REMARK  status: ('A' for Active; 'I' for Inactive)
REMARK    1  A    between atoms: C_1  and  C_11
REMARK    2  A    between atoms: C_4  and  O_7
REMARK    3  A    between atoms: C_5  and  O_9
REMARK    4  A    between atoms: C_12  and  C_13
REMARK    5  A    between atoms: C_18  and  O_19
REMARK                            x       y       z     vdW  Elec       q    Type
REMARK                         _______ _______ _______ _____ _____    ______ ____
ROOT
ATOM      1  C   UNL     1     -63.478 -66.653  36.159  0.00  0.00    +0.000 A 
ATOM      2  C   UNL     1     -62.796 -67.805  35.772  0.00  0.00    +0.000 A 
ATOM      3  C   UNL     1     -64.250 -65.950  35.235  0.00  0.00    +0.000 A 
ATOM      4  C   UNL     1     -64.333 -66.409  33.923  0.00  0.00    +0.000 A 
ATOM      5  C   UNL     1     -62.892 -68.246  34.456  0.00  0.00    +0.000 A 
ATOM      6  C   UNL     1     -63.658 -67.557  33.522  0.00  0.00    +0.000 A 
ENDROOT
BRANCH   4   7
ATOM      7  O   UNL     1     -65.082 -65.741  32.997  0.00  0.00    +0.000 OA
ATOM      8  H   UNL     1     -65.177 -66.313  32.215  0.00  0.00    +0.000 HD
ENDBRANCH   4   7
BRANCH   5   9
ATOM      9  O   UNL     1     -62.215 -69.377  34.100  0.00  0.00    +0.000 OA
ATOM     10  H   UNL     1     -61.721 -69.187  33.282  0.00  0.00    +0.000 HD
ENDBRANCH   5   9
BRANCH   1  11
ATOM     11  C   UNL     1     -63.387 -66.189  37.505  0.00  0.00    +0.000 C 
ATOM     12  C   UNL     1     -63.310 -65.799  38.639  0.00  0.00    +0.000 C 
BRANCH  12  13
ATOM     13  C   UNL     1     -63.218 -65.335  39.984  0.00  0.00    +0.000 A 
ATOM     14  C   UNL     1     -62.654 -64.087  40.252  0.00  0.00    +0.000 A 
ATOM     15  C   UNL     1     -63.691 -66.129  41.028  0.00  0.00    +0.000 A 
ATOM     16  C   UNL     1     -62.564 -63.632  41.564  0.00  0.00    +0.000 A 
ATOM     17  C   UNL     1     -63.602 -65.678  42.342  0.00  0.00    +0.000 A 
ATOM     18  C   UNL     1     -63.038 -64.432  42.599  0.00  0.00    +0.000 A 
BRANCH  18  19
ATOM     19  O   UNL     1     -62.962 -64.011  43.895  0.00  0.00    +0.000 OA
ATOM     20  H   UNL     1     -62.044 -64.121  44.198  0.00  0.00    +0.000 HD
ENDBRANCH  18  19
ENDBRANCH  12  13
ENDBRANCH   1  11
TORSDOF 5
ENDMDL
MODEL 4
REMARK VINA RESULT:      -5.9     10.944     13.988
REMARK  Name = 445154_Resveratrol.pdbqt.pdb
REMARK  5 active torsions:
REMARK  status: ('A' for Active; 'I' for Inactive)
REMARK    1  A    between atoms: C_1  and  C_11
REMARK    2  A    between atoms: C_4  and  O_7
REMARK    3  A    between atoms: C_5  and  O_9
REMARK    4  A    between atoms: C_12  and  C_13
REMARK    5  A    between atoms: C_18  and  O_19
REMARK                            x       y       z     vdW  Elec       q    Type
REMARK                         _______ _______ _______ _____ _____    ______ ____
ROOT
ATOM      1  C   UNL     1     -45.355 -64.111  41.111  0.00  0.00    +0.000 A 
ATOM      2  C   UNL     1     -45.651 -64.399  39.779  0.00  0.00    +0.000 A 
ATOM      3  C   UNL     1     -44.228 -64.669  41.715  0.00  0.00    +0.000 A 
ATOM      4  C   UNL     1     -43.403 -65.513  40.977  0.00  0.00    +0.000 A 
ATOM      5  C   UNL     1     -44.814 -65.246  39.060  0.00  0.00    +0.000 A 
ATOM      6  C   UNL     1     -43.686 -65.809  39.648  0.00  0.00    +0.000 A 
ENDROOT
BRANCH   4   7
ATOM      7  O   UNL     1     -42.294 -66.072  41.543  0.00  0.00    +0.000 OA
ATOM      8  H   UNL     1     -42.427 -66.105  42.507  0.00  0.00    +0.000 HD
ENDBRANCH   4   7
BRANCH   5   9
ATOM      9  O   UNL     1     -45.124 -65.513  37.757  0.00  0.00    +0.000 OA
ATOM     10  H   UNL     1     -44.293 -65.683  37.279  0.00  0.00    +0.000 HD
ENDBRANCH   5   9
BRANCH   1  11
ATOM     11  C   UNL     1     -46.206 -63.246  41.859  0.00  0.00    +0.000 C 
ATOM     12  C   UNL     1     -46.922 -62.516  42.490  0.00  0.00    +0.000 C 
BRANCH  12  13
ATOM     13  C   UNL     1     -47.772 -61.649  43.238  0.00  0.00    +0.000 A 
ATOM     14  C   UNL     1     -47.926 -61.841  44.611  0.00  0.00    +0.000 A 
ATOM     15  C   UNL     1     -48.449 -60.613  42.595  0.00  0.00    +0.000 A 
ATOM     16  C   UNL     1     -48.755 -60.997  45.343  0.00  0.00    +0.000 A 
ATOM     17  C   UNL     1     -49.279 -59.766  43.324  0.00  0.00    +0.000 A 
ATOM     18  C   UNL     1     -49.427 -59.965  44.693  0.00  0.00    +0.000 A 
BRANCH  18  19
ATOM     19  O   UNL     1     -50.246 -59.123  45.386  0.00  0.00    +0.000 OA
ATOM     20  H   UNL     1     -49.703 -58.405  45.756  0.00  0.00    +0.000 HD
ENDBRANCH  18  19
ENDBRANCH  12  13
ENDBRANCH   1  11
TORSDOF 5
ENDMDL
MODEL 5
REMARK VINA RESULT:      -5.9     28.224     29.149
REMARK  Name = 445154_Resveratrol.pdbqt.pdb
REMARK  5 active torsions:
REMARK  status: ('A' for Active; 'I' for Inactive)
REMARK    1  A    between atoms: C_1  and  C_11
REMARK    2  A    between atoms: C_4  and  O_7
REMARK    3  A    between atoms: C_5  and  O_9
REMARK    4  A    between atoms: C_12  and  C_13
REMARK    5  A    between atoms: C_18  and  O_19
REMARK                            x       y       z     vdW  Elec       q    Type
REMARK                         _______ _______ _______ _____ _____    ______ ____
ROOT
ATOM      1  C   UNL     1     -40.514 -42.071  47.546  0.00  0.00    +0.000 A 
ATOM      2  C   UNL     1     -39.572 -43.006  47.972  0.00  0.00    +0.000 A 
ATOM      3  C   UNL     1     -40.468 -41.572  46.245  0.00  0.00    +0.000 A 
ATOM      4  C   UNL     1     -39.473 -42.015  45.376  0.00  0.00    +0.000 A 
ATOM      5  C   UNL     1     -38.587 -43.436  47.089  0.00  0.00    +0.000 A 
ATOM      6  C   UNL     1     -38.527 -42.947  45.788  0.00  0.00    +0.000 A 
ENDROOT
BRANCH   4   7
ATOM      7  O   UNL     1     -39.404 -41.543  44.097  0.00  0.00    +0.000 OA
ATOM      8  H   UNL     1     -39.276 -40.579  44.136  0.00  0.00    +0.000 HD
ENDBRANCH   4   7
BRANCH   5   9
ATOM      9  O   UNL     1     -37.675 -44.352  47.529  0.00  0.00    +0.000 OA
ATOM     10  H   UNL     1     -38.164 -45.115  47.886  0.00  0.00    +0.000 HD
ENDBRANCH   5   9
BRANCH   1  11
ATOM     11  C   UNL     1     -41.529 -41.623  48.441  0.00  0.00    +0.000 C 
ATOM     12  C   UNL     1     -42.384 -41.245  49.196  0.00  0.00    +0.000 C 
BRANCH  12  13
ATOM     13  C   UNL     1     -43.399 -40.797  50.093  0.00  0.00    +0.000 A 
ATOM     14  C   UNL     1     -44.099 -39.622  49.819  0.00  0.00    +0.000 A 
ATOM     15  C   UNL     1     -43.688 -41.534  51.241  0.00  0.00    +0.000 A 
ATOM     16  C   UNL     1     -45.090 -39.183  50.692  0.00  0.00    +0.000 A 
ATOM     17  C   UNL     1     -44.678 -41.097  52.117  0.00  0.00    +0.000 A 
ATOM     18  C   UNL     1     -45.371 -39.925  51.836  0.00  0.00    +0.000 A 
BRANCH  18  19
ATOM     19  O   UNL     1     -46.337 -39.517  52.709  0.00  0.00    +0.000 OA
ATOM     20  H   UNL     1     -45.912 -38.992  53.410  0.00  0.00    +0.000 HD
ENDBRANCH  18  19
ENDBRANCH  12  13
ENDBRANCH   1  11
TORSDOF 5
ENDMDL
MODEL 6
REMARK VINA RESULT:      -5.7     11.640     14.383
REMARK  Name = 445154_Resveratrol.pdbqt.pdb
REMARK  5 active torsions:
REMARK  status: ('A' for Active; 'I' for Inactive)
REMARK    1  A    between atoms: C_1  and  C_11
REMARK    2  A    between atoms: C_4  and  O_7
REMARK    3  A    between atoms: C_5  and  O_9
REMARK    4  A    between atoms: C_12  and  C_13
REMARK    5  A    between atoms: C_18  and  O_19
REMARK                            x       y       z     vdW  Elec       q    Type
REMARK                         _______ _______ _______ _____ _____    ______ ____
ROOT
ATOM      1  C   UNL     1     -45.180 -65.436  39.510  0.00  0.00    +0.000 A 
ATOM      2  C   UNL     1     -45.411 -66.751  39.108  0.00  0.00    +0.000 A 
ATOM      3  C   UNL     1     -44.316 -65.168  40.571  0.00  0.00    +0.000 A 
ATOM      4  C   UNL     1     -43.686 -66.224  41.224  0.00  0.00    +0.000 A 
ATOM      5  C   UNL     1     -44.772 -67.792  39.774  0.00  0.00    +0.000 A 
ATOM      6  C   UNL     1     -43.906 -67.541  40.834  0.00  0.00    +0.000 A 
ENDROOT
BRANCH   4   7
ATOM      7  O   UNL     1     -42.834 -65.991  42.265  0.00  0.00    +0.000 OA
ATOM      8  H   UNL     1     -42.764 -66.809  42.788  0.00  0.00    +0.000 HD
ENDBRANCH   4   7
BRANCH   5   9
ATOM      9  O   UNL     1     -45.013 -69.071  39.363  0.00  0.00    +0.000 OA
ATOM     10  H   UNL     1     -44.711 -69.674  40.065  0.00  0.00    +0.000 HD
ENDBRANCH   5   9
BRANCH   1  11
ATOM     11  C   UNL     1     -45.830 -64.361  38.835  0.00  0.00    +0.000 C 
ATOM     12  C   UNL     1     -46.378 -63.455  38.268  0.00  0.00    +0.000 C 
BRANCH  12  13
ATOM     13  C   UNL     1     -47.028 -62.379  37.594  0.00  0.00    +0.000 A 
ATOM     14  C   UNL     1     -48.378 -62.124  37.833  0.00  0.00    +0.000 A 
ATOM     15  C   UNL     1     -46.312 -61.584  36.699  0.00  0.00    +0.000 A 
ATOM     16  C   UNL     1     -49.015 -61.074  37.177  0.00  0.00    +0.000 A 
ATOM     17  C   UNL     1     -46.946 -60.534  36.041  0.00  0.00    +0.000 A 
ATOM     18  C   UNL     1     -48.293 -60.287  36.285  0.00  0.00    +0.000 A 
BRANCH  18  19
ATOM     19  O   UNL     1     -48.891 -59.252  35.628  0.00  0.00    +0.000 OA
ATOM     20  H   UNL     1     -49.060 -59.529  34.711  0.00  0.00    +0.000 HD
ENDBRANCH  18  19
ENDBRANCH  12  13
ENDBRANCH   1  11
TORSDOF 5
ENDMDL
MODEL 7
REMARK VINA RESULT:      -5.6      6.734      9.459
REMARK  Name = 445154_Resveratrol.pdbqt.pdb
REMARK  5 active torsions:
REMARK  status: ('A' for Active; 'I' for Inactive)
REMARK    1  A    between atoms: C_1  and  C_11
REMARK    2  A    between atoms: C_4  and  O_7
REMARK    3  A    between atoms: C_5  and  O_9
REMARK    4  A    between atoms: C_12  and  C_13
REMARK    5  A    between atoms: C_18  and  O_19
REMARK                            x       y       z     vdW  Elec       q    Type
REMARK                         _______ _______ _______ _____ _____    ______ ____
ROOT
ATOM      1  C   UNL     1     -63.299 -67.764  34.648  0.00  0.00    +0.000 A 
ATOM      2  C   UNL     1     -63.106 -69.085  34.247  0.00  0.00    +0.000 A 
ATOM      3  C   UNL     1     -63.734 -66.809  33.730  0.00  0.00    +0.000 A 
ATOM      4  C   UNL     1     -63.974 -67.186  32.411  0.00  0.00    +0.000 A 
ATOM      5  C   UNL     1     -63.350 -69.442  32.925  0.00  0.00    +0.000 A 
ATOM      6  C   UNL     1     -63.785 -68.501  31.997  0.00  0.00    +0.000 A 
ENDROOT
BRANCH   4   7
ATOM      7  O   UNL     1     -64.400 -66.273  31.491  0.00  0.00    +0.000 OA
ATOM      8  H   UNL     1     -63.618 -65.908  31.040  0.00  0.00    +0.000 HD
ENDBRANCH   4   7
BRANCH   5   9
ATOM      9  O   UNL     1     -63.153 -70.741  32.556  0.00  0.00    +0.000 OA
ATOM     10  H   UNL     1     -62.593 -70.746  31.760  0.00  0.00    +0.000 HD
ENDBRANCH   5   9
BRANCH   1  11
ATOM     11  C   UNL     1     -63.052 -67.386  36.000  0.00  0.00    +0.000 C 
ATOM     12  C   UNL     1     -62.842 -67.067  37.140  0.00  0.00    +0.000 C 
BRANCH  12  13
ATOM     13  C   UNL     1     -62.594 -66.688  38.492  0.00  0.00    +0.000 A 
ATOM     14  C   UNL     1     -62.511 -65.338  38.831  0.00  0.00    +0.000 A 
ATOM     15  C   UNL     1     -62.435 -67.668  39.471  0.00  0.00    +0.000 A 
ATOM     16  C   UNL     1     -62.269 -64.965  40.150  0.00  0.00    +0.000 A 
ATOM     17  C   UNL     1     -62.192 -67.299  40.792  0.00  0.00    +0.000 A 
ATOM     18  C   UNL     1     -62.111 -65.950  41.121  0.00  0.00    +0.000 A 
BRANCH  18  19
ATOM     19  O   UNL     1     -61.873 -65.613  42.421  0.00  0.00    +0.000 OA
ATOM     20  H   UNL     1     -62.680 -65.791  42.935  0.00  0.00    +0.000 HD
ENDBRANCH  18  19
ENDBRANCH  12  13
ENDBRANCH   1  11
TORSDOF 5
ENDMDL
MODEL 8
REMARK VINA RESULT:      -5.6      8.388     10.995
REMARK  Name = 445154_Resveratrol.pdbqt.pdb
REMARK  5 active torsions:
REMARK  status: ('A' for Active; 'I' for Inactive)
REMARK    1  A    between atoms: C_1  and  C_11
REMARK    2  A    between atoms: C_4  and  O_7
REMARK    3  A    between atoms: C_5  and  O_9
REMARK    4  A    between atoms: C_12  and  C_13
REMARK    5  A    between atoms: C_18  and  O_19
REMARK                            x       y       z     vdW  Elec       q    Type
REMARK                         _______ _______ _______ _____ _____    ______ ____
ROOT
ATOM      1  C   UNL     1     -63.182 -69.158  33.204  0.00  0.00    +0.000 A 
ATOM      2  C   UNL     1     -62.712 -70.470  33.163  0.00  0.00    +0.000 A 
ATOM      3  C   UNL     1     -63.669 -68.550  32.047  0.00  0.00    +0.000 A 
ATOM      4  C   UNL     1     -63.683 -69.266  30.852  0.00  0.00    +0.000 A 
ATOM      5  C   UNL     1     -62.734 -71.167  31.959  0.00  0.00    +0.000 A 
ATOM      6  C   UNL     1     -63.218 -70.575  30.797  0.00  0.00    +0.000 A 
ENDROOT
BRANCH   4   7
ATOM      7  O   UNL     1     -64.154 -68.697  29.705  0.00  0.00    +0.000 OA
ATOM      8  H   UNL     1     -63.402 -68.298  29.232  0.00  0.00    +0.000 HD
ENDBRANCH   4   7
BRANCH   5   9
ATOM      9  O   UNL     1     -62.269 -72.450  31.944  0.00  0.00    +0.000 OA
ATOM     10  H   UNL     1     -61.628 -72.529  31.215  0.00  0.00    +0.000 HD
ENDBRANCH   5   9
BRANCH   1  11
ATOM     11  C   UNL     1     -63.165 -68.432  34.432  0.00  0.00    +0.000 C 
ATOM     12  C   UNL     1     -63.149 -67.821  35.466  0.00  0.00    +0.000 C 
BRANCH  12  13
ATOM     13  C   UNL     1     -63.131 -67.095  36.693  0.00  0.00    +0.000 A 
ATOM     14  C   UNL     1     -63.565 -65.769  36.722  0.00  0.00    +0.000 A 
ATOM     15  C   UNL     1     -62.679 -67.711  37.860  0.00  0.00    +0.000 A 
ATOM     16  C   UNL     1     -63.549 -65.059  37.919  0.00  0.00    +0.000 A 
ATOM     17  C   UNL     1     -62.661 -67.003  39.058  0.00  0.00    +0.000 A 
ATOM     18  C   UNL     1     -63.096 -65.682  39.078  0.00  0.00    +0.000 A 
BRANCH  18  19
ATOM     19  O   UNL     1     -63.069 -65.009  40.265  0.00  0.00    +0.000 OA
ATOM     20  H   UNL     1     -63.783 -65.355  40.829  0.00  0.00    +0.000 HD
ENDBRANCH  18  19
ENDBRANCH  12  13
ENDBRANCH   1  11
TORSDOF 5
ENDMDL
MODEL 9
REMARK VINA RESULT:      -5.5     15.640     17.914
REMARK  Name = 445154_Resveratrol.pdbqt.pdb
REMARK  5 active torsions:
REMARK  status: ('A' for Active; 'I' for Inactive)
REMARK    1  A    between atoms: C_1  and  C_11
REMARK    2  A    between atoms: C_4  and  O_7
REMARK    3  A    between atoms: C_5  and  O_9
REMARK    4  A    between atoms: C_12  and  C_13
REMARK    5  A    between atoms: C_18  and  O_19
REMARK                            x       y       z     vdW  Elec       q    Type
REMARK                         _______ _______ _______ _____ _____    ______ ____
ROOT
ATOM      1  C   UNL     1     -42.868 -57.462  36.429  0.00  0.00    +0.000 A 
ATOM      2  C   UNL     1     -43.802 -56.460  36.687  0.00  0.00    +0.000 A 
ATOM      3  C   UNL     1     -41.830 -57.239  35.525  0.00  0.00    +0.000 A 
ATOM      4  C   UNL     1     -41.735 -56.007  34.883  0.00  0.00    +0.000 A 
ATOM      5  C   UNL     1     -43.689 -55.236  36.034  0.00  0.00    +0.000 A 
ATOM      6  C   UNL     1     -42.659 -54.998  35.130  0.00  0.00    +0.000 A 
ENDROOT
BRANCH   4   7
ATOM      7  O   UNL     1     -40.730 -55.760  33.993  0.00  0.00    +0.000 OA
ATOM      8  H   UNL     1     -40.972 -56.164  33.141  0.00  0.00    +0.000 HD
ENDBRANCH   4   7
BRANCH   5   9
ATOM      9  O   UNL     1     -44.615 -54.269  36.303  0.00  0.00    +0.000 OA
ATOM     10  H   UNL     1     -45.370 -54.692  36.751  0.00  0.00    +0.000 HD
ENDBRANCH   5   9
BRANCH   1  11
ATOM     11  C   UNL     1     -42.973 -58.721  37.090  0.00  0.00    +0.000 C 
ATOM     12  C   UNL     1     -43.061 -59.782  37.648  0.00  0.00    +0.000 C 
BRANCH  12  13
ATOM     13  C   UNL     1     -43.166 -61.040  38.310  0.00  0.00    +0.000 A 
ATOM     14  C   UNL     1     -43.714 -61.108  39.591  0.00  0.00    +0.000 A 
ATOM     15  C   UNL     1     -42.721 -62.200  37.676  0.00  0.00    +0.000 A 
ATOM     16  C   UNL     1     -43.818 -62.335  40.240  0.00  0.00    +0.000 A 
ATOM     17  C   UNL     1     -42.824 -63.429  38.321  0.00  0.00    +0.000 A 
ATOM     18  C   UNL     1     -43.371 -63.487  39.599  0.00  0.00    +0.000 A 
BRANCH  18  19
ATOM     19  O   UNL     1     -43.461 -64.703  40.211  0.00  0.00    +0.000 OA
ATOM     20  H   UNL     1     -43.151 -64.607  41.128  0.00  0.00    +0.000 HD
ENDBRANCH  18  19
ENDBRANCH  12  13
ENDBRANCH   1  11
TORSDOF 5
ENDMDL
