MODEL 1
REMARK VINA RESULT:      -6.5      0.000      0.000
REMARK  Name = 448438_Violaxanthin.pdbqt.pdb
REMARK  16 active torsions:
REMARK  status: ('A' for Active; 'I' for Inactive)
REMARK    1  A    between atoms: C_1  and  C_5
REMARK    2  A    between atoms: C_2  and  C_27
REMARK    3  A    between atoms: C_3  and  C_5
REMARK    4  A    between atoms: C_3  and  C_7
REMARK    5  A    between atoms: C_6  and  C_10
REMARK    6  A    between atoms: C_8  and  C_10
REMARK    7  A    between atoms: C_8  and  C_12
REMARK    8  A    between atoms: C_11  and  C_14
REMARK    9  A    between atoms: C_19  and  O_23
REMARK   10  A    between atoms: C_25  and  C_27
REMARK   11  A    between atoms: C_25  and  C_29
REMARK   12  A    between atoms: C_28  and  C_32
REMARK   13  A    between atoms: C_30  and  C_32
REMARK   14  A    between atoms: C_30  and  C_34
REMARK   15  A    between atoms: C_33  and  C_36
REMARK   16  A    between atoms: C_41  and  O_45
REMARK                            x       y       z     vdW  Elec       q    Type
REMARK                         _______ _______ _______ _____ _____    ______ ____
ROOT
ATOM      1  C   UNL     1     -41.170 -56.765  35.428  0.00  0.00    +0.000 C 
ATOM      2  C   UNL     1     -42.071 -57.548  35.546  0.00  0.00    +0.000 C 
ENDROOT
BRANCH   2   3
ATOM      3  C   UNL     1     -43.224 -58.547  35.694  0.00  0.00    +0.000 C 
BRANCH   3   4
ATOM      4  C   UNL     1     -44.199 -59.392  35.817  0.00  0.00    +0.000 C 
ATOM      5  C   UNL     1     -45.294 -59.421  34.793  0.00  0.00    +0.000 C 
BRANCH   4   7
ATOM      6  C   UNL     1     -44.321 -60.955  37.911  0.00  0.00    +0.000 C 
ATOM      7  C   UNL     1     -44.265 -60.237  36.949  0.00  0.00    +0.000 C 
BRANCH   6   8
ATOM      8  C   UNL     1     -44.394 -61.869  39.140  0.00  0.00    +0.000 C 
BRANCH   8   9
ATOM      9  C   UNL     1     -44.456 -62.646  40.177  0.00  0.00    +0.000 C 
ATOM     10  C   UNL     1     -43.528 -63.816  40.290  0.00  0.00    +0.000 C 
BRANCH   9  12
ATOM     11  C   UNL     1     -46.044 -62.042  42.170  0.00  0.00    +0.000 C 
ATOM     12  C   UNL     1     -45.313 -62.315  41.256  0.00  0.00    +0.000 C 
BRANCH  11  14
ATOM     13  O   UNL     1     -47.639 -62.942  43.686  0.00  0.00    +0.000 OA
ATOM     14  C   UNL     1     -46.941 -61.733  43.274  0.00  0.00    +0.000 C 
ATOM     15  C   UNL     1     -46.723 -62.412  44.643  0.00  0.00    +0.000 C 
ATOM     16  C   UNL     1     -47.790 -60.418  43.233  0.00  0.00    +0.000 C 
ATOM     17  C   UNL     1     -47.392 -61.835  45.763  0.00  0.00    +0.000 C 
ATOM     18  C   UNL     1     -48.377 -60.231  44.568  0.00  0.00    +0.000 C 
ATOM     19  C   UNL     1     -48.281 -60.753  45.873  0.00  0.00    +0.000 C 
ATOM     20  C   UNL     1     -45.542 -63.341  44.936  0.00  0.00    +0.000 C 
ATOM     21  C   UNL     1     -46.793 -59.277  42.921  0.00  0.00    +0.000 C 
ATOM     22  C   UNL     1     -48.850 -60.611  42.128  0.00  0.00    +0.000 C 
BRANCH  19  23
ATOM     23  O   UNL     1     -49.338 -60.782  46.731  0.00  0.00    +0.000 OA
ATOM     24  H   UNL     1     -50.161 -61.082  46.306  0.00  0.00    +0.000 HD
ENDBRANCH  19  23
ENDBRANCH  11  14
ENDBRANCH   9  12
ENDBRANCH   8   9
ENDBRANCH   6   8
ENDBRANCH   4   7
ENDBRANCH   3   4
ENDBRANCH   2   3
BRANCH   1  25
ATOM     25  C   UNL     1     -40.017 -55.765  35.278  0.00  0.00    +0.000 C 
BRANCH  25  26
ATOM     26  C   UNL     1     -39.042 -54.920  35.152  0.00  0.00    +0.000 C 
ATOM     27  C   UNL     1     -39.338 -53.481  34.849  0.00  0.00    +0.000 C 
BRANCH  26  29
ATOM     28  C   UNL     1     -36.571 -55.711  35.476  0.00  0.00    +0.000 C 
ATOM     29  C   UNL     1     -37.706 -55.348  35.325  0.00  0.00    +0.000 C 
BRANCH  28  30
ATOM     30  C   UNL     1     -35.121 -56.170  35.674  0.00  0.00    +0.000 C 
BRANCH  30  31
ATOM     31  C   UNL     1     -33.894 -56.553  35.844  0.00  0.00    +0.000 C 
ATOM     32  C   UNL     1     -32.771 -55.733  35.285  0.00  0.00    +0.000 C 
BRANCH  31  34
ATOM     33  C   UNL     1     -33.374 -58.710  37.237  0.00  0.00    +0.000 C 
ATOM     34  C   UNL     1     -33.616 -57.720  36.598  0.00  0.00    +0.000 C 
BRANCH  33  36
ATOM     35  O   UNL     1     -32.280 -60.825  37.209  0.00  0.00    +0.000 OA
ATOM     36  C   UNL     1     -33.075 -59.906  38.011  0.00  0.00    +0.000 C 
ATOM     37  C   UNL     1     -31.608 -60.259  38.334  0.00  0.00    +0.000 C 
ATOM     38  C   UNL     1     -34.201 -60.551  38.896  0.00  0.00    +0.000 C 
ATOM     39  C   UNL     1     -31.381 -61.219  39.365  0.00  0.00    +0.000 C 
ATOM     40  C   UNL     1     -33.552 -61.527  39.773  0.00  0.00    +0.000 C 
ATOM     41  C   UNL     1     -32.269 -61.962  40.160  0.00  0.00    +0.000 C 
ATOM     42  C   UNL     1     -30.419 -59.377  37.947  0.00  0.00    +0.000 C 
ATOM     43  C   UNL     1     -35.215 -61.177  37.910  0.00  0.00    +0.000 C 
ATOM     44  C   UNL     1     -34.809 -59.384  39.715  0.00  0.00    +0.000 C 
BRANCH  41  45
ATOM     45  O   UNL     1     -31.996 -62.303  41.450  0.00  0.00    +0.000 OA
ATOM     46  H   UNL     1     -31.683 -63.222  41.533  0.00  0.00    +0.000 HD
ENDBRANCH  41  45
ENDBRANCH  33  36
ENDBRANCH  31  34
ENDBRANCH  30  31
ENDBRANCH  28  30
ENDBRANCH  26  29
ENDBRANCH  25  26
ENDBRANCH   1  25
TORSDOF 16
ENDMDL
MODEL 2
REMARK VINA RESULT:      -6.5     21.538     26.130
REMARK  Name = 448438_Violaxanthin.pdbqt.pdb
REMARK  16 active torsions:
REMARK  status: ('A' for Active; 'I' for Inactive)
REMARK    1  A    between atoms: C_1  and  C_5
REMARK    2  A    between atoms: C_2  and  C_27
REMARK    3  A    between atoms: C_3  and  C_5
REMARK    4  A    between atoms: C_3  and  C_7
REMARK    5  A    between atoms: C_6  and  C_10
REMARK    6  A    between atoms: C_8  and  C_10
REMARK    7  A    between atoms: C_8  and  C_12
REMARK    8  A    between atoms: C_11  and  C_14
REMARK    9  A    between atoms: C_19  and  O_23
REMARK   10  A    between atoms: C_25  and  C_27
REMARK   11  A    between atoms: C_25  and  C_29
REMARK   12  A    between atoms: C_28  and  C_32
REMARK   13  A    between atoms: C_30  and  C_32
REMARK   14  A    between atoms: C_30  and  C_34
REMARK   15  A    between atoms: C_33  and  C_36
REMARK   16  A    between atoms: C_41  and  O_45
REMARK                            x       y       z     vdW  Elec       q    Type
REMARK                         _______ _______ _______ _____ _____    ______ ____
ROOT
ATOM      1  C   UNL     1     -52.008 -35.459  46.020  0.00  0.00    +0.000 C 
ATOM      2  C   UNL     1     -51.697 -35.247  47.159  0.00  0.00    +0.000 C 
ENDROOT
BRANCH   2   3
ATOM      3  C   UNL     1     -51.298 -34.973  48.614  0.00  0.00    +0.000 C 
BRANCH   3   4
ATOM      4  C   UNL     1     -50.963 -34.740  49.844  0.00  0.00    +0.000 C 
ATOM      5  C   UNL     1     -51.480 -33.516  50.538  0.00  0.00    +0.000 C 
BRANCH   4   7
ATOM      6  C   UNL     1     -49.287 -36.332  51.067  0.00  0.00    +0.000 C 
ATOM      7  C   UNL     1     -50.056 -35.601  50.505  0.00  0.00    +0.000 C 
BRANCH   6   8
ATOM      8  C   UNL     1     -48.306 -37.267  51.786  0.00  0.00    +0.000 C 
BRANCH   8   9
ATOM      9  C   UNL     1     -47.474 -38.055  52.393  0.00  0.00    +0.000 C 
ATOM     10  C   UNL     1     -47.756 -38.502  53.795  0.00  0.00    +0.000 C 
BRANCH   9  12
ATOM     11  C   UNL     1     -45.424 -39.032  51.088  0.00  0.00    +0.000 C 
ATOM     12  C   UNL     1     -46.366 -38.588  51.689  0.00  0.00    +0.000 C 
BRANCH  11  14
ATOM     13  O   UNL     1     -43.117 -39.587  51.225  0.00  0.00    +0.000 OA
ATOM     14  C   UNL     1     -44.280 -39.547  50.351  0.00  0.00    +0.000 C 
ATOM     15  C   UNL     1     -43.609 -40.860  50.808  0.00  0.00    +0.000 C 
ATOM     16  C   UNL     1     -44.029 -39.068  48.881  0.00  0.00    +0.000 C 
ATOM     17  C   UNL     1     -42.734 -41.496  49.878  0.00  0.00    +0.000 C 
ATOM     18  C   UNL     1     -42.996 -39.939  48.304  0.00  0.00    +0.000 C 
ATOM     19  C   UNL     1     -42.305 -41.133  48.590  0.00  0.00    +0.000 C 
ATOM     20  C   UNL     1     -44.145 -41.714  51.960  0.00  0.00    +0.000 C 
ATOM     21  C   UNL     1     -45.372 -39.262  48.136  0.00  0.00    +0.000 C 
ATOM     22  C   UNL     1     -43.596 -37.588  48.967  0.00  0.00    +0.000 C 
BRANCH  19  23
ATOM     23  O   UNL     1     -41.030 -41.362  48.172  0.00  0.00    +0.000 OA
ATOM     24  H   UNL     1     -40.801 -42.309  48.161  0.00  0.00    +0.000 HD
ENDBRANCH  19  23
ENDBRANCH  11  14
ENDBRANCH   9  12
ENDBRANCH   8   9
ENDBRANCH   6   8
ENDBRANCH   4   7
ENDBRANCH   3   4
ENDBRANCH   2   3
BRANCH   1  25
ATOM     25  C   UNL     1     -52.406 -35.731  44.564  0.00  0.00    +0.000 C 
BRANCH  25  26
ATOM     26  C   UNL     1     -52.742 -35.962  43.334  0.00  0.00    +0.000 C 
ATOM     27  C   UNL     1     -53.307 -34.854  42.496  0.00  0.00    +0.000 C 
BRANCH  26  29
ATOM     28  C   UNL     1     -52.388 -38.339  42.305  0.00  0.00    +0.000 C 
ATOM     29  C   UNL     1     -52.553 -37.247  42.777  0.00  0.00    +0.000 C 
BRANCH  28  30
ATOM     30  C   UNL     1     -52.171 -39.733  41.701  0.00  0.00    +0.000 C 
BRANCH  30  31
ATOM     31  C   UNL     1     -51.985 -40.912  41.196  0.00  0.00    +0.000 C 
ATOM     32  C   UNL     1     -51.262 -41.958  41.987  0.00  0.00    +0.000 C 
BRANCH  31  34
ATOM     33  C   UNL     1     -52.945 -41.489  38.827  0.00  0.00    +0.000 C 
ATOM     34  C   UNL     1     -52.507 -41.223  39.916  0.00  0.00    +0.000 C 
BRANCH  33  36
ATOM     35  O   UNL     1     -54.683 -42.610  37.647  0.00  0.00    +0.000 OA
ATOM     36  C   UNL     1     -53.471 -41.815  37.510  0.00  0.00    +0.000 C 
ATOM     37  C   UNL     1     -54.868 -41.306  37.098  0.00  0.00    +0.000 C 
ATOM     38  C   UNL     1     -52.479 -42.251  36.372  0.00  0.00    +0.000 C 
ATOM     39  C   UNL     1     -55.193 -41.346  35.709  0.00  0.00    +0.000 C 
ATOM     40  C   UNL     1     -53.229 -42.219  35.114  0.00  0.00    +0.000 C 
ATOM     41  C   UNL     1     -54.472 -41.808  34.595  0.00  0.00    +0.000 C 
ATOM     42  C   UNL     1     -55.731 -40.397  37.976  0.00  0.00    +0.000 C 
ATOM     43  C   UNL     1     -51.974 -43.659  36.761  0.00  0.00    +0.000 C 
ATOM     44  C   UNL     1     -51.349 -41.190  36.374  0.00  0.00    +0.000 C 
BRANCH  41  45
ATOM     45  O   UNL     1     -54.571 -41.235  33.364  0.00  0.00    +0.000 OA
ATOM     46  H   UNL     1     -55.372 -41.518  32.886  0.00  0.00    +0.000 HD
ENDBRANCH  41  45
ENDBRANCH  33  36
ENDBRANCH  31  34
ENDBRANCH  30  31
ENDBRANCH  28  30
ENDBRANCH  26  29
ENDBRANCH  25  26
ENDBRANCH   1  25
TORSDOF 16
ENDMDL
MODEL 3
REMARK VINA RESULT:      -6.5     12.194     19.033
REMARK  Name = 448438_Violaxanthin.pdbqt.pdb
REMARK  16 active torsions:
REMARK  status: ('A' for Active; 'I' for Inactive)
REMARK    1  A    between atoms: C_1  and  C_5
REMARK    2  A    between atoms: C_2  and  C_27
REMARK    3  A    between atoms: C_3  and  C_5
REMARK    4  A    between atoms: C_3  and  C_7
REMARK    5  A    between atoms: C_6  and  C_10
REMARK    6  A    between atoms: C_8  and  C_10
REMARK    7  A    between atoms: C_8  and  C_12
REMARK    8  A    between atoms: C_11  and  C_14
REMARK    9  A    between atoms: C_19  and  O_23
REMARK   10  A    between atoms: C_25  and  C_27
REMARK   11  A    between atoms: C_25  and  C_29
REMARK   12  A    between atoms: C_28  and  C_32
REMARK   13  A    between atoms: C_30  and  C_32
REMARK   14  A    between atoms: C_30  and  C_34
REMARK   15  A    between atoms: C_33  and  C_36
REMARK   16  A    between atoms: C_41  and  O_45
REMARK                            x       y       z     vdW  Elec       q    Type
REMARK                         _______ _______ _______ _____ _____    ______ ____
ROOT
ATOM      1  C   UNL     1     -46.956 -66.654  28.136  0.00  0.00    +0.000 C 
ATOM      2  C   UNL     1     -46.471 -66.701  27.040  0.00  0.00    +0.000 C 
ENDROOT
BRANCH   2   3
ATOM      3  C   UNL     1     -45.848 -66.759  25.641  0.00  0.00    +0.000 C 
BRANCH   3   4
ATOM      4  C   UNL     1     -45.321 -66.810  24.458  0.00  0.00    +0.000 C 
ATOM      5  C   UNL     1     -45.141 -68.134  23.778  0.00  0.00    +0.000 C 
BRANCH   4   7
ATOM      6  C   UNL     1     -44.456 -64.622  23.315  0.00  0.00    +0.000 C 
ATOM      7  C   UNL     1     -44.853 -65.627  23.840  0.00  0.00    +0.000 C 
BRANCH   6   8
ATOM      8  C   UNL     1     -43.947 -63.340  22.644  0.00  0.00    +0.000 C 
BRANCH   8   9
ATOM      9  C   UNL     1     -43.519 -62.256  22.074  0.00  0.00    +0.000 C 
ATOM     10  C   UNL     1     -43.424 -60.986  22.862  0.00  0.00    +0.000 C 
BRANCH   9  12
ATOM     11  C   UNL     1     -42.606 -62.354  19.621  0.00  0.00    +0.000 C 
ATOM     12  C   UNL     1     -43.027 -62.305  20.746  0.00  0.00    +0.000 C 
BRANCH  11  14
ATOM     13  O   UNL     1     -40.655 -62.708  18.310  0.00  0.00    +0.000 OA
ATOM     14  C   UNL     1     -42.084 -62.434  18.265  0.00  0.00    +0.000 C 
ATOM     15  C   UNL     1     -41.458 -63.755  17.767  0.00  0.00    +0.000 C 
ATOM     16  C   UNL     1     -42.562 -61.399  17.192  0.00  0.00    +0.000 C 
ATOM     17  C   UNL     1     -41.280 -63.895  16.359  0.00  0.00    +0.000 C 
ATOM     18  C   UNL     1     -42.099 -61.877  15.882  0.00  0.00    +0.000 C 
ATOM     19  C   UNL     1     -41.528 -63.020  15.288  0.00  0.00    +0.000 C 
ATOM     20  C   UNL     1     -41.436 -65.036  18.606  0.00  0.00    +0.000 C 
ATOM     21  C   UNL     1     -44.109 -61.408  17.251  0.00  0.00    +0.000 C 
ATOM     22  C   UNL     1     -41.951 -60.038  17.590  0.00  0.00    +0.000 C 
BRANCH  19  23
ATOM     23  O   UNL     1     -40.693 -62.951  14.215  0.00  0.00    +0.000 OA
ATOM     24  H   UNL     1     -41.027 -62.362  13.515  0.00  0.00    +0.000 HD
ENDBRANCH  19  23
ENDBRANCH  11  14
ENDBRANCH   9  12
ENDBRANCH   8   9
ENDBRANCH   6   8
ENDBRANCH   4   7
ENDBRANCH   3   4
ENDBRANCH   2   3
BRANCH   1  25
ATOM     25  C   UNL     1     -47.579 -66.596  29.537  0.00  0.00    +0.000 C 
BRANCH  25  26
ATOM     26  C   UNL     1     -48.105 -66.546  30.720  0.00  0.00    +0.000 C 
ATOM     27  C   UNL     1     -48.902 -67.708  31.231  0.00  0.00    +0.000 C 
BRANCH  26  29
ATOM     28  C   UNL     1     -47.735 -64.445  32.232  0.00  0.00    +0.000 C 
ATOM     29  C   UNL     1     -47.906 -65.409  31.536  0.00  0.00    +0.000 C 
BRANCH  28  30
ATOM     30  C   UNL     1     -47.513 -63.217  33.125  0.00  0.00    +0.000 C 
BRANCH  30  31
ATOM     31  C   UNL     1     -47.324 -62.178  33.877  0.00  0.00    +0.000 C 
ATOM     32  C   UNL     1     -47.779 -60.829  33.413  0.00  0.00    +0.000 C 
BRANCH  31  34
ATOM     33  C   UNL     1     -46.223 -62.451  36.238  0.00  0.00    +0.000 C 
ATOM     34  C   UNL     1     -46.730 -62.328  35.154  0.00  0.00    +0.000 C 
BRANCH  33  36
ATOM     35  O   UNL     1     -44.209 -62.970  37.399  0.00  0.00    +0.000 OA
ATOM     36  C   UNL     1     -45.608 -62.593  37.550  0.00  0.00    +0.000 C 
ATOM     37  C   UNL     1     -44.435 -61.672  37.946  0.00  0.00    +0.000 C 
ATOM     38  C   UNL     1     -46.401 -63.313  38.698  0.00  0.00    +0.000 C 
ATOM     39  C   UNL     1     -44.099 -61.604  39.332  0.00  0.00    +0.000 C 
ATOM     40  C   UNL     1     -45.687 -63.044  39.948  0.00  0.00    +0.000 C 
ATOM     41  C   UNL     1     -44.629 -62.264  40.453  0.00  0.00    +0.000 C 
ATOM     42  C   UNL     1     -43.908 -60.541  37.059  0.00  0.00    +0.000 C 
ATOM     43  C   UNL     1     -46.446 -64.810  38.315  0.00  0.00    +0.000 C 
ATOM     44  C   UNL     1     -47.806 -62.657  38.709  0.00  0.00    +0.000 C 
BRANCH  41  45
ATOM     45  O   UNL     1     -44.700 -61.685  41.684  0.00  0.00    +0.000 OA
ATOM     46  H   UNL     1     -44.592 -60.717  41.646  0.00  0.00    +0.000 HD
ENDBRANCH  41  45
ENDBRANCH  33  36
ENDBRANCH  31  34
ENDBRANCH  30  31
ENDBRANCH  28  30
ENDBRANCH  26  29
ENDBRANCH  25  26
ENDBRANCH   1  25
TORSDOF 16
ENDMDL
MODEL 4
REMARK VINA RESULT:      -6.4      9.659     16.371
REMARK  Name = 448438_Violaxanthin.pdbqt.pdb
REMARK  16 active torsions:
REMARK  status: ('A' for Active; 'I' for Inactive)
REMARK    1  A    between atoms: C_1  and  C_5
REMARK    2  A    between atoms: C_2  and  C_27
REMARK    3  A    between atoms: C_3  and  C_5
REMARK    4  A    between atoms: C_3  and  C_7
REMARK    5  A    between atoms: C_6  and  C_10
REMARK    6  A    between atoms: C_8  and  C_10
REMARK    7  A    between atoms: C_8  and  C_12
REMARK    8  A    between atoms: C_11  and  C_14
REMARK    9  A    between atoms: C_19  and  O_23
REMARK   10  A    between atoms: C_25  and  C_27
REMARK   11  A    between atoms: C_25  and  C_29
REMARK   12  A    between atoms: C_28  and  C_32
REMARK   13  A    between atoms: C_30  and  C_32
REMARK   14  A    between atoms: C_30  and  C_34
REMARK   15  A    between atoms: C_33  and  C_36
REMARK   16  A    between atoms: C_41  and  O_45
REMARK                            x       y       z     vdW  Elec       q    Type
REMARK                         _______ _______ _______ _____ _____    ______ ____
ROOT
ATOM      1  C   UNL     1     -47.053 -66.992  28.300  0.00  0.00    +0.000 C 
ATOM      2  C   UNL     1     -46.577 -67.090  27.203  0.00  0.00    +0.000 C 
ENDROOT
BRANCH   2   3
ATOM      3  C   UNL     1     -45.967 -67.213  25.802  0.00  0.00    +0.000 C 
BRANCH   3   4
ATOM      4  C   UNL     1     -45.450 -67.320  24.618  0.00  0.00    +0.000 C 
ATOM      5  C   UNL     1     -45.269 -68.675  24.003  0.00  0.00    +0.000 C 
BRANCH   4   7
ATOM      6  C   UNL     1     -44.610 -65.186  23.361  0.00  0.00    +0.000 C 
ATOM      7  C   UNL     1     -44.996 -66.166  23.938  0.00  0.00    +0.000 C 
BRANCH   6   8
ATOM      8  C   UNL     1     -44.118 -63.933  22.625  0.00  0.00    +0.000 C 
BRANCH   8   9
ATOM      9  C   UNL     1     -43.699 -62.875  22.004  0.00  0.00    +0.000 C 
ATOM     10  C   UNL     1     -43.305 -62.961  20.561  0.00  0.00    +0.000 C 
BRANCH   9  12
ATOM     11  C   UNL     1     -43.761 -60.553  23.216  0.00  0.00    +0.000 C 
ATOM     12  C   UNL     1     -43.731 -61.616  22.655  0.00  0.00    +0.000 C 
BRANCH  11  14
ATOM     13  O   UNL     1     -44.404 -59.463  25.227  0.00  0.00    +0.000 OA
ATOM     14  C   UNL     1     -43.806 -59.277  23.914  0.00  0.00    +0.000 C 
ATOM     15  C   UNL     1     -43.023 -59.105  25.233  0.00  0.00    +0.000 C 
ATOM     16  C   UNL     1     -44.224 -57.985  23.134  0.00  0.00    +0.000 C 
ATOM     17  C   UNL     1     -42.816 -57.770  25.692  0.00  0.00    +0.000 C 
ATOM     18  C   UNL     1     -43.918 -56.834  23.995  0.00  0.00    +0.000 C 
ATOM     19  C   UNL     1     -43.235 -56.527  25.188  0.00  0.00    +0.000 C 
ATOM     20  C   UNL     1     -42.114 -60.192  25.813  0.00  0.00    +0.000 C 
ATOM     21  C   UNL     1     -43.343 -57.953  21.861  0.00  0.00    +0.000 C 
ATOM     22  C   UNL     1     -45.729 -58.126  22.823  0.00  0.00    +0.000 C 
BRANCH  19  23
ATOM     23  O   UNL     1     -43.618 -55.514  26.014  0.00  0.00    +0.000 OA
ATOM     24  H   UNL     1     -42.987 -54.772  26.018  0.00  0.00    +0.000 HD
ENDBRANCH  19  23
ENDBRANCH  11  14
ENDBRANCH   9  12
ENDBRANCH   8   9
ENDBRANCH   6   8
ENDBRANCH   4   7
ENDBRANCH   3   4
ENDBRANCH   2   3
BRANCH   1  25
ATOM     25  C   UNL     1     -47.664 -66.868  29.701  0.00  0.00    +0.000 C 
BRANCH  25  26
ATOM     26  C   UNL     1     -48.179 -66.762  30.886  0.00  0.00    +0.000 C 
ATOM     27  C   UNL     1     -48.991 -67.890  31.448  0.00  0.00    +0.000 C 
BRANCH  26  29
ATOM     28  C   UNL     1     -47.762 -64.610  32.311  0.00  0.00    +0.000 C 
ATOM     29  C   UNL     1     -47.955 -65.598  31.655  0.00  0.00    +0.000 C 
BRANCH  28  30
ATOM     30  C   UNL     1     -47.513 -63.353  33.154  0.00  0.00    +0.000 C 
BRANCH  30  31
ATOM     31  C   UNL     1     -47.300 -62.289  33.863  0.00  0.00    +0.000 C 
ATOM     32  C   UNL     1     -47.724 -60.949  33.344  0.00  0.00    +0.000 C 
BRANCH  31  34
ATOM     33  C   UNL     1     -46.212 -62.489  36.238  0.00  0.00    +0.000 C 
ATOM     34  C   UNL     1     -46.712 -62.400  35.147  0.00  0.00    +0.000 C 
BRANCH  33  36
ATOM     35  O   UNL     1     -44.203 -62.945  37.432  0.00  0.00    +0.000 OA
ATOM     36  C   UNL     1     -45.610 -62.592  37.559  0.00  0.00    +0.000 C 
ATOM     37  C   UNL     1     -44.459 -61.640  37.948  0.00  0.00    +0.000 C 
ATOM     38  C   UNL     1     -46.404 -63.301  38.713  0.00  0.00    +0.000 C 
ATOM     39  C   UNL     1     -44.142 -61.536  39.336  0.00  0.00    +0.000 C 
ATOM     40  C   UNL     1     -45.709 -62.992  39.965  0.00  0.00    +0.000 C 
ATOM     41  C   UNL     1     -44.672 -62.182  40.465  0.00  0.00    +0.000 C 
ATOM     42  C   UNL     1     -43.943 -60.519  37.043  0.00  0.00    +0.000 C 
ATOM     43  C   UNL     1     -46.416 -64.807  38.362  0.00  0.00    +0.000 C 
ATOM     44  C   UNL     1     -47.821 -62.672  38.694  0.00  0.00    +0.000 C 
BRANCH  41  45
ATOM     45  O   UNL     1     -44.768 -61.578  41.682  0.00  0.00    +0.000 OA
ATOM     46  H   UNL     1     -45.146 -60.681  41.623  0.00  0.00    +0.000 HD
ENDBRANCH  41  45
ENDBRANCH  33  36
ENDBRANCH  31  34
ENDBRANCH  30  31
ENDBRANCH  28  30
ENDBRANCH  26  29
ENDBRANCH  25  26
ENDBRANCH   1  25
TORSDOF 16
ENDMDL
MODEL 5
REMARK VINA RESULT:      -6.3      3.000      5.726
REMARK  Name = 448438_Violaxanthin.pdbqt.pdb
REMARK  16 active torsions:
REMARK  status: ('A' for Active; 'I' for Inactive)
REMARK    1  A    between atoms: C_1  and  C_5
REMARK    2  A    between atoms: C_2  and  C_27
REMARK    3  A    between atoms: C_3  and  C_5
REMARK    4  A    between atoms: C_3  and  C_7
REMARK    5  A    between atoms: C_6  and  C_10
REMARK    6  A    between atoms: C_8  and  C_10
REMARK    7  A    between atoms: C_8  and  C_12
REMARK    8  A    between atoms: C_11  and  C_14
REMARK    9  A    between atoms: C_19  and  O_23
REMARK   10  A    between atoms: C_25  and  C_27
REMARK   11  A    between atoms: C_25  and  C_29
REMARK   12  A    between atoms: C_28  and  C_32
REMARK   13  A    between atoms: C_30  and  C_32
REMARK   14  A    between atoms: C_30  and  C_34
REMARK   15  A    between atoms: C_33  and  C_36
REMARK   16  A    between atoms: C_41  and  O_45
REMARK                            x       y       z     vdW  Elec       q    Type
REMARK                         _______ _______ _______ _____ _____    ______ ____
ROOT
ATOM      1  C   UNL     1     -37.698 -56.145  35.439  0.00  0.00    +0.000 C 
ATOM      2  C   UNL     1     -38.890 -56.020  35.386  0.00  0.00    +0.000 C 
ENDROOT
BRANCH   2   3
ATOM      3  C   UNL     1     -40.413 -55.863  35.318  0.00  0.00    +0.000 C 
BRANCH   3   4
ATOM      4  C   UNL     1     -41.702 -55.732  35.261  0.00  0.00    +0.000 C 
ATOM      5  C   UNL     1     -42.302 -54.394  34.950  0.00  0.00    +0.000 C 
BRANCH   4   7
ATOM      6  C   UNL     1     -43.249 -57.768  35.812  0.00  0.00    +0.000 C 
ATOM      7  C   UNL     1     -42.538 -56.833  35.558  0.00  0.00    +0.000 C 
BRANCH   6   8
ATOM      8  C   UNL     1     -44.154 -58.963  36.135  0.00  0.00    +0.000 C 
BRANCH   8   9
ATOM      9  C   UNL     1     -44.917 -59.976  36.408  0.00  0.00    +0.000 C 
ATOM     10  C   UNL     1     -46.193 -60.176  35.650  0.00  0.00    +0.000 C 
BRANCH   9  12
ATOM     11  C   UNL     1     -44.115 -61.794  38.115  0.00  0.00    +0.000 C 
ATOM     12  C   UNL     1     -44.482 -60.956  37.335  0.00  0.00    +0.000 C 
BRANCH  11  14
ATOM     13  O   UNL     1     -42.971 -62.210  40.156  0.00  0.00    +0.000 OA
ATOM     14  C   UNL     1     -43.678 -62.826  39.043  0.00  0.00    +0.000 C 
ATOM     15  C   UNL     1     -44.215 -62.824  40.490  0.00  0.00    +0.000 C 
ATOM     16  C   UNL     1     -43.073 -64.159  38.486  0.00  0.00    +0.000 C 
ATOM     17  C   UNL     1     -44.037 -64.021  41.246  0.00  0.00    +0.000 C 
ATOM     18  C   UNL     1     -42.981 -65.103  39.608  0.00  0.00    +0.000 C 
ATOM     19  C   UNL     1     -43.407 -65.239  40.944  0.00  0.00    +0.000 C 
ATOM     20  C   UNL     1     -45.269 -61.832  40.988  0.00  0.00    +0.000 C 
ATOM     21  C   UNL     1     -44.082 -64.676  37.432  0.00  0.00    +0.000 C 
ATOM     22  C   UNL     1     -41.699 -63.801  37.881  0.00  0.00    +0.000 C 
BRANCH  19  23
ATOM     23  O   UNL     1     -42.690 -65.923  41.878  0.00  0.00    +0.000 OA
ATOM     24  H   UNL     1     -41.840 -65.495  42.088  0.00  0.00    +0.000 HD
ENDBRANCH  19  23
ENDBRANCH  11  14
ENDBRANCH   9  12
ENDBRANCH   8   9
ENDBRANCH   6   8
ENDBRANCH   4   7
ENDBRANCH   3   4
ENDBRANCH   2   3
BRANCH   1  25
ATOM     25  C   UNL     1     -36.174 -56.303  35.506  0.00  0.00    +0.000 C 
BRANCH  25  26
ATOM     26  C   UNL     1     -34.886 -56.437  35.564  0.00  0.00    +0.000 C 
ATOM     27  C   UNL     1     -34.005 -55.515  34.776  0.00  0.00    +0.000 C 
BRANCH  26  29
ATOM     28  C   UNL     1     -33.830 -58.283  37.085  0.00  0.00    +0.000 C 
ATOM     29  C   UNL     1     -34.314 -57.434  36.387  0.00  0.00    +0.000 C 
BRANCH  28  30
ATOM     30  C   UNL     1     -33.218 -59.373  37.975  0.00  0.00    +0.000 C 
BRANCH  30  31
ATOM     31  C   UNL     1     -32.705 -60.295  38.728  0.00  0.00    +0.000 C 
ATOM     32  C   UNL     1     -31.545 -61.103  38.233  0.00  0.00    +0.000 C 
BRANCH  31  34
ATOM     33  C   UNL     1     -33.641 -60.686  41.143  0.00  0.00    +0.000 C 
ATOM     34  C   UNL     1     -33.211 -60.503  40.035  0.00  0.00    +0.000 C 
BRANCH  33  36
ATOM     35  O   UNL     1     -35.059 -59.830  42.854  0.00  0.00    +0.000 OA
ATOM     36  C   UNL     1     -34.158 -60.913  42.485  0.00  0.00    +0.000 C 
ATOM     37  C   UNL     1     -35.675 -61.107  42.695  0.00  0.00    +0.000 C 
ATOM     38  C   UNL     1     -33.187 -61.423  43.608  0.00  0.00    +0.000 C 
ATOM     39  C   UNL     1     -36.094 -61.664  43.940  0.00  0.00    +0.000 C 
ATOM     40  C   UNL     1     -34.019 -61.845  44.737  0.00  0.00    +0.000 C 
ATOM     41  C   UNL     1     -35.369 -62.059  45.077  0.00  0.00    +0.000 C 
ATOM     42  C   UNL     1     -36.690 -61.150  41.550  0.00  0.00    +0.000 C 
ATOM     43  C   UNL     1     -32.249 -60.238  43.934  0.00  0.00    +0.000 C 
ATOM     44  C   UNL     1     -32.432 -62.629  42.992  0.00  0.00    +0.000 C 
BRANCH  41  45
ATOM     45  O   UNL     1     -35.744 -63.105  45.864  0.00  0.00    +0.000 OA
ATOM     46  H   UNL     1     -36.708 -63.139  46.002  0.00  0.00    +0.000 HD
ENDBRANCH  41  45
ENDBRANCH  33  36
ENDBRANCH  31  34
ENDBRANCH  30  31
ENDBRANCH  28  30
ENDBRANCH  26  29
ENDBRANCH  25  26
ENDBRANCH   1  25
TORSDOF 16
ENDMDL
MODEL 6
REMARK VINA RESULT:      -6.3      6.917     11.314
REMARK  Name = 448438_Violaxanthin.pdbqt.pdb
REMARK  16 active torsions:
REMARK  status: ('A' for Active; 'I' for Inactive)
REMARK    1  A    between atoms: C_1  and  C_5
REMARK    2  A    between atoms: C_2  and  C_27
REMARK    3  A    between atoms: C_3  and  C_5
REMARK    4  A    between atoms: C_3  and  C_7
REMARK    5  A    between atoms: C_6  and  C_10
REMARK    6  A    between atoms: C_8  and  C_10
REMARK    7  A    between atoms: C_8  and  C_12
REMARK    8  A    between atoms: C_11  and  C_14
REMARK    9  A    between atoms: C_19  and  O_23
REMARK   10  A    between atoms: C_25  and  C_27
REMARK   11  A    between atoms: C_25  and  C_29
REMARK   12  A    between atoms: C_28  and  C_32
REMARK   13  A    between atoms: C_30  and  C_32
REMARK   14  A    between atoms: C_30  and  C_34
REMARK   15  A    between atoms: C_33  and  C_36
REMARK   16  A    between atoms: C_41  and  O_45
REMARK                            x       y       z     vdW  Elec       q    Type
REMARK                         _______ _______ _______ _____ _____    ______ ____
ROOT
ATOM      1  C   UNL     1     -42.697 -57.320  36.183  0.00  0.00    +0.000 C 
ATOM      2  C   UNL     1     -42.728 -58.395  36.716  0.00  0.00    +0.000 C 
ENDROOT
BRANCH   2   3
ATOM      3  C   UNL     1     -42.766 -59.769  37.394  0.00  0.00    +0.000 C 
BRANCH   3   4
ATOM      4  C   UNL     1     -42.798 -60.932  37.966  0.00  0.00    +0.000 C 
ATOM      5  C   UNL     1     -42.016 -62.070  37.383  0.00  0.00    +0.000 C 
BRANCH   4   7
ATOM      6  C   UNL     1     -44.323 -61.322  40.055  0.00  0.00    +0.000 C 
ATOM      7  C   UNL     1     -43.622 -61.142  39.095  0.00  0.00    +0.000 C 
BRANCH   6   8
ATOM      8  C   UNL     1     -45.219 -61.550  41.278  0.00  0.00    +0.000 C 
BRANCH   8   9
ATOM      9  C   UNL     1     -45.978 -61.739  42.313  0.00  0.00    +0.000 C 
ATOM     10  C   UNL     1     -45.458 -62.509  43.489  0.00  0.00    +0.000 C 
BRANCH   9  12
ATOM     11  C   UNL     1     -48.324 -60.581  42.428  0.00  0.00    +0.000 C 
ATOM     12  C   UNL     1     -47.248 -61.115  42.380  0.00  0.00    +0.000 C 
BRANCH  11  14
ATOM     13  O   UNL     1     -50.584 -60.783  43.137  0.00  0.00    +0.000 OA
ATOM     14  C   UNL     1     -49.621 -59.922  42.467  0.00  0.00    +0.000 C 
ATOM     15  C   UNL     1     -50.260 -59.578  43.830  0.00  0.00    +0.000 C 
ATOM     16  C   UNL     1     -50.134 -59.154  41.202  0.00  0.00    +0.000 C 
ATOM     17  C   UNL     1     -51.339 -58.646  43.821  0.00  0.00    +0.000 C 
ATOM     18  C   UNL     1     -51.311 -58.373  41.608  0.00  0.00    +0.000 C 
ATOM     19  C   UNL     1     -51.997 -57.979  42.774  0.00  0.00    +0.000 C 
ATOM     20  C   UNL     1     -49.552 -59.817  45.167  0.00  0.00    +0.000 C 
ATOM     21  C   UNL     1     -48.982 -58.209  40.781  0.00  0.00    +0.000 C 
ATOM     22  C   UNL     1     -50.455 -60.224  40.137  0.00  0.00    +0.000 C 
BRANCH  19  23
ATOM     23  O   UNL     1     -53.341 -57.764  42.798  0.00  0.00    +0.000 OA
ATOM     24  H   UNL     1     -53.689 -57.650  43.701  0.00  0.00    +0.000 HD
ENDBRANCH  19  23
ENDBRANCH  11  14
ENDBRANCH   9  12
ENDBRANCH   8   9
ENDBRANCH   6   8
ENDBRANCH   4   7
ENDBRANCH   3   4
ENDBRANCH   2   3
BRANCH   1  25
ATOM     25  C   UNL     1     -42.659 -55.946  35.503  0.00  0.00    +0.000 C 
BRANCH  25  26
ATOM     26  C   UNL     1     -42.627 -54.785  34.928  0.00  0.00    +0.000 C 
ATOM     27  C   UNL     1     -42.373 -53.555  35.747  0.00  0.00    +0.000 C 
BRANCH  26  29
ATOM     28  C   UNL     1     -42.957 -54.591  32.341  0.00  0.00    +0.000 C 
ATOM     29  C   UNL     1     -42.804 -54.682  33.529  0.00  0.00    +0.000 C 
BRANCH  28  30
ATOM     30  C   UNL     1     -43.158 -54.471  30.825  0.00  0.00    +0.000 C 
BRANCH  30  31
ATOM     31  C   UNL     1     -43.331 -54.367  29.545  0.00  0.00    +0.000 C 
ATOM     32  C   UNL     1     -43.278 -55.590  28.682  0.00  0.00    +0.000 C 
BRANCH  31  34
ATOM     33  C   UNL     1     -43.856 -52.029  28.485  0.00  0.00    +0.000 C 
ATOM     34  C   UNL     1     -43.618 -53.103  28.971  0.00  0.00    +0.000 C 
BRANCH  33  36
ATOM     35  O   UNL     1     -45.247 -50.099  28.599  0.00  0.00    +0.000 OA
ATOM     36  C   UNL     1     -44.138 -50.728  27.895  0.00  0.00    +0.000 C 
ATOM     37  C   UNL     1     -43.984 -49.453  28.751  0.00  0.00    +0.000 C 
ATOM     38  C   UNL     1     -44.130 -50.574  26.333  0.00  0.00    +0.000 C 
ATOM     39  C   UNL     1     -43.928 -48.207  28.058  0.00  0.00    +0.000 C 
ATOM     40  C   UNL     1     -44.139 -49.138  26.043  0.00  0.00    +0.000 C 
ATOM     41  C   UNL     1     -44.021 -47.894  26.692  0.00  0.00    +0.000 C 
ATOM     42  C   UNL     1     -43.471 -49.457  30.193  0.00  0.00    +0.000 C 
ATOM     43  C   UNL     1     -45.382 -51.321  25.821  0.00  0.00    +0.000 C 
ATOM     44  C   UNL     1     -42.808 -51.229  25.856  0.00  0.00    +0.000 C 
BRANCH  41  45
ATOM     45  O   UNL     1     -43.341 -46.860  26.124  0.00  0.00    +0.000 OA
ATOM     46  H   UNL     1     -42.417 -46.811  26.429  0.00  0.00    +0.000 HD
ENDBRANCH  41  45
ENDBRANCH  33  36
ENDBRANCH  31  34
ENDBRANCH  30  31
ENDBRANCH  28  30
ENDBRANCH  26  29
ENDBRANCH  25  26
ENDBRANCH   1  25
TORSDOF 16
ENDMDL
MODEL 7
REMARK VINA RESULT:      -6.3     11.926     18.716
REMARK  Name = 448438_Violaxanthin.pdbqt.pdb
REMARK  16 active torsions:
REMARK  status: ('A' for Active; 'I' for Inactive)
REMARK    1  A    between atoms: C_1  and  C_5
REMARK    2  A    between atoms: C_2  and  C_27
REMARK    3  A    between atoms: C_3  and  C_5
REMARK    4  A    between atoms: C_3  and  C_7
REMARK    5  A    between atoms: C_6  and  C_10
REMARK    6  A    between atoms: C_8  and  C_10
REMARK    7  A    between atoms: C_8  and  C_12
REMARK    8  A    between atoms: C_11  and  C_14
REMARK    9  A    between atoms: C_19  and  O_23
REMARK   10  A    between atoms: C_25  and  C_27
REMARK   11  A    between atoms: C_25  and  C_29
REMARK   12  A    between atoms: C_28  and  C_32
REMARK   13  A    between atoms: C_30  and  C_32
REMARK   14  A    between atoms: C_30  and  C_34
REMARK   15  A    between atoms: C_33  and  C_36
REMARK   16  A    between atoms: C_41  and  O_45
REMARK                            x       y       z     vdW  Elec       q    Type
REMARK                         _______ _______ _______ _____ _____    ______ ____
ROOT
ATOM      1  C   UNL     1     -47.052 -66.588  28.438  0.00  0.00    +0.000 C 
ATOM      2  C   UNL     1     -46.560 -66.586  27.343  0.00  0.00    +0.000 C 
ENDROOT
BRANCH   2   3
ATOM      3  C   UNL     1     -45.932 -66.586  25.945  0.00  0.00    +0.000 C 
BRANCH   3   4
ATOM      4  C   UNL     1     -45.402 -66.588  24.762  0.00  0.00    +0.000 C 
ATOM      5  C   UNL     1     -45.249 -67.880  24.016  0.00  0.00    +0.000 C 
BRANCH   4   7
ATOM      6  C   UNL     1     -44.485 -64.364  23.735  0.00  0.00    +0.000 C 
ATOM      7  C   UNL     1     -44.906 -65.386  24.207  0.00  0.00    +0.000 C 
BRANCH   6   8
ATOM      8  C   UNL     1     -43.949 -63.060  23.132  0.00  0.00    +0.000 C 
BRANCH   8   9
ATOM      9  C   UNL     1     -43.499 -61.956  22.620  0.00  0.00    +0.000 C 
ATOM     10  C   UNL     1     -43.201 -60.788  23.509  0.00  0.00    +0.000 C 
BRANCH   9  12
ATOM     11  C   UNL     1     -42.906 -61.842  20.072  0.00  0.00    +0.000 C 
ATOM     12  C   UNL     1     -43.176 -61.899  21.242  0.00  0.00    +0.000 C 
BRANCH  11  14
ATOM     13  O   UNL     1     -43.822 -61.834  17.878  0.00  0.00    +0.000 OA
ATOM     14  C   UNL     1     -42.593 -61.754  18.653  0.00  0.00    +0.000 C 
ATOM     15  C   UNL     1     -43.149 -60.577  17.823  0.00  0.00    +0.000 C 
ATOM     16  C   UNL     1     -41.359 -62.533  18.085  0.00  0.00    +0.000 C 
ATOM     17  C   UNL     1     -42.550 -60.344  16.550  0.00  0.00    +0.000 C 
ATOM     18  C   UNL     1     -41.125 -62.050  16.717  0.00  0.00    +0.000 C 
ATOM     19  C   UNL     1     -41.540 -61.022  15.848  0.00  0.00    +0.000 C 
ATOM     20  C   UNL     1     -43.954 -59.428  18.439  0.00  0.00    +0.000 C 
ATOM     21  C   UNL     1     -40.164 -62.162  18.997  0.00  0.00    +0.000 C 
ATOM     22  C   UNL     1     -41.719 -64.033  18.145  0.00  0.00    +0.000 C 
BRANCH  19  23
ATOM     23  O   UNL     1     -41.594 -61.181  14.496  0.00  0.00    +0.000 OA
ATOM     24  H   UNL     1     -42.505 -61.162  14.151  0.00  0.00    +0.000 HD
ENDBRANCH  19  23
ENDBRANCH  11  14
ENDBRANCH   9  12
ENDBRANCH   8   9
ENDBRANCH   6   8
ENDBRANCH   4   7
ENDBRANCH   3   4
ENDBRANCH   2   3
BRANCH   1  25
ATOM     25  C   UNL     1     -47.680 -66.589  29.837  0.00  0.00    +0.000 C 
BRANCH  25  26
ATOM     26  C   UNL     1     -48.210 -66.590  31.019  0.00  0.00    +0.000 C 
ATOM     27  C   UNL     1     -49.051 -67.751  31.458  0.00  0.00    +0.000 C 
BRANCH  26  29
ATOM     28  C   UNL     1     -47.777 -64.596  32.654  0.00  0.00    +0.000 C 
ATOM     29  C   UNL     1     -47.974 -65.511  31.902  0.00  0.00    +0.000 C 
BRANCH  28  30
ATOM     30  C   UNL     1     -47.531 -63.427  33.617  0.00  0.00    +0.000 C 
BRANCH  30  31
ATOM     31  C   UNL     1     -47.329 -62.439  34.431  0.00  0.00    +0.000 C 
ATOM     32  C   UNL     1     -47.977 -61.113  34.173  0.00  0.00    +0.000 C 
BRANCH  31  34
ATOM     33  C   UNL     1     -45.860 -62.784  36.573  0.00  0.00    +0.000 C 
ATOM     34  C   UNL     1     -46.534 -62.628  35.588  0.00  0.00    +0.000 C 
BRANCH  33  36
ATOM     35  O   UNL     1     -44.961 -61.713  38.501  0.00  0.00    +0.000 OA
ATOM     36  C   UNL     1     -45.050 -62.968  37.768  0.00  0.00    +0.000 C 
ATOM     37  C   UNL     1     -45.682 -62.753  39.159  0.00  0.00    +0.000 C 
ATOM     38  C   UNL     1     -43.731 -63.816  37.680  0.00  0.00    +0.000 C 
ATOM     39  C   UNL     1     -44.974 -63.272  40.284  0.00  0.00    +0.000 C 
ATOM     40  C   UNL     1     -43.300 -64.083  39.054  0.00  0.00    +0.000 C 
ATOM     41  C   UNL     1     -43.744 -63.944  40.383  0.00  0.00    +0.000 C 
ATOM     42  C   UNL     1     -47.161 -62.420  39.376  0.00  0.00    +0.000 C 
ATOM     43  C   UNL     1     -42.729 -62.967  36.866  0.00  0.00    +0.000 C 
ATOM     44  C   UNL     1     -44.127 -65.129  36.957  0.00  0.00    +0.000 C 
BRANCH  41  45
ATOM     45  O   UNL     1     -43.503 -64.906  41.316  0.00  0.00    +0.000 OA
ATOM     46  H   UNL     1     -43.787 -64.638  42.209  0.00  0.00    +0.000 HD
ENDBRANCH  41  45
ENDBRANCH  33  36
ENDBRANCH  31  34
ENDBRANCH  30  31
ENDBRANCH  28  30
ENDBRANCH  26  29
ENDBRANCH  25  26
ENDBRANCH   1  25
TORSDOF 16
ENDMDL
MODEL 8
REMARK VINA RESULT:      -6.3     14.357     21.663
REMARK  Name = 448438_Violaxanthin.pdbqt.pdb
REMARK  16 active torsions:
REMARK  status: ('A' for Active; 'I' for Inactive)
REMARK    1  A    between atoms: C_1  and  C_5
REMARK    2  A    between atoms: C_2  and  C_27
REMARK    3  A    between atoms: C_3  and  C_5
REMARK    4  A    between atoms: C_3  and  C_7
REMARK    5  A    between atoms: C_6  and  C_10
REMARK    6  A    between atoms: C_8  and  C_10
REMARK    7  A    between atoms: C_8  and  C_12
REMARK    8  A    between atoms: C_11  and  C_14
REMARK    9  A    between atoms: C_19  and  O_23
REMARK   10  A    between atoms: C_25  and  C_27
REMARK   11  A    between atoms: C_25  and  C_29
REMARK   12  A    between atoms: C_28  and  C_32
REMARK   13  A    between atoms: C_30  and  C_32
REMARK   14  A    between atoms: C_30  and  C_34
REMARK   15  A    between atoms: C_33  and  C_36
REMARK   16  A    between atoms: C_41  and  O_45
REMARK                            x       y       z     vdW  Elec       q    Type
REMARK                         _______ _______ _______ _____ _____    ______ ____
ROOT
ATOM      1  C   UNL     1     -44.206 -74.628  49.281  0.00  0.00    +0.000 C 
ATOM      2  C   UNL     1     -43.389 -74.868  50.125  0.00  0.00    +0.000 C 
ENDROOT
BRANCH   2   3
ATOM      3  C   UNL     1     -42.343 -75.176  51.203  0.00  0.00    +0.000 C 
BRANCH   3   4
ATOM      4  C   UNL     1     -41.459 -75.435  52.114  0.00  0.00    +0.000 C 
ATOM      5  C   UNL     1     -41.759 -76.446  53.179  0.00  0.00    +0.000 C 
BRANCH   4   7
ATOM      6  C   UNL     1     -39.208 -74.102  52.168  0.00  0.00    +0.000 C 
ATOM      7  C   UNL     1     -40.242 -74.714  52.143  0.00  0.00    +0.000 C 
BRANCH   6   8
ATOM      8  C   UNL     1     -37.887 -73.323  52.199  0.00  0.00    +0.000 C 
BRANCH   8   9
ATOM      9  C   UNL     1     -36.772 -72.661  52.226  0.00  0.00    +0.000 C 
ATOM     10  C   UNL     1     -35.837 -72.822  53.385  0.00  0.00    +0.000 C 
BRANCH   9  12
ATOM     11  C   UNL     1     -36.050 -71.225  50.158  0.00  0.00    +0.000 C 
ATOM     12  C   UNL     1     -36.386 -71.885  51.105  0.00  0.00    +0.000 C 
BRANCH  11  14
ATOM     13  O   UNL     1     -36.010 -69.035  49.235  0.00  0.00    +0.000 OA
ATOM     14  C   UNL     1     -35.622 -70.422  49.023  0.00  0.00    +0.000 C 
ATOM     15  C   UNL     1     -34.604 -69.281  49.239  0.00  0.00    +0.000 C 
ATOM     16  C   UNL     1     -35.800 -70.981  47.571  0.00  0.00    +0.000 C 
ATOM     17  C   UNL     1     -33.964 -68.758  48.077  0.00  0.00    +0.000 C 
ATOM     18  C   UNL     1     -35.045 -70.103  46.666  0.00  0.00    +0.000 C 
ATOM     19  C   UNL     1     -34.108 -69.052  46.710  0.00  0.00    +0.000 C 
ATOM     20  C   UNL     1     -33.941 -68.999  50.590  0.00  0.00    +0.000 C 
ATOM     21  C   UNL     1     -35.180 -72.399  47.583  0.00  0.00    +0.000 C 
ATOM     22  C   UNL     1     -37.316 -70.988  47.284  0.00  0.00    +0.000 C 
BRANCH  19  23
ATOM     23  O   UNL     1     -34.049 -68.079  45.760  0.00  0.00    +0.000 OA
ATOM     24  H   UNL     1     -33.568 -67.287  46.061  0.00  0.00    +0.000 HD
ENDBRANCH  19  23
ENDBRANCH  11  14
ENDBRANCH   9  12
ENDBRANCH   8   9
ENDBRANCH   6   8
ENDBRANCH   4   7
ENDBRANCH   3   4
ENDBRANCH   2   3
BRANCH   1  25
ATOM     25  C   UNL     1     -45.252 -74.320  48.202  0.00  0.00    +0.000 C 
BRANCH  25  26
ATOM     26  C   UNL     1     -46.136 -74.061  47.291  0.00  0.00    +0.000 C 
ATOM     27  C   UNL     1     -46.958 -72.810  47.383  0.00  0.00    +0.000 C 
BRANCH  26  29
ATOM     28  C   UNL     1     -46.455 -75.693  45.272  0.00  0.00    +0.000 C 
ATOM     29  C   UNL     1     -46.307 -74.942  46.198  0.00  0.00    +0.000 C 
BRANCH  28  30
ATOM     30  C   UNL     1     -46.648 -76.655  44.094  0.00  0.00    +0.000 C 
BRANCH  30  31
ATOM     31  C   UNL     1     -46.814 -77.471  43.100  0.00  0.00    +0.000 C 
ATOM     32  C   UNL     1     -45.832 -78.579  42.871  0.00  0.00    +0.000 C 
BRANCH  31  34
ATOM     33  C   UNL     1     -48.912 -77.237  41.547  0.00  0.00    +0.000 C 
ATOM     34  C   UNL     1     -47.950 -77.344  42.263  0.00  0.00    +0.000 C 
BRANCH  33  36
ATOM     35  O   UNL     1     -50.554 -78.438  40.309  0.00  0.00    +0.000 OA
ATOM     36  C   UNL     1     -50.072 -77.114  40.678  0.00  0.00    +0.000 C 
ATOM     37  C   UNL     1     -51.433 -77.679  41.138  0.00  0.00    +0.000 C 
ATOM     38  C   UNL     1     -50.069 -76.034  39.539  0.00  0.00    +0.000 C 
ATOM     39  C   UNL     1     -52.593 -77.239  40.433  0.00  0.00    +0.000 C 
ATOM     40  C   UNL     1     -51.443 -75.932  39.040  0.00  0.00    +0.000 C 
ATOM     41  C   UNL     1     -52.746 -76.378  39.333  0.00  0.00    +0.000 C 
ATOM     42  C   UNL     1     -51.667 -78.313  42.511  0.00  0.00    +0.000 C 
ATOM     43  C   UNL     1     -49.057 -76.529  38.481  0.00  0.00    +0.000 C 
ATOM     44  C   UNL     1     -49.625 -74.712  40.217  0.00  0.00    +0.000 C 
BRANCH  41  45
ATOM     45  O   UNL     1     -53.825 -75.562  39.180  0.00  0.00    +0.000 OA
ATOM     46  H   UNL     1     -54.213 -75.622  38.287  0.00  0.00    +0.000 HD
ENDBRANCH  41  45
ENDBRANCH  33  36
ENDBRANCH  31  34
ENDBRANCH  30  31
ENDBRANCH  28  30
ENDBRANCH  26  29
ENDBRANCH  25  26
ENDBRANCH   1  25
TORSDOF 16
ENDMDL
MODEL 9
REMARK VINA RESULT:      -6.2     11.700     18.715
REMARK  Name = 448438_Violaxanthin.pdbqt.pdb
REMARK  16 active torsions:
REMARK  status: ('A' for Active; 'I' for Inactive)
REMARK    1  A    between atoms: C_1  and  C_5
REMARK    2  A    between atoms: C_2  and  C_27
REMARK    3  A    between atoms: C_3  and  C_5
REMARK    4  A    between atoms: C_3  and  C_7
REMARK    5  A    between atoms: C_6  and  C_10
REMARK    6  A    between atoms: C_8  and  C_10
REMARK    7  A    between atoms: C_8  and  C_12
REMARK    8  A    between atoms: C_11  and  C_14
REMARK    9  A    between atoms: C_19  and  O_23
REMARK   10  A    between atoms: C_25  and  C_27
REMARK   11  A    between atoms: C_25  and  C_29
REMARK   12  A    between atoms: C_28  and  C_32
REMARK   13  A    between atoms: C_30  and  C_32
REMARK   14  A    between atoms: C_30  and  C_34
REMARK   15  A    between atoms: C_33  and  C_36
REMARK   16  A    between atoms: C_41  and  O_45
REMARK                            x       y       z     vdW  Elec       q    Type
REMARK                         _______ _______ _______ _____ _____    ______ ____
ROOT
ATOM      1  C   UNL     1     -46.904 -66.380  28.269  0.00  0.00    +0.000 C 
ATOM      2  C   UNL     1     -46.394 -66.296  27.185  0.00  0.00    +0.000 C 
ENDROOT
BRANCH   2   3
ATOM      3  C   UNL     1     -45.741 -66.188  25.803  0.00  0.00    +0.000 C 
BRANCH   3   4
ATOM      4  C   UNL     1     -45.189 -66.099  24.634  0.00  0.00    +0.000 C 
ATOM      5  C   UNL     1     -44.987 -67.335  23.809  0.00  0.00    +0.000 C 
BRANCH   4   7
ATOM      6  C   UNL     1     -44.314 -63.790  23.772  0.00  0.00    +0.000 C 
ATOM      7  C   UNL     1     -44.716 -64.850  24.168  0.00  0.00    +0.000 C 
BRANCH   6   8
ATOM      8  C   UNL     1     -43.800 -62.436  23.266  0.00  0.00    +0.000 C 
BRANCH   8   9
ATOM      9  C   UNL     1     -43.367 -61.292  22.836  0.00  0.00    +0.000 C 
ATOM     10  C   UNL     1     -43.147 -60.166  23.799  0.00  0.00    +0.000 C 
BRANCH   9  12
ATOM     11  C   UNL     1     -42.661 -61.033  20.327  0.00  0.00    +0.000 C 
ATOM     12  C   UNL     1     -42.987 -61.147  21.478  0.00  0.00    +0.000 C 
BRANCH  11  14
ATOM     13  O   UNL     1     -40.930 -61.489  18.763  0.00  0.00    +0.000 OA
ATOM     14  C   UNL     1     -42.257 -60.917  18.933  0.00  0.00    +0.000 C 
ATOM     15  C   UNL     1     -41.985 -62.195  18.111  0.00  0.00    +0.000 C 
ATOM     16  C   UNL     1     -42.549 -59.591  18.153  0.00  0.00    +0.000 C 
ATOM     17  C   UNL     1     -41.932 -62.052  16.693  0.00  0.00    +0.000 C 
ATOM     18  C   UNL     1     -42.293 -59.852  16.730  0.00  0.00    +0.000 C 
ATOM     19  C   UNL     1     -42.038 -60.928  15.857  0.00  0.00    +0.000 C 
ATOM     20  C   UNL     1     -42.207 -63.606  18.664  0.00  0.00    +0.000 C 
ATOM     21  C   UNL     1     -44.050 -59.286  18.380  0.00  0.00    +0.000 C 
ATOM     22  C   UNL     1     -41.618 -58.514  18.749  0.00  0.00    +0.000 C 
BRANCH  19  23
ATOM     23  O   UNL     1     -41.279 -60.800  14.734  0.00  0.00    +0.000 OA
ATOM     24  H   UNL     1     -41.653 -60.165  14.097  0.00  0.00    +0.000 HD
ENDBRANCH  19  23
ENDBRANCH  11  14
ENDBRANCH   9  12
ENDBRANCH   8   9
ENDBRANCH   6   8
ENDBRANCH   4   7
ENDBRANCH   3   4
ENDBRANCH   2   3
BRANCH   1  25
ATOM     25  C   UNL     1     -47.556 -66.487  29.652  0.00  0.00    +0.000 C 
BRANCH  25  26
ATOM     26  C   UNL     1     -48.108 -66.577  30.821  0.00  0.00    +0.000 C 
ATOM     27  C   UNL     1     -49.039 -67.713  31.121  0.00  0.00    +0.000 C 
BRANCH  26  29
ATOM     28  C   UNL     1     -47.558 -64.811  32.670  0.00  0.00    +0.000 C 
ATOM     29  C   UNL     1     -47.811 -65.621  31.820  0.00  0.00    +0.000 C 
BRANCH  28  30
ATOM     30  C   UNL     1     -47.233 -63.782  33.761  0.00  0.00    +0.000 C 
BRANCH  30  31
ATOM     31  C   UNL     1     -46.954 -62.911  34.679  0.00  0.00    +0.000 C 
ATOM     32  C   UNL     1     -47.083 -61.448  34.383  0.00  0.00    +0.000 C 
BRANCH  31  34
ATOM     33  C   UNL     1     -46.255 -63.717  37.072  0.00  0.00    +0.000 C 
ATOM     34  C   UNL     1     -46.576 -63.344  35.974  0.00  0.00    +0.000 C 
BRANCH  33  36
ATOM     35  O   UNL     1     -46.685 -65.308  38.790  0.00  0.00    +0.000 OA
ATOM     36  C   UNL     1     -45.862 -64.173  38.397  0.00  0.00    +0.000 C 
ATOM     37  C   UNL     1     -45.304 -65.600  38.578  0.00  0.00    +0.000 C 
ATOM     38  C   UNL     1     -45.559 -63.114  39.516  0.00  0.00    +0.000 C 
ATOM     39  C   UNL     1     -44.619 -65.881  39.798  0.00  0.00    +0.000 C 
ATOM     40  C   UNL     1     -44.910 -63.828  40.618  0.00  0.00    +0.000 C 
ATOM     41  C   UNL     1     -44.367 -65.089  40.930  0.00  0.00    +0.000 C 
ATOM     42  C   UNL     1     -45.062 -66.569  37.418  0.00  0.00    +0.000 C 
ATOM     43  C   UNL     1     -46.921 -62.488  39.895  0.00  0.00    +0.000 C 
ATOM     44  C   UNL     1     -44.591 -62.089  38.870  0.00  0.00    +0.000 C 
BRANCH  41  45
ATOM     45  O   UNL     1     -43.234 -65.209  41.676  0.00  0.00    +0.000 OA
ATOM     46  H   UNL     1     -43.412 -65.165  42.633  0.00  0.00    +0.000 HD
ENDBRANCH  41  45
ENDBRANCH  33  36
ENDBRANCH  31  34
ENDBRANCH  30  31
ENDBRANCH  28  30
ENDBRANCH  26  29
ENDBRANCH  25  26
ENDBRANCH   1  25
TORSDOF 16
ENDMDL
