MODEL 1
REMARK VINA RESULT:      -8.0      0.000      0.000
REMARK  Name = 490561_Nocardiopsis.pdbqt.pdb
REMARK  3 active torsions:
REMARK  status: ('A' for Active; 'I' for Inactive)
REMARK    1  A    between atoms: C_7  and  O_32
REMARK    2  A    between atoms: C_7  and  C_35
REMARK    3  A    between atoms: C_35  and  O_36
REMARK                            x       y       z     vdW  Elec       q    Type
REMARK                         _______ _______ _______ _____ _____    ______ ____
ROOT
ATOM      1  O   UNL     1     -43.633 -64.829  37.952  0.00  0.00    +0.000 OA
ATOM      2  O   UNL     1     -49.367 -60.857  35.110  0.00  0.00    +0.000 OA
ATOM      3  N   UNL     1     -45.304 -64.054  39.434  0.00  0.00    +0.000 N 
ATOM      4  N   UNL     1     -45.425 -64.574  36.481  0.00  0.00    +0.000 N 
ATOM      5  N   UNL     1     -49.472 -60.305  37.363  0.00  0.00    +0.000 N 
ATOM      6  C   UNL     1     -44.260 -65.084  39.258  0.00  0.00    +0.000 C 
ATOM      7  C   UNL     1     -44.845 -66.555  39.123  0.00  0.00    +0.000 C 
ATOM      8  C   UNL     1     -44.497 -65.442  37.028  0.00  0.00    +0.000 C 
ATOM      9  C   UNL     1     -45.006 -66.596  37.673  0.00  0.00    +0.000 C 
ATOM     10  C   UNL     1     -46.064 -63.378  38.513  0.00  0.00    +0.000 A 
ATOM     11  C   UNL     1     -46.116 -63.601  37.137  0.00  0.00    +0.000 A 
ATOM     12  C   UNL     1     -46.966 -62.406  38.955  0.00  0.00    +0.000 A 
ATOM     13  C   UNL     1     -47.051 -62.831  36.436  0.00  0.00    +0.000 A 
ATOM     14  C   UNL     1     -43.105 -64.938  40.303  0.00  0.00    +0.000 C 
ATOM     15  C   UNL     1     -45.834 -63.505  40.629  0.00  0.00    +0.000 A 
ATOM     16  C   UNL     1     -46.002 -64.473  35.201  0.00  0.00    +0.000 A 
ATOM     17  C   UNL     1     -46.819 -62.484  40.352  0.00  0.00    +0.000 A 
ATOM     18  C   UNL     1     -47.893 -61.608  38.272  0.00  0.00    +0.000 A 
ATOM     19  C   UNL     1     -47.952 -61.835  36.865  0.00  0.00    +0.000 A 
ATOM     20  C   UNL     1     -46.972 -63.402  35.147  0.00  0.00    +0.000 A 
ATOM     21  C   UNL     1     -48.924 -60.581  38.566  0.00  0.00    +0.000 C 
ATOM     22  C   UNL     1     -45.526 -63.838  41.959  0.00  0.00    +0.000 A 
ATOM     23  C   UNL     1     -48.967 -61.003  36.256  0.00  0.00    +0.000 C 
ATOM     24  C   UNL     1     -45.723 -65.250  34.067  0.00  0.00    +0.000 A 
ATOM     25  C   UNL     1     -47.435 -61.832  41.439  0.00  0.00    +0.000 A 
ATOM     26  C   UNL     1     -47.633 -63.175  33.923  0.00  0.00    +0.000 A 
ATOM     27  C   UNL     1     -46.163 -63.163  43.000  0.00  0.00    +0.000 A 
ATOM     28  C   UNL     1     -47.098 -62.172  42.749  0.00  0.00    +0.000 A 
ATOM     29  C   UNL     1     -46.403 -64.975  32.880  0.00  0.00    +0.000 A 
ATOM     30  C   UNL     1     -47.342 -63.956  32.806  0.00  0.00    +0.000 A 
ATOM     31  H   UNL     1     -50.214 -59.631  37.245  0.00  0.00    +0.000 HD
ENDROOT
BRANCH   7  32
ATOM     32  O   UNL     1     -46.127 -66.754  39.739  0.00  0.00    +0.000 OA
ATOM     33  H   UNL     1     -46.499 -65.865  39.930  0.00  0.00    +0.000 HD
ENDBRANCH   7  32
BRANCH   7  35
ATOM     34  O   UNL     1     -43.920 -68.051  40.758  0.00  0.00    +0.000 OA
ATOM     35  C   UNL     1     -43.851 -67.609  39.609  0.00  0.00    +0.000 C 
BRANCH  35  36
ATOM     36  O   UNL     1     -42.988 -67.985  38.618  0.00  0.00    +0.000 OA
ATOM     37  C   UNL     1     -41.629 -68.091  38.944  0.00  0.00    +0.000 C 
ENDBRANCH  35  36
ENDBRANCH   7  35
TORSDOF 3
ENDMDL
MODEL 2
REMARK VINA RESULT:      -7.8      6.799      9.684
REMARK  Name = 490561_Nocardiopsis.pdbqt.pdb
REMARK  3 active torsions:
REMARK  status: ('A' for Active; 'I' for Inactive)
REMARK    1  A    between atoms: C_7  and  O_32
REMARK    2  A    between atoms: C_7  and  C_35
REMARK    3  A    between atoms: C_35  and  O_36
REMARK                            x       y       z     vdW  Elec       q    Type
REMARK                         _______ _______ _______ _____ _____    ______ ____
ROOT
ATOM      1  O   UNL     1     -45.050 -66.594  29.371  0.00  0.00    +0.000 OA
ATOM      2  O   UNL     1     -44.928 -60.227  25.350  0.00  0.00    +0.000 OA
ATOM      3  N   UNL     1     -46.155 -64.695  30.244  0.00  0.00    +0.000 N 
ATOM      4  N   UNL     1     -45.453 -65.395  27.411  0.00  0.00    +0.000 N 
ATOM      5  N   UNL     1     -45.485 -59.447  27.465  0.00  0.00    +0.000 N 
ATOM      6  C   UNL     1     -46.118 -66.172  30.290  0.00  0.00    +0.000 C 
ATOM      7  C   UNL     1     -47.427 -66.851  29.698  0.00  0.00    +0.000 C 
ATOM      8  C   UNL     1     -45.657 -66.576  28.103  0.00  0.00    +0.000 C 
ATOM      9  C   UNL     1     -47.002 -66.971  28.306  0.00  0.00    +0.000 C 
ATOM     10  C   UNL     1     -45.830 -63.819  29.240  0.00  0.00    +0.000 A 
ATOM     11  C   UNL     1     -45.488 -64.134  27.925  0.00  0.00    +0.000 A 
ATOM     12  C   UNL     1     -45.917 -62.445  29.480  0.00  0.00    +0.000 A 
ATOM     13  C   UNL     1     -45.295 -63.040  27.073  0.00  0.00    +0.000 A 
ATOM     14  C   UNL     1     -45.686 -66.708  31.695  0.00  0.00    +0.000 C 
ATOM     15  C   UNL     1     -46.578 -63.775  31.236  0.00  0.00    +0.000 A 
ATOM     16  C   UNL     1     -45.262 -65.106  26.047  0.00  0.00    +0.000 A 
ATOM     17  C   UNL     1     -46.410 -62.408  30.797  0.00  0.00    +0.000 A 
ATOM     18  C   UNL     1     -45.707 -61.334  28.652  0.00  0.00    +0.000 A 
ATOM     19  C   UNL     1     -45.360 -61.651  27.305  0.00  0.00    +0.000 A 
ATOM     20  C   UNL     1     -45.136 -63.683  25.825  0.00  0.00    +0.000 A 
ATOM     21  C   UNL     1     -45.783 -59.852  28.718  0.00  0.00    +0.000 C 
ATOM     22  C   UNL     1     -47.115 -64.040  32.507  0.00  0.00    +0.000 A 
ATOM     23  C   UNL     1     -45.211 -60.446  26.519  0.00  0.00    +0.000 C 
ATOM     24  C   UNL     1     -45.174 -66.012  24.979  0.00  0.00    +0.000 A 
ATOM     25  C   UNL     1     -46.778 -61.370  31.676  0.00  0.00    +0.000 A 
ATOM     26  C   UNL     1     -44.935 -63.238  24.503  0.00  0.00    +0.000 A 
ATOM     27  C   UNL     1     -47.463 -62.978  33.341  0.00  0.00    +0.000 A 
ATOM     28  C   UNL     1     -47.293 -61.663  32.938  0.00  0.00    +0.000 A 
ATOM     29  C   UNL     1     -44.967 -65.515  23.693  0.00  0.00    +0.000 A 
ATOM     30  C   UNL     1     -44.849 -64.153  23.455  0.00  0.00    +0.000 A 
ATOM     31  H   UNL     1     -45.457 -58.474  27.201  0.00  0.00    +0.000 HD
ENDROOT
BRANCH   7  32
ATOM     32  O   UNL     1     -48.608 -66.037  29.755  0.00  0.00    +0.000 OA
ATOM     33  H   UNL     1     -48.829 -65.779  28.833  0.00  0.00    +0.000 HD
ENDBRANCH   7  32
BRANCH   7  35
ATOM     34  O   UNL     1     -47.130 -69.226  29.888  0.00  0.00    +0.000 OA
ATOM     35  C   UNL     1     -47.691 -68.218  30.325  0.00  0.00    +0.000 C 
BRANCH  35  36
ATOM     36  O   UNL     1     -48.535 -68.129  31.397  0.00  0.00    +0.000 OA
ATOM     37  C   UNL     1     -48.237 -68.903  32.527  0.00  0.00    +0.000 C 
ENDBRANCH  35  36
ENDBRANCH   7  35
TORSDOF 3
ENDMDL
MODEL 3
REMARK VINA RESULT:      -7.6      7.279     11.469
REMARK  Name = 490561_Nocardiopsis.pdbqt.pdb
REMARK  3 active torsions:
REMARK  status: ('A' for Active; 'I' for Inactive)
REMARK    1  A    between atoms: C_7  and  O_32
REMARK    2  A    between atoms: C_7  and  C_35
REMARK    3  A    between atoms: C_35  and  O_36
REMARK                            x       y       z     vdW  Elec       q    Type
REMARK                         _______ _______ _______ _____ _____    ______ ____
ROOT
ATOM      1  O   UNL     1     -47.284 -66.624  28.031  0.00  0.00    +0.000 OA
ATOM      2  O   UNL     1     -46.029 -59.456  29.974  0.00  0.00    +0.000 OA
ATOM      3  N   UNL     1     -45.768 -65.359  26.730  0.00  0.00    +0.000 N 
ATOM      4  N   UNL     1     -46.650 -64.996  29.576  0.00  0.00    +0.000 N 
ATOM      5  N   UNL     1     -45.281 -59.495  27.775  0.00  0.00    +0.000 N 
ATOM      6  C   UNL     1     -46.136 -66.736  27.119  0.00  0.00    +0.000 C 
ATOM      7  C   UNL     1     -45.021 -67.461  27.990  0.00  0.00    +0.000 C 
ATOM      8  C   UNL     1     -46.707 -66.347  29.282  0.00  0.00    +0.000 C 
ATOM      9  C   UNL     1     -45.483 -67.058  29.316  0.00  0.00    +0.000 C 
ATOM     10  C   UNL     1     -45.902 -64.170  27.402  0.00  0.00    +0.000 A 
ATOM     11  C   UNL     1     -46.325 -63.989  28.719  0.00  0.00    +0.000 A 
ATOM     12  C   UNL     1     -45.505 -62.985  26.776  0.00  0.00    +0.000 A 
ATOM     13  C   UNL     1     -46.279 -62.672  29.191  0.00  0.00    +0.000 A 
ATOM     14  C   UNL     1     -46.656 -67.573  25.904  0.00  0.00    +0.000 C 
ATOM     15  C   UNL     1     -45.135 -64.896  25.550  0.00  0.00    +0.000 A 
ATOM     16  C   UNL     1     -46.791 -64.271  30.774  0.00  0.00    +0.000 A 
ATOM     17  C   UNL     1     -44.997 -63.457  25.551  0.00  0.00    +0.000 A 
ATOM     18  C   UNL     1     -45.472 -61.656  27.219  0.00  0.00    +0.000 A 
ATOM     19  C   UNL     1     -45.900 -61.467  28.567  0.00  0.00    +0.000 A 
ATOM     20  C   UNL     1     -46.596 -62.855  30.556  0.00  0.00    +0.000 A 
ATOM     21  C   UNL     1     -45.064 -60.316  26.726  0.00  0.00    +0.000 C 
ATOM     22  C   UNL     1     -44.653 -65.643  24.462  0.00  0.00    +0.000 A 
ATOM     23  C   UNL     1     -45.786 -60.076  28.948  0.00  0.00    +0.000 C 
ATOM     24  C   UNL     1     -47.095 -64.768  32.051  0.00  0.00    +0.000 A 
ATOM     25  C   UNL     1     -44.393 -62.838  24.439  0.00  0.00    +0.000 A 
ATOM     26  C   UNL     1     -46.711 -61.996  31.667  0.00  0.00    +0.000 A 
ATOM     27  C   UNL     1     -44.063 -64.984  23.383  0.00  0.00    +0.000 A 
ATOM     28  C   UNL     1     -43.939 -63.604  23.366  0.00  0.00    +0.000 A 
ATOM     29  C   UNL     1     -47.204 -63.870  33.112  0.00  0.00    +0.000 A 
ATOM     30  C   UNL     1     -47.016 -62.508  32.928  0.00  0.00    +0.000 A 
ATOM     31  H   UNL     1     -45.093 -58.504  27.738  0.00  0.00    +0.000 HD
ENDROOT
BRANCH   7  32
ATOM     32  O   UNL     1     -43.687 -66.970  27.793  0.00  0.00    +0.000 OA
ATOM     33  H   UNL     1     -43.175 -67.685  27.357  0.00  0.00    +0.000 HD
ENDBRANCH   7  32
BRANCH   7  35
ATOM     34  O   UNL     1     -46.031 -69.627  28.219  0.00  0.00    +0.000 OA
ATOM     35  C   UNL     1     -45.063 -68.978  27.817  0.00  0.00    +0.000 C 
BRANCH  35  36
ATOM     36  O   UNL     1     -43.965 -69.441  27.147  0.00  0.00    +0.000 OA
ATOM     37  C   UNL     1     -44.147 -70.510  26.259  0.00  0.00    +0.000 C 
ENDBRANCH  35  36
ENDBRANCH   7  35
TORSDOF 3
ENDMDL
MODEL 4
REMARK VINA RESULT:      -7.5     23.277     24.830
REMARK  Name = 490561_Nocardiopsis.pdbqt.pdb
REMARK  3 active torsions:
REMARK  status: ('A' for Active; 'I' for Inactive)
REMARK    1  A    between atoms: C_7  and  O_32
REMARK    2  A    between atoms: C_7  and  C_35
REMARK    3  A    between atoms: C_35  and  O_36
REMARK                            x       y       z     vdW  Elec       q    Type
REMARK                         _______ _______ _______ _____ _____    ______ ____
ROOT
ATOM      1  O   UNL     1     -32.978 -51.120  51.092  0.00  0.00    +0.000 OA
ATOM      2  O   UNL     1     -26.561 -55.054  50.813  0.00  0.00    +0.000 OA
ATOM      3  N   UNL     1     -32.019 -51.848  53.127  0.00  0.00    +0.000 N 
ATOM      4  N   UNL     1     -30.749 -51.372  50.449  0.00  0.00    +0.000 N 
ATOM      5  N   UNL     1     -27.346 -55.569  52.937  0.00  0.00    +0.000 N 
ATOM      6  C   UNL     1     -32.917 -50.835  52.534  0.00  0.00    +0.000 C 
ATOM      7  C   UNL     1     -32.336 -49.358  52.611  0.00  0.00    +0.000 C 
ATOM      8  C   UNL     1     -31.824 -50.509  50.570  0.00  0.00    +0.000 C 
ATOM      9  C   UNL     1     -31.618 -49.338  51.340  0.00  0.00    +0.000 C 
ATOM     10  C   UNL     1     -30.953 -52.527  52.593  0.00  0.00    +0.000 A 
ATOM     11  C   UNL     1     -30.366 -52.325  51.344  0.00  0.00    +0.000 A 
ATOM     12  C   UNL     1     -30.291 -53.479  53.374  0.00  0.00    +0.000 A 
ATOM     13  C   UNL     1     -29.225 -53.092  51.083  0.00  0.00    +0.000 A 
ATOM     14  C   UNL     1     -34.389 -50.982  53.044  0.00  0.00    +0.000 C 
ATOM     15  C   UNL     1     -31.998 -52.370  54.445  0.00  0.00    +0.000 A 
ATOM     16  C   UNL     1     -29.715 -51.485  49.502  0.00  0.00    +0.000 A 
ATOM     17  C   UNL     1     -30.977 -53.381  54.598  0.00  0.00    +0.000 A 
ATOM     18  C   UNL     1     -29.165 -54.274  53.126  0.00  0.00    +0.000 A 
ATOM     19  C   UNL     1     -28.558 -54.068  51.851  0.00  0.00    +0.000 A 
ATOM     20  C   UNL     1     -28.794 -52.542  49.855  0.00  0.00    +0.000 A 
ATOM     21  C   UNL     1     -28.324 -55.282  53.822  0.00  0.00    +0.000 C 
ATOM     22  C   UNL     1     -32.806 -52.021  55.540  0.00  0.00    +0.000 A 
ATOM     23  C   UNL     1     -27.380 -54.896  51.706  0.00  0.00    +0.000 C 
ATOM     24  C   UNL     1     -29.531 -50.730  48.334  0.00  0.00    +0.000 A 
ATOM     25  C   UNL     1     -30.833 -54.007  55.853  0.00  0.00    +0.000 A 
ATOM     26  C   UNL     1     -27.704 -52.779  48.994  0.00  0.00    +0.000 A 
ATOM     27  C   UNL     1     -32.626 -52.670  56.761  0.00  0.00    +0.000 A 
ATOM     28  C   UNL     1     -31.660 -53.651  56.917  0.00  0.00    +0.000 A 
ATOM     29  C   UNL     1     -28.437 -51.013  47.516  0.00  0.00    +0.000 A 
ATOM     30  C   UNL     1     -27.538 -52.020  47.837  0.00  0.00    +0.000 A 
ATOM     31  H   UNL     1     -26.613 -56.234  53.133  0.00  0.00    +0.000 HD
ENDROOT
BRANCH   7  32
ATOM     32  O   UNL     1     -31.401 -49.132  53.676  0.00  0.00    +0.000 OA
ATOM     33  H   UNL     1     -30.581 -48.773  53.273  0.00  0.00    +0.000 HD
ENDBRANCH   7  32
BRANCH   7  35
ATOM     34  O   UNL     1     -33.692 -47.693  53.684  0.00  0.00    +0.000 OA
ATOM     35  C   UNL     1     -33.448 -48.311  52.646  0.00  0.00    +0.000 C 
BRANCH  35  36
ATOM     36  O   UNL     1     -34.032 -48.153  51.420  0.00  0.00    +0.000 OA
ATOM     37  C   UNL     1     -34.382 -46.854  51.027  0.00  0.00    +0.000 C 
ENDBRANCH  35  36
ENDBRANCH   7  35
TORSDOF 3
ENDMDL
MODEL 5
REMARK VINA RESULT:      -7.1      2.187      4.501
REMARK  Name = 490561_Nocardiopsis.pdbqt.pdb
REMARK  3 active torsions:
REMARK  status: ('A' for Active; 'I' for Inactive)
REMARK    1  A    between atoms: C_7  and  O_32
REMARK    2  A    between atoms: C_7  and  C_35
REMARK    3  A    between atoms: C_35  and  O_36
REMARK                            x       y       z     vdW  Elec       q    Type
REMARK                         _______ _______ _______ _____ _____    ______ ____
ROOT
ATOM      1  O   UNL     1     -43.652 -65.254  36.406  0.00  0.00    +0.000 OA
ATOM      2  O   UNL     1     -47.543 -61.341  41.532  0.00  0.00    +0.000 OA
ATOM      3  N   UNL     1     -43.729 -66.075  38.622  0.00  0.00    +0.000 N 
ATOM      4  N   UNL     1     -45.615 -64.250  37.167  0.00  0.00    +0.000 N 
ATOM      5  N   UNL     1     -46.178 -62.660  42.870  0.00  0.00    +0.000 N 
ATOM      6  C   UNL     1     -43.524 -66.477  37.215  0.00  0.00    +0.000 C 
ATOM      7  C   UNL     1     -44.670 -67.428  36.660  0.00  0.00    +0.000 C 
ATOM      8  C   UNL     1     -45.039 -65.096  36.235  0.00  0.00    +0.000 C 
ATOM      9  C   UNL     1     -45.575 -66.404  36.145  0.00  0.00    +0.000 C 
ATOM     10  C   UNL     1     -44.467 -65.056  39.167  0.00  0.00    +0.000 A 
ATOM     11  C   UNL     1     -45.335 -64.192  38.498  0.00  0.00    +0.000 A 
ATOM     12  C   UNL     1     -44.453 -64.869  40.552  0.00  0.00    +0.000 A 
ATOM     13  C   UNL     1     -46.041 -63.298  39.310  0.00  0.00    +0.000 A 
ATOM     14  C   UNL     1     -42.070 -66.991  36.953  0.00  0.00    +0.000 C 
ATOM     15  C   UNL     1     -43.234 -66.672  39.808  0.00  0.00    +0.000 A 
ATOM     16  C   UNL     1     -46.667 -63.318  37.090  0.00  0.00    +0.000 A 
ATOM     17  C   UNL     1     -43.639 -65.933  40.982  0.00  0.00    +0.000 A 
ATOM     18  C   UNL     1     -45.132 -63.968  41.383  0.00  0.00    +0.000 A 
ATOM     19  C   UNL     1     -46.023 -63.085  40.704  0.00  0.00    +0.000 A 
ATOM     20  C   UNL     1     -46.922 -62.709  38.376  0.00  0.00    +0.000 A 
ATOM     21  C   UNL     1     -45.266 -63.654  42.829  0.00  0.00    +0.000 C 
ATOM     22  C   UNL     1     -42.452 -67.831  39.947  0.00  0.00    +0.000 A 
ATOM     23  C   UNL     1     -46.711 -62.229  41.646  0.00  0.00    +0.000 C 
ATOM     24  C   UNL     1     -47.412 -62.952  35.959  0.00  0.00    +0.000 A 
ATOM     25  C   UNL     1     -43.219 -66.395  42.246  0.00  0.00    +0.000 A 
ATOM     26  C   UNL     1     -47.949 -61.747  38.457  0.00  0.00    +0.000 A 
ATOM     27  C   UNL     1     -42.060 -68.247  41.220  0.00  0.00    +0.000 A 
ATOM     28  C   UNL     1     -42.430 -67.539  42.352  0.00  0.00    +0.000 A 
ATOM     29  C   UNL     1     -48.412 -61.989  36.097  0.00  0.00    +0.000 A 
ATOM     30  C   UNL     1     -48.677 -61.395  37.322  0.00  0.00    +0.000 A 
ATOM     31  H   UNL     1     -46.478 -62.233  43.734  0.00  0.00    +0.000 HD
ENDROOT
BRANCH   7  32
ATOM     32  O   UNL     1     -45.357 -68.193  37.662  0.00  0.00    +0.000 OA
ATOM     33  H   UNL     1     -44.752 -68.275  38.431  0.00  0.00    +0.000 HD
ENDBRANCH   7  32
BRANCH   7  35
ATOM     34  O   UNL     1     -43.766 -69.480  35.804  0.00  0.00    +0.000 OA
ATOM     35  C   UNL     1     -44.161 -68.341  35.546  0.00  0.00    +0.000 C 
BRANCH  35  36
ATOM     36  O   UNL     1     -44.266 -67.749  34.319  0.00  0.00    +0.000 OA
ATOM     37  C   UNL     1     -44.677 -68.548  33.243  0.00  0.00    +0.000 C 
ENDBRANCH  35  36
ENDBRANCH   7  35
TORSDOF 3
ENDMDL
MODEL 6
REMARK VINA RESULT:      -7.0      7.361     11.572
REMARK  Name = 490561_Nocardiopsis.pdbqt.pdb
REMARK  3 active torsions:
REMARK  status: ('A' for Active; 'I' for Inactive)
REMARK    1  A    between atoms: C_7  and  O_32
REMARK    2  A    between atoms: C_7  and  C_35
REMARK    3  A    between atoms: C_35  and  O_36
REMARK                            x       y       z     vdW  Elec       q    Type
REMARK                         _______ _______ _______ _____ _____    ______ ____
ROOT
ATOM      1  O   UNL     1     -46.754 -67.004  26.013  0.00  0.00    +0.000 OA
ATOM      2  O   UNL     1     -47.726 -63.803  32.761  0.00  0.00    +0.000 OA
ATOM      3  N   UNL     1     -45.504 -65.063  26.524  0.00  0.00    +0.000 N 
ATOM      4  N   UNL     1     -46.765 -67.089  28.345  0.00  0.00    +0.000 N 
ATOM      5  N   UNL     1     -46.754 -62.078  31.548  0.00  0.00    +0.000 N 
ATOM      6  C   UNL     1     -45.523 -66.273  25.676  0.00  0.00    +0.000 C 
ATOM      7  C   UNL     1     -44.359 -67.299  26.019  0.00  0.00    +0.000 C 
ATOM      8  C   UNL     1     -46.418 -67.732  27.169  0.00  0.00    +0.000 C 
ATOM      9  C   UNL     1     -45.058 -68.098  27.021  0.00  0.00    +0.000 C 
ATOM     10  C   UNL     1     -46.031 -64.831  27.770  0.00  0.00    +0.000 A 
ATOM     11  C   UNL     1     -46.633 -65.762  28.617  0.00  0.00    +0.000 A 
ATOM     12  C   UNL     1     -45.904 -63.560  28.337  0.00  0.00    +0.000 A 
ATOM     13  C   UNL     1     -47.001 -65.279  29.878  0.00  0.00    +0.000 A 
ATOM     14  C   UNL     1     -45.656 -65.925  24.156  0.00  0.00    +0.000 C 
ATOM     15  C   UNL     1     -44.892 -63.807  26.287  0.00  0.00    +0.000 A 
ATOM     16  C   UNL     1     -47.232 -67.556  29.587  0.00  0.00    +0.000 A 
ATOM     17  C   UNL     1     -45.153 -62.878  27.362  0.00  0.00    +0.000 A 
ATOM     18  C   UNL     1     -46.285 -63.049  29.585  0.00  0.00    +0.000 A 
ATOM     19  C   UNL     1     -46.897 -63.998  30.456  0.00  0.00    +0.000 A 
ATOM     20  C   UNL     1     -47.408 -66.468  30.524  0.00  0.00    +0.000 A 
ATOM     21  C   UNL     1     -46.205 -61.779  30.352  0.00  0.00    +0.000 C 
ATOM     22  C   UNL     1     -44.106 -63.407  25.193  0.00  0.00    +0.000 A 
ATOM     23  C   UNL     1     -47.210 -63.392  31.732  0.00  0.00    +0.000 C 
ATOM     24  C   UNL     1     -47.531 -68.877  29.954  0.00  0.00    +0.000 A 
ATOM     25  C   UNL     1     -44.619 -61.577  27.272  0.00  0.00    +0.000 A 
ATOM     26  C   UNL     1     -47.877 -66.781  31.815  0.00  0.00    +0.000 A 
ATOM     27  C   UNL     1     -43.601 -62.108  25.148  0.00  0.00    +0.000 A 
ATOM     28  C   UNL     1     -43.856 -61.203  26.166  0.00  0.00    +0.000 A 
ATOM     29  C   UNL     1     -47.999 -69.126  31.244  0.00  0.00    +0.000 A 
ATOM     30  C   UNL     1     -48.170 -68.099  32.161  0.00  0.00    +0.000 A 
ATOM     31  H   UNL     1     -46.841 -61.400  32.291  0.00  0.00    +0.000 HD
ENDROOT
BRANCH   7  32
ATOM     32  O   UNL     1     -43.196 -66.712  26.621  0.00  0.00    +0.000 OA
ATOM     33  H   UNL     1     -42.495 -66.682  25.933  0.00  0.00    +0.000 HD
ENDBRANCH   7  32
BRANCH   7  35
ATOM     34  O   UNL     1     -44.676 -69.075  24.435  0.00  0.00    +0.000 OA
ATOM     35  C   UNL     1     -43.965 -68.138  24.804  0.00  0.00    +0.000 C 
BRANCH  35  36
ATOM     36  O   UNL     1     -42.822 -67.673  24.217  0.00  0.00    +0.000 OA
ATOM     37  C   UNL     1     -42.687 -67.839  22.832  0.00  0.00    +0.000 C 
ENDBRANCH  35  36
ENDBRANCH   7  35
TORSDOF 3
ENDMDL
MODEL 7
REMARK VINA RESULT:      -6.9      6.470     11.464
REMARK  Name = 490561_Nocardiopsis.pdbqt.pdb
REMARK  3 active torsions:
REMARK  status: ('A' for Active; 'I' for Inactive)
REMARK    1  A    between atoms: C_7  and  O_32
REMARK    2  A    between atoms: C_7  and  C_35
REMARK    3  A    between atoms: C_35  and  O_36
REMARK                            x       y       z     vdW  Elec       q    Type
REMARK                         _______ _______ _______ _____ _____    ______ ____
ROOT
ATOM      1  O   UNL     1     -43.841 -61.292  29.412  0.00  0.00    +0.000 OA
ATOM      2  O   UNL     1     -48.461 -66.593  32.111  0.00  0.00    +0.000 OA
ATOM      3  N   UNL     1     -44.823 -62.807  27.885  0.00  0.00    +0.000 N 
ATOM      4  N   UNL     1     -45.725 -61.954  30.618  0.00  0.00    +0.000 N 
ATOM      5  N   UNL     1     -47.906 -67.456  30.028  0.00  0.00    +0.000 N 
ATOM      6  C   UNL     1     -44.226 -61.460  28.002  0.00  0.00    +0.000 C 
ATOM      7  C   UNL     1     -45.267 -60.287  27.745  0.00  0.00    +0.000 C 
ATOM      8  C   UNL     1     -45.030 -60.900  30.051  0.00  0.00    +0.000 C 
ATOM      9  C   UNL     1     -45.734 -60.103  29.116  0.00  0.00    +0.000 C 
ATOM     10  C   UNL     1     -45.503 -63.571  28.800  0.00  0.00    +0.000 A 
ATOM     11  C   UNL     1     -45.912 -63.190  30.078  0.00  0.00    +0.000 A 
ATOM     12  C   UNL     1     -45.930 -64.851  28.435  0.00  0.00    +0.000 A 
ATOM     13  C   UNL     1     -46.676 -64.135  30.772  0.00  0.00    +0.000 A 
ATOM     14  C   UNL     1     -42.893 -61.334  27.194  0.00  0.00    +0.000 C 
ATOM     15  C   UNL     1     -44.885 -63.669  26.762  0.00  0.00    +0.000 A 
ATOM     16  C   UNL     1     -46.494 -62.072  31.790  0.00  0.00    +0.000 A 
ATOM     17  C   UNL     1     -45.525 -64.922  27.090  0.00  0.00    +0.000 A 
ATOM     18  C   UNL     1     -46.674 -65.821  29.120  0.00  0.00    +0.000 A 
ATOM     19  C   UNL     1     -47.099 -65.434  30.426  0.00  0.00    +0.000 A 
ATOM     20  C   UNL     1     -47.059 -63.398  31.916  0.00  0.00    +0.000 A 
ATOM     21  C   UNL     1     -47.236 -67.176  28.891  0.00  0.00    +0.000 C 
ATOM     22  C   UNL     1     -44.427 -63.439  25.453  0.00  0.00    +0.000 A 
ATOM     23  C   UNL     1     -47.897 -66.477  31.033  0.00  0.00    +0.000 C 
ATOM     24  C   UNL     1     -46.726 -61.096  32.771  0.00  0.00    +0.000 A 
ATOM     25  C   UNL     1     -45.656 -65.895  26.079  0.00  0.00    +0.000 A 
ATOM     26  C   UNL     1     -47.854 -63.670  33.046  0.00  0.00    +0.000 A 
ATOM     27  C   UNL     1     -44.579 -64.434  24.488  0.00  0.00    +0.000 A 
ATOM     28  C   UNL     1     -45.177 -65.646  24.793  0.00  0.00    +0.000 A 
ATOM     29  C   UNL     1     -47.515 -61.424  33.873  0.00  0.00    +0.000 A 
ATOM     30  C   UNL     1     -48.071 -62.688  34.011  0.00  0.00    +0.000 A 
ATOM     31  H   UNL     1     -48.400 -68.325  30.168  0.00  0.00    +0.000 HD
ENDROOT
BRANCH   7  32
ATOM     32  O   UNL     1     -46.384 -60.643  26.917  0.00  0.00    +0.000 OA
ATOM     33  H   UNL     1     -46.432 -61.624  26.898  0.00  0.00    +0.000 HD
ENDBRANCH   7  32
BRANCH   7  35
ATOM     34  O   UNL     1     -44.339 -58.916  26.007  0.00  0.00    +0.000 OA
ATOM     35  C   UNL     1     -44.585 -59.030  27.209  0.00  0.00    +0.000 C 
BRANCH  35  36
ATOM     36  O   UNL     1     -44.368 -58.112  28.199  0.00  0.00    +0.000 OA
ATOM     37  C   UNL     1     -44.156 -56.780  27.816  0.00  0.00    +0.000 C 
ENDBRANCH  35  36
ENDBRANCH   7  35
TORSDOF 3
ENDMDL
MODEL 8
REMARK VINA RESULT:      -6.9     24.176     26.871
REMARK  Name = 490561_Nocardiopsis.pdbqt.pdb
REMARK  3 active torsions:
REMARK  status: ('A' for Active; 'I' for Inactive)
REMARK    1  A    between atoms: C_7  and  O_32
REMARK    2  A    between atoms: C_7  and  C_35
REMARK    3  A    between atoms: C_35  and  O_36
REMARK                            x       y       z     vdW  Elec       q    Type
REMARK                         _______ _______ _______ _____ _____    ______ ____
ROOT
ATOM      1  O   UNL     1     -41.436 -39.289  49.998  0.00  0.00    +0.000 OA
ATOM      2  O   UNL     1     -38.583 -41.342  43.337  0.00  0.00    +0.000 OA
ATOM      3  N   UNL     1     -42.600 -38.661  48.038  0.00  0.00    +0.000 N 
ATOM      4  N   UNL     1     -40.664 -40.906  48.505  0.00  0.00    +0.000 N 
ATOM      5  N   UNL     1     -40.027 -39.627  42.731  0.00  0.00    +0.000 N 
ATOM      6  C   UNL     1     -42.763 -38.915  49.485  0.00  0.00    +0.000 C 
ATOM      7  C   UNL     1     -43.670 -40.181  49.803  0.00  0.00    +0.000 C 
ATOM      8  C   UNL     1     -41.322 -40.657  49.697  0.00  0.00    +0.000 C 
ATOM      9  C   UNL     1     -42.623 -41.199  49.831  0.00  0.00    +0.000 C 
ATOM     10  C   UNL     1     -41.718 -39.186  47.128  0.00  0.00    +0.000 A 
ATOM     11  C   UNL     1     -40.803 -40.218  47.339  0.00  0.00    +0.000 A 
ATOM     12  C   UNL     1     -41.753 -38.733  45.806  0.00  0.00    +0.000 A 
ATOM     13  C   UNL     1     -40.086 -40.627  46.209  0.00  0.00    +0.000 A 
ATOM     14  C   UNL     1     -43.157 -37.620  50.270  0.00  0.00    +0.000 C 
ATOM     15  C   UNL     1     -43.352 -37.818  47.183  0.00  0.00    +0.000 A 
ATOM     16  C   UNL     1     -39.784 -41.925  48.093  0.00  0.00    +0.000 A 
ATOM     17  C   UNL     1     -42.830 -37.828  45.835  0.00  0.00    +0.000 A 
ATOM     18  C   UNL     1     -41.030 -39.110  44.667  0.00  0.00    +0.000 A 
ATOM     19  C   UNL     1     -40.096 -40.168  44.876  0.00  0.00    +0.000 A 
ATOM     20  C   UNL     1     -39.400 -41.757  46.709  0.00  0.00    +0.000 A 
ATOM     21  C   UNL     1     -40.956 -38.779  43.221  0.00  0.00    +0.000 C 
ATOM     22  C   UNL     1     -44.479 -37.037  47.490  0.00  0.00    +0.000 A 
ATOM     23  C   UNL     1     -39.435 -40.519  43.638  0.00  0.00    +0.000 C 
ATOM     24  C   UNL     1     -39.281 -42.989  48.856  0.00  0.00    +0.000 A 
ATOM     25  C   UNL     1     -43.465 -37.030  44.862  0.00  0.00    +0.000 A 
ATOM     26  C   UNL     1     -38.516 -42.702  46.153  0.00  0.00    +0.000 A 
ATOM     27  C   UNL     1     -45.071 -36.263  46.492  0.00  0.00    +0.000 A 
ATOM     28  C   UNL     1     -44.571 -36.252  45.200  0.00  0.00    +0.000 A 
ATOM     29  C   UNL     1     -38.403 -43.890  48.255  0.00  0.00    +0.000 A 
ATOM     30  C   UNL     1     -38.024 -43.752  46.928  0.00  0.00    +0.000 A 
ATOM     31  H   UNL     1     -39.758 -39.637  41.759  0.00  0.00    +0.000 HD
ENDROOT
BRANCH   7  32
ATOM     32  O   UNL     1     -44.617 -40.517  48.778  0.00  0.00    +0.000 OA
ATOM     33  H   UNL     1     -45.469 -40.092  49.018  0.00  0.00    +0.000 HD
ENDBRANCH   7  32
BRANCH   7  35
ATOM     34  O   UNL     1     -45.496 -39.560  51.232  0.00  0.00    +0.000 OA
ATOM     35  C   UNL     1     -44.369 -40.054  51.155  0.00  0.00    +0.000 C 
BRANCH  35  36
ATOM     36  O   UNL     1     -43.618 -40.589  52.164  0.00  0.00    +0.000 OA
ATOM     37  C   UNL     1     -43.353 -39.780  53.278  0.00  0.00    +0.000 C 
ENDBRANCH  35  36
ENDBRANCH   7  35
TORSDOF 3
ENDMDL
MODEL 9
REMARK VINA RESULT:      -6.7     29.395     31.299
REMARK  Name = 490561_Nocardiopsis.pdbqt.pdb
REMARK  3 active torsions:
REMARK  status: ('A' for Active; 'I' for Inactive)
REMARK    1  A    between atoms: C_7  and  O_32
REMARK    2  A    between atoms: C_7  and  C_35
REMARK    3  A    between atoms: C_35  and  O_36
REMARK                            x       y       z     vdW  Elec       q    Type
REMARK                         _______ _______ _______ _____ _____    ______ ____
ROOT
ATOM      1  O   UNL     1     -61.504 -69.263  63.149  0.00  0.00    +0.000 OA
ATOM      2  O   UNL     1     -55.053 -71.877  66.028  0.00  0.00    +0.000 OA
ATOM      3  N   UNL     1     -60.968 -71.541  62.814  0.00  0.00    +0.000 N 
ATOM      4  N   UNL     1     -60.053 -69.629  64.939  0.00  0.00    +0.000 N 
ATOM      5  N   UNL     1     -55.558 -73.492  64.437  0.00  0.00    +0.000 N 
ATOM      6  C   UNL     1     -62.091 -70.583  62.873  0.00  0.00    +0.000 C 
ATOM      7  C   UNL     1     -63.068 -70.835  64.101  0.00  0.00    +0.000 C 
ATOM      8  C   UNL     1     -61.323 -69.249  64.544  0.00  0.00    +0.000 C 
ATOM      9  C   UNL     1     -62.406 -69.985  65.086  0.00  0.00    +0.000 C 
ATOM     10  C   UNL     1     -59.747 -71.534  63.440  0.00  0.00    +0.000 A 
ATOM     11  C   UNL     1     -59.306 -70.641  64.417  0.00  0.00    +0.000 A 
ATOM     12  C   UNL     1     -58.837 -72.560  63.169  0.00  0.00    +0.000 A 
ATOM     13  C   UNL     1     -58.047 -70.917  64.961  0.00  0.00    +0.000 A 
ATOM     14  C   UNL     1     -62.810 -70.431  61.492  0.00  0.00    +0.000 C 
ATOM     15  C   UNL     1     -60.867 -72.766  62.107  0.00  0.00    +0.000 A 
ATOM     16  C   UNL     1     -59.212 -69.211  65.987  0.00  0.00    +0.000 A 
ATOM     17  C   UNL     1     -59.570 -73.377  62.289  0.00  0.00    +0.000 A 
ATOM     18  C   UNL     1     -57.565 -72.843  63.683  0.00  0.00    +0.000 A 
ATOM     19  C   UNL     1     -57.111 -71.935  64.686  0.00  0.00    +0.000 A 
ATOM     20  C   UNL     1     -57.977 -69.963  66.000  0.00  0.00    +0.000 A 
ATOM     21  C   UNL     1     -56.500 -73.870  63.548  0.00  0.00    +0.000 C 
ATOM     22  C   UNL     1     -61.835 -73.403  61.313  0.00  0.00    +0.000 A 
ATOM     23  C   UNL     1     -55.814 -72.335  65.188  0.00  0.00    +0.000 C 
ATOM     24  C   UNL     1     -59.449 -68.199  66.929  0.00  0.00    +0.000 A 
ATOM     25  C   UNL     1     -59.306 -74.601  61.641  0.00  0.00    +0.000 A 
ATOM     26  C   UNL     1     -57.029 -69.652  66.995  0.00  0.00    +0.000 A 
ATOM     27  C   UNL     1     -61.525 -74.613  60.691  0.00  0.00    +0.000 A 
ATOM     28  C   UNL     1     -60.281 -75.202  60.846  0.00  0.00    +0.000 A 
ATOM     29  C   UNL     1     -58.471 -67.930  67.886  0.00  0.00    +0.000 A 
ATOM     30  C   UNL     1     -57.281 -68.642  67.921  0.00  0.00    +0.000 A 
ATOM     31  H   UNL     1     -54.700 -74.007  64.573  0.00  0.00    +0.000 HD
ENDROOT
BRANCH   7  32
ATOM     32  O   UNL     1     -63.087 -72.184  64.590  0.00  0.00    +0.000 OA
ATOM     33  H   UNL     1     -62.615 -72.740  63.931  0.00  0.00    +0.000 HD
ENDBRANCH   7  32
BRANCH   7  35
ATOM     34  O   UNL     1     -64.778 -69.161  63.912  0.00  0.00    +0.000 OA
ATOM     35  C   UNL     1     -64.487 -70.354  63.806  0.00  0.00    +0.000 C 
BRANCH  35  36
ATOM     36  O   UNL     1     -65.291 -71.377  63.386  0.00  0.00    +0.000 OA
ATOM     37  C   UNL     1     -66.648 -71.324  63.734  0.00  0.00    +0.000 C 
ENDBRANCH  35  36
ENDBRANCH   7  35
TORSDOF 3
ENDMDL
