MODEL 1
REMARK VINA RESULT:      -7.2      0.000      0.000
REMARK  Name = 50922675_Encorafenib.pdbqt.pdb
REMARK  8 active torsions:
REMARK  status: ('A' for Active; 'I' for Inactive)
REMARK    1  A    between atoms: N_1  and  C_37
REMARK    2  A    between atoms: C_3  and  C_23
REMARK    3  A    between atoms: C_4  and  C_8
REMARK    4  A    between atoms: C_11  and  N_14
REMARK    5  A    between atoms: N_14  and  S_16
REMARK    6  A    between atoms: N_20  and  C_28
REMARK    7  A    between atoms: C_28  and  C_29
REMARK    8  A    between atoms: C_33  and  O_35
REMARK                            x       y       z     vdW  Elec       q    Type
REMARK                         _______ _______ _______ _____ _____    ______ ____
ROOT
ATOM      1  N   UNL     1     -62.969 -71.222  38.777  0.00  0.00    +0.000 N 
ATOM      2  N   UNL     1     -62.568 -69.947  38.431  0.00  0.00    +0.000 NA
ATOM      3  C   UNL     1     -64.501 -69.803  39.637  0.00  0.00    +0.000 A 
ATOM      4  C   UNL     1     -63.462 -69.101  38.965  0.00  0.00    +0.000 A 
ATOM      5  C   UNL     1     -64.154 -71.125  39.495  0.00  0.00    +0.000 A 
ENDROOT
BRANCH   4   8
ATOM      6 CL   UNL     1     -64.090 -65.033  35.870  0.00  0.00    +0.000 Cl
ATOM      7  F   UNL     1     -62.219 -67.367  40.869  0.00  0.00    +0.000 F 
ATOM      8  C   UNL     1     -63.290 -67.669  38.757  0.00  0.00    +0.000 A 
ATOM      9  C   UNL     1     -62.656 -66.857  39.706  0.00  0.00    +0.000 A 
ATOM     10  C   UNL     1     -63.713 -67.094  37.557  0.00  0.00    +0.000 A 
ATOM     11  C   UNL     1     -62.469 -65.491  39.474  0.00  0.00    +0.000 A 
ATOM     12  C   UNL     1     -63.523 -65.736  37.325  0.00  0.00    +0.000 A 
ATOM     13  C   UNL     1     -62.889 -64.935  38.268  0.00  0.00    +0.000 A 
BRANCH  11  14
ATOM     14  N   UNL     1     -61.727 -64.701  40.417  0.00  0.00    +0.000 N 
ATOM     15  H   UNL     1     -60.853 -65.145  40.713  0.00  0.00    +0.000 HD
BRANCH  14  16
ATOM     16  S   UNL     1     -62.523 -64.167  41.791  0.00  0.00    +0.000 S 
ATOM     17  O   UNL     1     -63.601 -63.274  41.462  0.00  0.00    +0.000 OA
ATOM     18  O   UNL     1     -62.510 -65.109  42.888  0.00  0.00    +0.000 OA
ATOM     19  C   UNL     1     -61.447 -62.965  42.513  0.00  0.00    +0.000 C 
ENDBRANCH  14  16
ENDBRANCH  11  14
ENDBRANCH   4   8
BRANCH   3  23
ATOM     20  N   UNL     1     -69.186 -70.134  40.365  0.00  0.00    +0.000 N 
ATOM     21  N   UNL     1     -66.845 -69.944  40.025  0.00  0.00    +0.000 NA
ATOM     22  N   UNL     1     -67.952 -68.651  41.660  0.00  0.00    +0.000 NA
ATOM     23  C   UNL     1     -65.678 -69.370  40.372  0.00  0.00    +0.000 A 
ATOM     24  C   UNL     1     -67.953 -69.564  40.685  0.00  0.00    +0.000 A 
ATOM     25  C   UNL     1     -65.578 -68.418  41.361  0.00  0.00    +0.000 A 
ATOM     26  C   UNL     1     -66.765 -68.102  41.972  0.00  0.00    +0.000 A 
ATOM     27  H   UNL     1     -69.917 -69.569  40.784  0.00  0.00    +0.000 HD
BRANCH  20  28
ATOM     28  C   UNL     1     -69.363 -70.601  38.996  0.00  0.00    +0.000 C 
BRANCH  28  29
ATOM     29  C   UNL     1     -69.630 -71.131  37.708  0.00  0.00    +0.000 C 
ATOM     30  C   UNL     1     -68.512 -71.827  36.992  0.00  0.00    +0.000 C 
ATOM     31  O   UNL     1     -72.111 -69.995  38.616  0.00  0.00    +0.000 OA
ATOM     32  N   UNL     1     -70.860 -71.250  37.156  0.00  0.00    +0.000 N 
ATOM     33  C   UNL     1     -72.033 -70.727  37.635  0.00  0.00    +0.000 C 
ATOM     34  H   UNL     1     -70.901 -71.821  36.317  0.00  0.00    +0.000 HD
BRANCH  33  35
ATOM     35  O   UNL     1     -73.081 -71.136  36.844  0.00  0.00    +0.000 OA
ATOM     36  C   UNL     1     -73.595 -70.231  35.899  0.00  0.00    +0.000 C 
ENDBRANCH  33  35
ENDBRANCH  28  29
ENDBRANCH  20  28
ENDBRANCH   3  23
BRANCH   1  37
ATOM     37  C   UNL     1     -62.332 -72.450  38.472  0.00  0.00    +0.000 C 
ATOM     38  C   UNL     1     -61.971 -73.459  39.550  0.00  0.00    +0.000 C 
ATOM     39  C   UNL     1     -61.985 -72.850  37.053  0.00  0.00    +0.000 C 
ENDBRANCH   1  37
TORSDOF 8
ENDMDL
MODEL 2
REMARK VINA RESULT:      -7.2     39.495     41.847
REMARK  Name = 50922675_Encorafenib.pdbqt.pdb
REMARK  8 active torsions:
REMARK  status: ('A' for Active; 'I' for Inactive)
REMARK    1  A    between atoms: N_1  and  C_37
REMARK    2  A    between atoms: C_3  and  C_23
REMARK    3  A    between atoms: C_4  and  C_8
REMARK    4  A    between atoms: C_11  and  N_14
REMARK    5  A    between atoms: N_14  and  S_16
REMARK    6  A    between atoms: N_20  and  C_28
REMARK    7  A    between atoms: C_28  and  C_29
REMARK    8  A    between atoms: C_33  and  O_35
REMARK                            x       y       z     vdW  Elec       q    Type
REMARK                         _______ _______ _______ _____ _____    ______ ____
ROOT
ATOM      1  N   UNL     1     -30.385 -50.443  49.721  0.00  0.00    +0.000 N 
ATOM      2  N   UNL     1     -29.627 -50.690  50.847  0.00  0.00    +0.000 NA
ATOM      3  C   UNL     1     -31.748 -50.152  51.497  0.00  0.00    +0.000 A 
ATOM      4  C   UNL     1     -30.443 -50.545  51.903  0.00  0.00    +0.000 A 
ATOM      5  C   UNL     1     -31.668 -50.099  50.126  0.00  0.00    +0.000 A 
ENDROOT
BRANCH   4   8
ATOM      6 CL   UNL     1     -27.213 -48.973  55.594  0.00  0.00    +0.000 Cl
ATOM      7  F   UNL     1     -31.226 -52.702  53.609  0.00  0.00    +0.000 F 
ATOM      8  C   UNL     1     -29.905 -50.747  53.242  0.00  0.00    +0.000 A 
ATOM      9  C   UNL     1     -30.300 -51.829  54.039  0.00  0.00    +0.000 A 
ATOM     10  C   UNL     1     -28.928 -49.877  53.729  0.00  0.00    +0.000 A 
ATOM     11  C   UNL     1     -29.748 -52.026  55.309  0.00  0.00    +0.000 A 
ATOM     12  C   UNL     1     -28.376 -50.075  54.990  0.00  0.00    +0.000 A 
ATOM     13  C   UNL     1     -28.768 -51.153  55.775  0.00  0.00    +0.000 A 
BRANCH  11  14
ATOM     14  N   UNL     1     -30.093 -53.198  56.064  0.00  0.00    +0.000 N 
ATOM     15  H   UNL     1     -30.389 -53.983  55.476  0.00  0.00    +0.000 HD
BRANCH  14  16
ATOM     16  S   UNL     1     -31.213 -53.033  57.300  0.00  0.00    +0.000 S 
ATOM     17  O   UNL     1     -31.590 -54.311  57.843  0.00  0.00    +0.000 OA
ATOM     18  O   UNL     1     -31.098 -51.799  58.044  0.00  0.00    +0.000 OA
ATOM     19  C   UNL     1     -32.743 -52.670  56.494  0.00  0.00    +0.000 C 
ENDBRANCH  14  16
ENDBRANCH  11  14
ENDBRANCH   4   8
BRANCH   3  23
ATOM     20  N   UNL     1     -35.025 -47.008  52.900  0.00  0.00    +0.000 N 
ATOM     21  N   UNL     1     -33.404 -48.602  52.218  0.00  0.00    +0.000 NA
ATOM     22  N   UNL     1     -35.247 -49.226  53.554  0.00  0.00    +0.000 NA
ATOM     23  C   UNL     1     -32.975 -49.877  52.228  0.00  0.00    +0.000 A 
ATOM     24  C   UNL     1     -34.535 -48.315  52.885  0.00  0.00    +0.000 A 
ATOM     25  C   UNL     1     -33.637 -50.885  52.892  0.00  0.00    +0.000 A 
ATOM     26  C   UNL     1     -34.779 -50.487  53.540  0.00  0.00    +0.000 A 
ATOM     27  H   UNL     1     -35.727 -46.939  53.629  0.00  0.00    +0.000 HD
BRANCH  20  28
ATOM     28  C   UNL     1     -34.047 -45.935  52.769  0.00  0.00    +0.000 C 
BRANCH  28  29
ATOM     29  C   UNL     1     -33.091 -44.887  52.770  0.00  0.00    +0.000 C 
ATOM     30  C   UNL     1     -31.647 -45.258  52.622  0.00  0.00    +0.000 C 
ATOM     31  O   UNL     1     -35.655 -43.606  53.007  0.00  0.00    +0.000 OA
ATOM     32  N   UNL     1     -33.383 -43.569  52.681  0.00  0.00    +0.000 N 
ATOM     33  C   UNL     1     -34.623 -42.991  52.761  0.00  0.00    +0.000 C 
ATOM     34  H   UNL     1     -32.586 -42.964  52.501  0.00  0.00    +0.000 HD
BRANCH  33  35
ATOM     35  O   UNL     1     -34.520 -41.637  52.539  0.00  0.00    +0.000 OA
ATOM     36  C   UNL     1     -33.714 -41.197  51.475  0.00  0.00    +0.000 C 
ENDBRANCH  33  35
ENDBRANCH  28  29
ENDBRANCH  20  28
ENDBRANCH   3  23
BRANCH   1  37
ATOM     37  C   UNL     1     -29.979 -50.502  48.364  0.00  0.00    +0.000 C 
ATOM     38  C   UNL     1     -28.590 -50.966  47.959  0.00  0.00    +0.000 C 
ATOM     39  C   UNL     1     -30.905 -50.123  47.227  0.00  0.00    +0.000 C 
ENDBRANCH   1  37
TORSDOF 8
ENDMDL
MODEL 3
REMARK VINA RESULT:      -6.9      4.601      6.867
REMARK  Name = 50922675_Encorafenib.pdbqt.pdb
REMARK  8 active torsions:
REMARK  status: ('A' for Active; 'I' for Inactive)
REMARK    1  A    between atoms: N_1  and  C_37
REMARK    2  A    between atoms: C_3  and  C_23
REMARK    3  A    between atoms: C_4  and  C_8
REMARK    4  A    between atoms: C_11  and  N_14
REMARK    5  A    between atoms: N_14  and  S_16
REMARK    6  A    between atoms: N_20  and  C_28
REMARK    7  A    between atoms: C_28  and  C_29
REMARK    8  A    between atoms: C_33  and  O_35
REMARK                            x       y       z     vdW  Elec       q    Type
REMARK                         _______ _______ _______ _____ _____    ______ ____
ROOT
ATOM      1  N   UNL     1     -62.612 -71.297  37.820  0.00  0.00    +0.000 N 
ATOM      2  N   UNL     1     -62.509 -69.987  37.397  0.00  0.00    +0.000 NA
ATOM      3  C   UNL     1     -63.267 -70.001  39.550  0.00  0.00    +0.000 A 
ATOM      4  C   UNL     1     -62.871 -69.215  38.433  0.00  0.00    +0.000 A 
ATOM      5  C   UNL     1     -63.091 -71.296  39.124  0.00  0.00    +0.000 A 
ENDROOT
BRANCH   4   8
ATOM      6 CL   UNL     1     -64.289 -65.123  35.644  0.00  0.00    +0.000 Cl
ATOM      7  F   UNL     1     -61.539 -67.435  40.231  0.00  0.00    +0.000 F 
ATOM      8  C   UNL     1     -62.861 -67.766  38.270  0.00  0.00    +0.000 A 
ATOM      9  C   UNL     1     -62.178 -66.930  39.162  0.00  0.00    +0.000 A 
ATOM     10  C   UNL     1     -63.496 -67.194  37.167  0.00  0.00    +0.000 A 
ATOM     11  C   UNL     1     -62.150 -65.545  38.972  0.00  0.00    +0.000 A 
ATOM     12  C   UNL     1     -63.465 -65.817  36.975  0.00  0.00    +0.000 A 
ATOM     13  C   UNL     1     -62.782 -64.992  37.861  0.00  0.00    +0.000 A 
BRANCH  11  14
ATOM     14  N   UNL     1     -61.359 -64.720  39.842  0.00  0.00    +0.000 N 
ATOM     15  H   UNL     1     -60.815 -65.258  40.522  0.00  0.00    +0.000 HD
BRANCH  14  16
ATOM     16  S   UNL     1     -62.133 -63.484  40.668  0.00  0.00    +0.000 S 
ATOM     17  O   UNL     1     -61.216 -62.755  41.504  0.00  0.00    +0.000 OA
ATOM     18  O   UNL     1     -63.269 -62.925  39.970  0.00  0.00    +0.000 OA
ATOM     19  C   UNL     1     -63.033 -64.283  41.962  0.00  0.00    +0.000 C 
ENDBRANCH  14  16
ENDBRANCH  11  14
ENDBRANCH   4   8
BRANCH   3  23
ATOM     20  N   UNL     1     -62.774 -70.467  44.254  0.00  0.00    +0.000 N 
ATOM     21  N   UNL     1     -63.048 -70.216  41.910  0.00  0.00    +0.000 NA
ATOM     22  N   UNL     1     -64.485 -69.127  43.434  0.00  0.00    +0.000 NA
ATOM     23  C   UNL     1     -63.728 -69.666  40.887  0.00  0.00    +0.000 A 
ATOM     24  C   UNL     1     -63.450 -69.926  43.160  0.00  0.00    +0.000 A 
ATOM     25  C   UNL     1     -64.809 -68.833  41.069  0.00  0.00    +0.000 A 
ATOM     26  C   UNL     1     -65.137 -68.602  42.381  0.00  0.00    +0.000 A 
ATOM     27  H   UNL     1     -63.348 -70.338  45.080  0.00  0.00    +0.000 HD
BRANCH  20  28
ATOM     28  C   UNL     1     -62.118 -71.754  44.055  0.00  0.00    +0.000 C 
BRANCH  28  29
ATOM     29  C   UNL     1     -61.385 -72.962  43.938  0.00  0.00    +0.000 C 
ATOM     30  C   UNL     1     -61.833 -73.955  42.908  0.00  0.00    +0.000 C 
ATOM     31  O   UNL     1     -60.055 -71.436  45.980  0.00  0.00    +0.000 OA
ATOM     32  N   UNL     1     -60.191 -73.208  44.526  0.00  0.00    +0.000 N 
ATOM     33  C   UNL     1     -59.565 -72.439  45.472  0.00  0.00    +0.000 C 
ATOM     34  H   UNL     1     -59.709 -74.037  44.191  0.00  0.00    +0.000 HD
BRANCH  33  35
ATOM     35  O   UNL     1     -58.330 -72.973  45.761  0.00  0.00    +0.000 OA
ATOM     36  C   UNL     1     -58.186 -74.370  45.730  0.00  0.00    +0.000 C 
ENDBRANCH  33  35
ENDBRANCH  28  29
ENDBRANCH  20  28
ENDBRANCH   3  23
BRANCH   1  37
ATOM     37  C   UNL     1     -62.309 -72.475  37.095  0.00  0.00    +0.000 C 
ATOM     38  C   UNL     1     -62.937 -72.774  35.745  0.00  0.00    +0.000 C 
ATOM     39  C   UNL     1     -61.325 -73.508  37.606  0.00  0.00    +0.000 C 
ENDBRANCH   1  37
TORSDOF 8
ENDMDL
MODEL 4
REMARK VINA RESULT:      -6.3      4.243      8.935
REMARK  Name = 50922675_Encorafenib.pdbqt.pdb
REMARK  8 active torsions:
REMARK  status: ('A' for Active; 'I' for Inactive)
REMARK    1  A    between atoms: N_1  and  C_37
REMARK    2  A    between atoms: C_3  and  C_23
REMARK    3  A    between atoms: C_4  and  C_8
REMARK    4  A    between atoms: C_11  and  N_14
REMARK    5  A    between atoms: N_14  and  S_16
REMARK    6  A    between atoms: N_20  and  C_28
REMARK    7  A    between atoms: C_28  and  C_29
REMARK    8  A    between atoms: C_33  and  O_35
REMARK                            x       y       z     vdW  Elec       q    Type
REMARK                         _______ _______ _______ _____ _____    ______ ____
ROOT
ATOM      1  N   UNL     1     -60.654 -72.542  44.022  0.00  0.00    +0.000 N 
ATOM      2  N   UNL     1     -61.759 -72.201  43.268  0.00  0.00    +0.000 NA
ATOM      3  C   UNL     1     -59.909 -71.256  42.322  0.00  0.00    +0.000 A 
ATOM      4  C   UNL     1     -61.314 -71.460  42.241  0.00  0.00    +0.000 A 
ATOM      5  C   UNL     1     -59.537 -71.948  43.450  0.00  0.00    +0.000 A 
ENDROOT
BRANCH   4   8
ATOM      6 CL   UNL     1     -62.907 -71.313  37.346  0.00  0.00    +0.000 Cl
ATOM      7  F   UNL     1     -63.435 -69.663  42.908  0.00  0.00    +0.000 F 
ATOM      8  C   UNL     1     -62.275 -70.953  41.269  0.00  0.00    +0.000 A 
ATOM      9  C   UNL     1     -63.287 -70.057  41.633  0.00  0.00    +0.000 A 
ATOM     10  C   UNL     1     -62.153 -71.320  39.928  0.00  0.00    +0.000 A 
ATOM     11  C   UNL     1     -64.179 -69.554  40.680  0.00  0.00    +0.000 A 
ATOM     12  C   UNL     1     -63.037 -70.817  38.980  0.00  0.00    +0.000 A 
ATOM     13  C   UNL     1     -64.038 -69.924  39.345  0.00  0.00    +0.000 A 
BRANCH  11  14
ATOM     14  N   UNL     1     -65.143 -68.559  41.059  0.00  0.00    +0.000 N 
ATOM     15  H   UNL     1     -64.960 -68.152  41.980  0.00  0.00    +0.000 HD
BRANCH  14  16
ATOM     16  S   UNL     1     -66.765 -68.975  40.995  0.00  0.00    +0.000 S 
ATOM     17  O   UNL     1     -67.528 -68.276  41.995  0.00  0.00    +0.000 OA
ATOM     18  O   UNL     1     -67.233 -69.339  39.676  0.00  0.00    +0.000 OA
ATOM     19  C   UNL     1     -66.862 -70.583  41.721  0.00  0.00    +0.000 C 
ENDBRANCH  14  16
ENDBRANCH  11  14
ENDBRANCH   4   8
BRANCH   3  23
ATOM     20  N   UNL     1     -58.267 -67.135  40.616  0.00  0.00    +0.000 N 
ATOM     21  N   UNL     1     -59.065 -69.209  41.449  0.00  0.00    +0.000 NA
ATOM     22  N   UNL     1     -57.249 -69.112  39.944  0.00  0.00    +0.000 NA
ATOM     23  C   UNL     1     -58.958 -70.550  41.479  0.00  0.00    +0.000 A 
ATOM     24  C   UNL     1     -58.200 -68.527  40.677  0.00  0.00    +0.000 A 
ATOM     25  C   UNL     1     -58.013 -71.242  40.756  0.00  0.00    +0.000 A 
ATOM     26  C   UNL     1     -57.181 -70.454  40.002  0.00  0.00    +0.000 A 
ATOM     27  H   UNL     1     -57.715 -66.823  39.825  0.00  0.00    +0.000 HD
BRANCH  20  28
ATOM     28  C   UNL     1     -59.572 -66.525  40.839  0.00  0.00    +0.000 C 
BRANCH  28  29
ATOM     29  C   UNL     1     -60.783 -65.850  41.137  0.00  0.00    +0.000 C 
ATOM     30  C   UNL     1     -62.014 -66.680  41.346  0.00  0.00    +0.000 C 
ATOM     31  O   UNL     1     -58.779 -63.800  40.916  0.00  0.00    +0.000 OA
ATOM     32  N   UNL     1     -60.884 -64.539  41.458  0.00  0.00    +0.000 N 
ATOM     33  C   UNL     1     -59.897 -63.592  41.376  0.00  0.00    +0.000 C 
ATOM     34  H   UNL     1     -61.786 -64.256  41.829  0.00  0.00    +0.000 HD
BRANCH  33  35
ATOM     35  O   UNL     1     -60.360 -62.395  41.872  0.00  0.00    +0.000 OA
ATOM     36  C   UNL     1     -59.683 -61.218  41.509  0.00  0.00    +0.000 C 
ENDBRANCH  33  35
ENDBRANCH  28  29
ENDBRANCH  20  28
ENDBRANCH   3  23
BRANCH   1  37
ATOM     37  C   UNL     1     -60.608 -73.342  45.190  0.00  0.00    +0.000 C 
ATOM     38  C   UNL     1     -60.988 -74.813  45.174  0.00  0.00    +0.000 C 
ATOM     39  C   UNL     1     -60.159 -72.793  46.529  0.00  0.00    +0.000 C 
ENDBRANCH   1  37
TORSDOF 8
ENDMDL
MODEL 5
REMARK VINA RESULT:      -6.3      4.624      8.135
REMARK  Name = 50922675_Encorafenib.pdbqt.pdb
REMARK  8 active torsions:
REMARK  status: ('A' for Active; 'I' for Inactive)
REMARK    1  A    between atoms: N_1  and  C_37
REMARK    2  A    between atoms: C_3  and  C_23
REMARK    3  A    between atoms: C_4  and  C_8
REMARK    4  A    between atoms: C_11  and  N_14
REMARK    5  A    between atoms: N_14  and  S_16
REMARK    6  A    between atoms: N_20  and  C_28
REMARK    7  A    between atoms: C_28  and  C_29
REMARK    8  A    between atoms: C_33  and  O_35
REMARK                            x       y       z     vdW  Elec       q    Type
REMARK                         _______ _______ _______ _____ _____    ______ ____
ROOT
ATOM      1  N   UNL     1     -59.743 -72.487  44.337  0.00  0.00    +0.000 N 
ATOM      2  N   UNL     1     -60.938 -72.443  43.648  0.00  0.00    +0.000 NA
ATOM      3  C   UNL     1     -59.372 -71.273  42.470  0.00  0.00    +0.000 A 
ATOM      4  C   UNL     1     -60.712 -71.745  42.524  0.00  0.00    +0.000 A 
ATOM      5  C   UNL     1     -58.802 -71.758  43.623  0.00  0.00    +0.000 A 
ENDROOT
BRANCH   4   8
ATOM      6 CL   UNL     1     -62.774 -72.737  37.910  0.00  0.00    +0.000 Cl
ATOM      7  F   UNL     1     -62.947 -70.049  43.076  0.00  0.00    +0.000 F 
ATOM      8  C   UNL     1     -61.812 -71.535  41.591  0.00  0.00    +0.000 A 
ATOM      9  C   UNL     1     -62.879 -70.678  41.892  0.00  0.00    +0.000 A 
ATOM     10  C   UNL     1     -61.779 -72.153  40.340  0.00  0.00    +0.000 A 
ATOM     11  C   UNL     1     -63.908 -70.461  40.970  0.00  0.00    +0.000 A 
ATOM     12  C   UNL     1     -62.801 -71.934  39.423  0.00  0.00    +0.000 A 
ATOM     13  C   UNL     1     -63.856 -71.080  39.723  0.00  0.00    +0.000 A 
BRANCH  11  14
ATOM     14  N   UNL     1     -64.937 -69.502  41.261  0.00  0.00    +0.000 N 
ATOM     15  H   UNL     1     -64.574 -68.632  41.661  0.00  0.00    +0.000 HD
BRANCH  14  16
ATOM     16  S   UNL     1     -66.230 -70.000  42.203  0.00  0.00    +0.000 S 
ATOM     17  O   UNL     1     -66.783 -71.239  41.727  0.00  0.00    +0.000 OA
ATOM     18  O   UNL     1     -66.151 -69.585  43.586  0.00  0.00    +0.000 OA
ATOM     19  C   UNL     1     -67.577 -68.956  41.731  0.00  0.00    +0.000 C 
ENDBRANCH  14  16
ENDBRANCH  11  14
ENDBRANCH   4   8
BRANCH   3  23
ATOM     20  N   UNL     1     -58.671 -67.120  40.267  0.00  0.00    +0.000 N 
ATOM     21  N   UNL     1     -58.997 -69.208  41.347  0.00  0.00    +0.000 NA
ATOM     22  N   UNL     1     -57.335 -68.933  39.694  0.00  0.00    +0.000 NA
ATOM     23  C   UNL     1     -58.631 -70.495  41.490  0.00  0.00    +0.000 A 
ATOM     24  C   UNL     1     -58.333 -68.462  40.448  0.00  0.00    +0.000 A 
ATOM     25  C   UNL     1     -57.619 -71.071  40.756  0.00  0.00    +0.000 A 
ATOM     26  C   UNL     1     -57.005 -70.225  39.868  0.00  0.00    +0.000 A 
ATOM     27  H   UNL     1     -58.242 -66.796  39.407  0.00  0.00    +0.000 HD
BRANCH  20  28
ATOM     28  C   UNL     1     -60.053 -66.745  40.542  0.00  0.00    +0.000 C 
BRANCH  28  29
ATOM     29  C   UNL     1     -61.404 -66.485  40.884  0.00  0.00    +0.000 C 
ATOM     30  C   UNL     1     -61.671 -65.480  41.964  0.00  0.00    +0.000 C 
ATOM     31  O   UNL     1     -61.495 -68.404  38.744  0.00  0.00    +0.000 OA
ATOM     32  N   UNL     1     -62.480 -66.906  40.179  0.00  0.00    +0.000 N 
ATOM     33  C   UNL     1     -62.485 -67.796  39.137  0.00  0.00    +0.000 C 
ATOM     34  H   UNL     1     -63.362 -66.477  40.444  0.00  0.00    +0.000 HD
BRANCH  33  35
ATOM     35  O   UNL     1     -63.758 -67.903  38.625  0.00  0.00    +0.000 OA
ATOM     36  C   UNL     1     -64.651 -66.838  38.833  0.00  0.00    +0.000 C 
ENDBRANCH  33  35
ENDBRANCH  28  29
ENDBRANCH  20  28
ENDBRANCH   3  23
BRANCH   1  37
ATOM     37  C   UNL     1     -59.468 -73.136  45.566  0.00  0.00    +0.000 C 
ATOM     38  C   UNL     1     -60.473 -73.164  46.705  0.00  0.00    +0.000 C 
ATOM     39  C   UNL     1     -58.162 -73.860  45.823  0.00  0.00    +0.000 C 
ENDBRANCH   1  37
TORSDOF 8
ENDMDL
MODEL 6
REMARK VINA RESULT:      -6.2      6.708     10.800
REMARK  Name = 50922675_Encorafenib.pdbqt.pdb
REMARK  8 active torsions:
REMARK  status: ('A' for Active; 'I' for Inactive)
REMARK    1  A    between atoms: N_1  and  C_37
REMARK    2  A    between atoms: C_3  and  C_23
REMARK    3  A    between atoms: C_4  and  C_8
REMARK    4  A    between atoms: C_11  and  N_14
REMARK    5  A    between atoms: N_14  and  S_16
REMARK    6  A    between atoms: N_20  and  C_28
REMARK    7  A    between atoms: C_28  and  C_29
REMARK    8  A    between atoms: C_33  and  O_35
REMARK                            x       y       z     vdW  Elec       q    Type
REMARK                         _______ _______ _______ _____ _____    ______ ____
ROOT
ATOM      1  N   UNL     1     -59.149 -72.042  43.866  0.00  0.00    +0.000 N 
ATOM      2  N   UNL     1     -60.187 -71.376  43.247  0.00  0.00    +0.000 NA
ATOM      3  C   UNL     1     -58.356 -71.302  41.885  0.00  0.00    +0.000 A 
ATOM      4  C   UNL     1     -59.726 -70.960  42.057  0.00  0.00    +0.000 A 
ATOM      5  C   UNL     1     -58.035 -71.977  43.039  0.00  0.00    +0.000 A 
ENDROOT
BRANCH   4   8
ATOM      6 CL   UNL     1     -63.650 -71.055  38.723  0.00  0.00    +0.000 Cl
ATOM      7  F   UNL     1     -59.555 -68.133  41.662  0.00  0.00    +0.000 F 
ATOM      8  C   UNL     1     -60.617 -70.215  41.176  0.00  0.00    +0.000 A 
ATOM      9  C   UNL     1     -60.487 -68.833  40.994  0.00  0.00    +0.000 A 
ATOM     10  C   UNL     1     -61.591 -70.899  40.448  0.00  0.00    +0.000 A 
ATOM     11  C   UNL     1     -61.329 -68.140  40.118  0.00  0.00    +0.000 A 
ATOM     12  C   UNL     1     -62.426 -70.211  39.574  0.00  0.00    +0.000 A 
ATOM     13  C   UNL     1     -62.290 -68.840  39.393  0.00  0.00    +0.000 A 
BRANCH  11  14
ATOM     14  N   UNL     1     -61.110 -66.742  39.872  0.00  0.00    +0.000 N 
ATOM     15  H   UNL     1     -60.119 -66.501  39.777  0.00  0.00    +0.000 HD
BRANCH  14  16
ATOM     16  S   UNL     1     -61.807 -65.641  40.926  0.00  0.00    +0.000 S 
ATOM     17  O   UNL     1     -61.047 -65.521  42.141  0.00  0.00    +0.000 OA
ATOM     18  O   UNL     1     -62.533 -64.574  40.274  0.00  0.00    +0.000 OA
ATOM     19  C   UNL     1     -63.204 -66.477  41.614  0.00  0.00    +0.000 C 
ENDBRANCH  14  16
ENDBRANCH  11  14
ENDBRANCH   4   8
BRANCH   3  23
ATOM     20  N   UNL     1     -55.539 -73.164  38.540  0.00  0.00    +0.000 N 
ATOM     21  N   UNL     1     -56.935 -72.204  40.202  0.00  0.00    +0.000 NA
ATOM     22  N   UNL     1     -55.632 -70.854  38.769  0.00  0.00    +0.000 NA
ATOM     23  C   UNL     1     -57.409 -71.096  40.801  0.00  0.00    +0.000 A 
ATOM     24  C   UNL     1     -56.056 -72.047  39.197  0.00  0.00    +0.000 A 
ATOM     25  C   UNL     1     -57.029 -69.825  40.434  0.00  0.00    +0.000 A 
ATOM     26  C   UNL     1     -56.130 -69.775  39.399  0.00  0.00    +0.000 A 
ATOM     27  H   UNL     1     -54.737 -72.871  37.994  0.00  0.00    +0.000 HD
BRANCH  20  28
ATOM     28  C   UNL     1     -55.446 -74.399  39.310  0.00  0.00    +0.000 C 
BRANCH  28  29
ATOM     29  C   UNL     1     -55.286 -75.648  39.961  0.00  0.00    +0.000 C 
ATOM     30  C   UNL     1     -56.374 -76.098  40.889  0.00  0.00    +0.000 C 
ATOM     31  O   UNL     1     -52.974 -75.342  38.279  0.00  0.00    +0.000 OA
ATOM     32  N   UNL     1     -54.341 -76.568  39.657  0.00  0.00    +0.000 N 
ATOM     33  C   UNL     1     -53.268 -76.403  38.820  0.00  0.00    +0.000 C 
ATOM     34  H   UNL     1     -54.480 -77.482  40.078  0.00  0.00    +0.000 HD
BRANCH  33  35
ATOM     35  O   UNL     1     -52.585 -77.591  38.701  0.00  0.00    +0.000 OA
ATOM     36  C   UNL     1     -51.947 -78.109  39.841  0.00  0.00    +0.000 C 
ENDBRANCH  33  35
ENDBRANCH  28  29
ENDBRANCH  20  28
ENDBRANCH   3  23
BRANCH   1  37
ATOM     37  C   UNL     1     -59.155 -72.689  45.127  0.00  0.00    +0.000 C 
ATOM     38  C   UNL     1     -58.013 -73.582  45.579  0.00  0.00    +0.000 C 
ATOM     39  C   UNL     1     -60.290 -72.520  46.115  0.00  0.00    +0.000 C 
ENDBRANCH   1  37
TORSDOF 8
ENDMDL
MODEL 7
REMARK VINA RESULT:      -6.2      5.104      8.556
REMARK  Name = 50922675_Encorafenib.pdbqt.pdb
REMARK  8 active torsions:
REMARK  status: ('A' for Active; 'I' for Inactive)
REMARK    1  A    between atoms: N_1  and  C_37
REMARK    2  A    between atoms: C_3  and  C_23
REMARK    3  A    between atoms: C_4  and  C_8
REMARK    4  A    between atoms: C_11  and  N_14
REMARK    5  A    between atoms: N_14  and  S_16
REMARK    6  A    between atoms: N_20  and  C_28
REMARK    7  A    between atoms: C_28  and  C_29
REMARK    8  A    between atoms: C_33  and  O_35
REMARK                            x       y       z     vdW  Elec       q    Type
REMARK                         _______ _______ _______ _____ _____    ______ ____
ROOT
ATOM      1  N   UNL     1     -59.702 -72.498  44.387  0.00  0.00    +0.000 N 
ATOM      2  N   UNL     1     -60.913 -72.408  43.732  0.00  0.00    +0.000 NA
ATOM      3  C   UNL     1     -59.340 -71.282  42.520  0.00  0.00    +0.000 A 
ATOM      4  C   UNL     1     -60.694 -71.709  42.607  0.00  0.00    +0.000 A 
ATOM      5  C   UNL     1     -58.756 -71.795  43.653  0.00  0.00    +0.000 A 
ENDROOT
BRANCH   4   8
ATOM      6 CL   UNL     1     -65.074 -69.157  41.700  0.00  0.00    +0.000 Cl
ATOM      7  F   UNL     1     -61.035 -73.039  40.099  0.00  0.00    +0.000 F 
ATOM      8  C   UNL     1     -61.811 -71.453  41.707  0.00  0.00    +0.000 A 
ATOM      9  C   UNL     1     -61.953 -72.142  40.495  0.00  0.00    +0.000 A 
ATOM     10  C   UNL     1     -62.800 -70.542  42.081  0.00  0.00    +0.000 A 
ATOM     11  C   UNL     1     -63.050 -71.908  39.659  0.00  0.00    +0.000 A 
ATOM     12  C   UNL     1     -63.892 -70.313  41.252  0.00  0.00    +0.000 A 
ATOM     13  C   UNL     1     -64.032 -71.002  40.053  0.00  0.00    +0.000 A 
BRANCH  11  14
ATOM     14  N   UNL     1     -63.226 -72.699  38.474  0.00  0.00    +0.000 N 
ATOM     15  H   UNL     1     -63.064 -73.698  38.629  0.00  0.00    +0.000 HD
BRANCH  14  16
ATOM     16  S   UNL     1     -62.381 -72.249  37.098  0.00  0.00    +0.000 S 
ATOM     17  O   UNL     1     -62.576 -70.858  36.791  0.00  0.00    +0.000 OA
ATOM     18  O   UNL     1     -61.166 -73.002  36.876  0.00  0.00    +0.000 OA
ATOM     19  C   UNL     1     -63.307 -72.912  35.747  0.00  0.00    +0.000 C 
ENDBRANCH  14  16
ENDBRANCH  11  14
ENDBRANCH   4   8
BRANCH   3  23
ATOM     20  N   UNL     1     -58.640 -67.168  40.245  0.00  0.00    +0.000 N 
ATOM     21  N   UNL     1     -58.966 -69.237  41.361  0.00  0.00    +0.000 NA
ATOM     22  N   UNL     1     -57.307 -68.991  39.701  0.00  0.00    +0.000 NA
ATOM     23  C   UNL     1     -58.601 -70.521  41.525  0.00  0.00    +0.000 A 
ATOM     24  C   UNL     1     -58.303 -68.506  40.448  0.00  0.00    +0.000 A 
ATOM     25  C   UNL     1     -57.590 -71.111  40.800  0.00  0.00    +0.000 A 
ATOM     26  C   UNL     1     -56.977 -70.280  39.896  0.00  0.00    +0.000 A 
ATOM     27  H   UNL     1     -58.212 -66.859  39.379  0.00  0.00    +0.000 HD
BRANCH  20  28
ATOM     28  C   UNL     1     -60.021 -66.787  40.515  0.00  0.00    +0.000 C 
BRANCH  28  29
ATOM     29  C   UNL     1     -61.371 -66.519  40.857  0.00  0.00    +0.000 C 
ATOM     30  C   UNL     1     -61.635 -65.492  41.916  0.00  0.00    +0.000 C 
ATOM     31  O   UNL     1     -61.470 -68.482  38.757  0.00  0.00    +0.000 OA
ATOM     32  N   UNL     1     -62.449 -66.954  40.164  0.00  0.00    +0.000 N 
ATOM     33  C   UNL     1     -62.459 -67.865  39.140  0.00  0.00    +0.000 C 
ATOM     34  H   UNL     1     -63.331 -66.520  40.423  0.00  0.00    +0.000 HD
BRANCH  33  35
ATOM     35  O   UNL     1     -63.733 -67.982  38.634  0.00  0.00    +0.000 OA
ATOM     36  C   UNL     1     -64.619 -66.905  38.807  0.00  0.00    +0.000 C 
ENDBRANCH  33  35
ENDBRANCH  28  29
ENDBRANCH  20  28
ENDBRANCH   3  23
BRANCH   1  37
ATOM     37  C   UNL     1     -59.415 -73.166  45.604  0.00  0.00    +0.000 C 
ATOM     38  C   UNL     1     -60.380 -73.152  46.777  0.00  0.00    +0.000 C 
ATOM     39  C   UNL     1     -58.137 -73.953  45.812  0.00  0.00    +0.000 C 
ENDBRANCH   1  37
TORSDOF 8
ENDMDL
MODEL 8
REMARK VINA RESULT:      -6.2      3.771      4.793
REMARK  Name = 50922675_Encorafenib.pdbqt.pdb
REMARK  8 active torsions:
REMARK  status: ('A' for Active; 'I' for Inactive)
REMARK    1  A    between atoms: N_1  and  C_37
REMARK    2  A    between atoms: C_3  and  C_23
REMARK    3  A    between atoms: C_4  and  C_8
REMARK    4  A    between atoms: C_11  and  N_14
REMARK    5  A    between atoms: N_14  and  S_16
REMARK    6  A    between atoms: N_20  and  C_28
REMARK    7  A    between atoms: C_28  and  C_29
REMARK    8  A    between atoms: C_33  and  O_35
REMARK                            x       y       z     vdW  Elec       q    Type
REMARK                         _______ _______ _______ _____ _____    ______ ____
ROOT
ATOM      1  N   UNL     1     -62.730 -71.515  38.887  0.00  0.00    +0.000 N 
ATOM      2  N   UNL     1     -62.415 -70.224  38.514  0.00  0.00    +0.000 NA
ATOM      3  C   UNL     1     -64.192 -70.159  39.945  0.00  0.00    +0.000 A 
ATOM      4  C   UNL     1     -63.266 -69.415  39.164  0.00  0.00    +0.000 A 
ATOM      5  C   UNL     1     -63.822 -71.467  39.743  0.00  0.00    +0.000 A 
ENDROOT
BRANCH   4   8
ATOM      6 CL   UNL     1     -64.005 -65.392  36.035  0.00  0.00    +0.000 Cl
ATOM      7  F   UNL     1     -62.194 -67.612  41.107  0.00  0.00    +0.000 F 
ATOM      8  C   UNL     1     -63.166 -67.975  38.958  0.00  0.00    +0.000 A 
ATOM      9  C   UNL     1     -62.615 -67.128  39.927  0.00  0.00    +0.000 A 
ATOM     10  C   UNL     1     -63.576 -67.426  37.741  0.00  0.00    +0.000 A 
ATOM     11  C   UNL     1     -62.496 -65.754  39.698  0.00  0.00    +0.000 A 
ATOM     12  C   UNL     1     -63.454 -66.060  37.512  0.00  0.00    +0.000 A 
ATOM     13  C   UNL     1     -62.902 -65.224  38.476  0.00  0.00    +0.000 A 
BRANCH  11  14
ATOM     14  N   UNL     1     -61.836 -64.923  40.665  0.00  0.00    +0.000 N 
ATOM     15  H   UNL     1     -61.005 -65.362  41.073  0.00  0.00    +0.000 HD
BRANCH  14  16
ATOM     16  S   UNL     1     -62.754 -64.297  41.920  0.00  0.00    +0.000 S 
ATOM     17  O   UNL     1     -63.663 -63.285  41.454  0.00  0.00    +0.000 OA
ATOM     18  O   UNL     1     -63.008 -65.233  42.993  0.00  0.00    +0.000 OA
ATOM     19  C   UNL     1     -61.660 -63.228  42.807  0.00  0.00    +0.000 C 
ENDBRANCH  14  16
ENDBRANCH  11  14
ENDBRANCH   4   8
BRANCH   3  23
ATOM     20  N   UNL     1     -66.701 -70.956  43.903  0.00  0.00    +0.000 N 
ATOM     21  N   UNL     1     -65.469 -70.533  41.918  0.00  0.00    +0.000 NA
ATOM     22  N   UNL     1     -67.295 -69.171  42.540  0.00  0.00    +0.000 NA
ATOM     23  C   UNL     1     -65.287 -69.775  40.822  0.00  0.00    +0.000 A 
ATOM     24  C   UNL     1     -66.474 -70.205  42.749  0.00  0.00    +0.000 A 
ATOM     25  C   UNL     1     -66.082 -68.693  40.518  0.00  0.00    +0.000 A 
ATOM     26  C   UNL     1     -67.077 -68.443  41.429  0.00  0.00    +0.000 A 
ATOM     27  H   UNL     1     -67.618 -70.717  44.265  0.00  0.00    +0.000 HD
BRANCH  20  28
ATOM     28  C   UNL     1     -66.312 -72.361  43.863  0.00  0.00    +0.000 C 
BRANCH  28  29
ATOM     29  C   UNL     1     -66.026 -73.744  43.734  0.00  0.00    +0.000 C 
ATOM     30  C   UNL     1     -67.182 -74.695  43.677  0.00  0.00    +0.000 C 
ATOM     31  O   UNL     1     -63.476 -72.413  43.719  0.00  0.00    +0.000 OA
ATOM     32  N   UNL     1     -64.809 -74.263  43.447  0.00  0.00    +0.000 N 
ATOM     33  C   UNL     1     -63.614 -73.592  43.411  0.00  0.00    +0.000 C 
ATOM     34  H   UNL     1     -64.810 -75.248  43.200  0.00  0.00    +0.000 HD
BRANCH  33  35
ATOM     35  O   UNL     1     -62.616 -74.443  42.996  0.00  0.00    +0.000 OA
ATOM     36  C   UNL     1     -62.631 -74.886  41.662  0.00  0.00    +0.000 C 
ENDBRANCH  33  35
ENDBRANCH  28  29
ENDBRANCH  20  28
ENDBRANCH   3  23
BRANCH   1  37
ATOM     37  C   UNL     1     -62.094 -72.718  38.491  0.00  0.00    +0.000 C 
ATOM     38  C   UNL     1     -60.692 -73.078  38.952  0.00  0.00    +0.000 C 
ATOM     39  C   UNL     1     -62.774 -73.734  37.595  0.00  0.00    +0.000 C 
ENDBRANCH   1  37
TORSDOF 8
ENDMDL
MODEL 9
REMARK VINA RESULT:      -6.1      5.306      9.378
REMARK  Name = 50922675_Encorafenib.pdbqt.pdb
REMARK  8 active torsions:
REMARK  status: ('A' for Active; 'I' for Inactive)
REMARK    1  A    between atoms: N_1  and  C_37
REMARK    2  A    between atoms: C_3  and  C_23
REMARK    3  A    between atoms: C_4  and  C_8
REMARK    4  A    between atoms: C_11  and  N_14
REMARK    5  A    between atoms: N_14  and  S_16
REMARK    6  A    between atoms: N_20  and  C_28
REMARK    7  A    between atoms: C_28  and  C_29
REMARK    8  A    between atoms: C_33  and  O_35
REMARK                            x       y       z     vdW  Elec       q    Type
REMARK                         _______ _______ _______ _____ _____    ______ ____
ROOT
ATOM      1  N   UNL     1     -59.717 -72.557  44.438  0.00  0.00    +0.000 N 
ATOM      2  N   UNL     1     -60.923 -72.507  43.768  0.00  0.00    +0.000 NA
ATOM      3  C   UNL     1     -59.351 -71.407  42.530  0.00  0.00    +0.000 A 
ATOM      4  C   UNL     1     -60.700 -71.848  42.620  0.00  0.00    +0.000 A 
ATOM      5  C   UNL     1     -58.772 -71.870  43.688  0.00  0.00    +0.000 A 
ENDROOT
BRANCH   4   8
ATOM      6 CL   UNL     1     -65.197 -69.530  41.655  0.00  0.00    +0.000 Cl
ATOM      7  F   UNL     1     -60.914 -73.155  40.085  0.00  0.00    +0.000 F 
ATOM      8  C   UNL     1     -61.811 -71.641  41.699  0.00  0.00    +0.000 A 
ATOM      9  C   UNL     1     -61.889 -72.317  40.475  0.00  0.00    +0.000 A 
ATOM     10  C   UNL     1     -62.857 -70.792  42.065  0.00  0.00    +0.000 A 
ATOM     11  C   UNL     1     -62.980 -72.132  39.619  0.00  0.00    +0.000 A 
ATOM     12  C   UNL     1     -63.943 -70.611  41.216  0.00  0.00    +0.000 A 
ATOM     13  C   UNL     1     -64.019 -71.288  40.004  0.00  0.00    +0.000 A 
BRANCH  11  14
ATOM     14  N   UNL     1     -63.086 -72.912  38.418  0.00  0.00    +0.000 N 
ATOM     15  H   UNL     1     -62.851 -73.899  38.558  0.00  0.00    +0.000 HD
BRANCH  14  16
ATOM     16  S   UNL     1     -62.266 -72.377  37.059  0.00  0.00    +0.000 S 
ATOM     17  O   UNL     1     -62.518 -70.983  36.806  0.00  0.00    +0.000 OA
ATOM     18  O   UNL     1     -61.023 -73.070  36.805  0.00  0.00    +0.000 OA
ATOM     19  C   UNL     1     -63.170 -73.024  35.685  0.00  0.00    +0.000 C 
ENDBRANCH  14  16
ENDBRANCH  11  14
ENDBRANCH   4   8
BRANCH   3  23
ATOM     20  N   UNL     1     -58.405 -67.277  40.377  0.00  0.00    +0.000 N 
ATOM     21  N   UNL     1     -58.857 -69.355  41.430  0.00  0.00    +0.000 NA
ATOM     22  N   UNL     1     -57.301 -69.192  39.663  0.00  0.00    +0.000 NA
ATOM     23  C   UNL     1     -58.611 -70.675  41.515  0.00  0.00    +0.000 A 
ATOM     24  C   UNL     1     -58.189 -68.650  40.501  0.00  0.00    +0.000 A 
ATOM     25  C   UNL     1     -57.717 -71.325  40.694  0.00  0.00    +0.000 A 
ATOM     26  C   UNL     1     -57.089 -70.515  39.781  0.00  0.00    +0.000 A 
ATOM     27  H   UNL     1     -58.010 -66.970  39.495  0.00  0.00    +0.000 HD
BRANCH  20  28
ATOM     28  C   UNL     1     -59.719 -66.777  40.765  0.00  0.00    +0.000 C 
BRANCH  28  29
ATOM     29  C   UNL     1     -61.020 -66.409  41.191  0.00  0.00    +0.000 C 
ATOM     30  C   UNL     1     -62.077 -67.471  41.208  0.00  0.00    +0.000 C 
ATOM     31  O   UNL     1     -59.417 -64.033  41.430  0.00  0.00    +0.000 OA
ATOM     32  N   UNL     1     -61.340 -65.235  41.785  0.00  0.00    +0.000 N 
ATOM     33  C   UNL     1     -60.538 -64.132  41.916  0.00  0.00    +0.000 C 
ATOM     34  H   UNL     1     -62.266 -65.204  42.202  0.00  0.00    +0.000 HD
BRANCH  33  35
ATOM     35  O   UNL     1     -61.190 -63.170  42.654  0.00  0.00    +0.000 OA
ATOM     36  C   UNL     1     -62.151 -63.587  43.590  0.00  0.00    +0.000 C 
ENDBRANCH  33  35
ENDBRANCH  28  29
ENDBRANCH  20  28
ENDBRANCH   3  23
BRANCH   1  37
ATOM     37  C   UNL     1     -59.435 -73.175  45.682  0.00  0.00    +0.000 C 
ATOM     38  C   UNL     1     -60.387 -73.080  46.863  0.00  0.00    +0.000 C 
ATOM     39  C   UNL     1     -58.177 -73.985  45.914  0.00  0.00    +0.000 C 
ENDBRANCH   1  37
TORSDOF 8
ENDMDL
