MODEL 1
REMARK VINA RESULT:      -7.5      0.000      0.000
REMARK  Name = 5109870_Ethoxyphenyl.pdbqt.pdb
REMARK  6 active torsions:
REMARK  status: ('A' for Active; 'I' for Inactive)
REMARK    1  A    between atoms: N_2  and  C_22
REMARK    2  A    between atoms: C_3  and  O_11
REMARK    3  A    between atoms: C_3  and  C_13
REMARK    4  A    between atoms: C_16  and  N_19
REMARK    5  A    between atoms: C_25  and  O_28
REMARK    6  A    between atoms: O_28  and  C_29
REMARK                            x       y       z     vdW  Elec       q    Type
REMARK                         _______ _______ _______ _____ _____    ______ ____
ROOT
ATOM      1  N   UNL     1     -60.864 -66.893  41.495  0.00  0.00    +0.000 N 
ATOM      2  N   UNL     1     -63.242 -67.200  41.402  0.00  0.00    +0.000 N 
ATOM      3  C   UNL     1     -61.370 -65.678  40.811  0.00  0.00    +0.000 C 
ATOM      4  C   UNL     1     -62.032 -67.817  41.650  0.00  0.00    +0.000 C 
ATOM      5  C   UNL     1     -62.811 -65.913  40.924  0.00  0.00    +0.000 C 
ATOM      6  C   UNL     1     -59.692 -67.565  40.936  0.00  0.00    +0.000 C 
ATOM      7  C   UNL     1     -61.855 -69.230  41.576  0.00  0.00    +0.000 C 
ATOM      8  C   UNL     1     -58.948 -68.852  40.542  0.00  0.00    +0.000 C 
ATOM      9  C   UNL     1     -60.940 -70.404  41.192  0.00  0.00    +0.000 C 
ATOM     10  C   UNL     1     -59.516 -70.263  40.665  0.00  0.00    +0.000 C 
ENDROOT
BRANCH   3  11
ATOM     11  C   UNL     1     -60.878 -64.417  41.482  0.00  0.00    +0.000 A 
ATOM     12  C   UNL     1     -61.358 -64.020  42.738  0.00  0.00    +0.000 A 
ATOM     13  C   UNL     1     -60.867 -62.880  43.368  0.00  0.00    +0.000 A 
ATOM     14  C   UNL     1     -59.875 -62.136  42.737  0.00  0.00    +0.000 A 
ATOM     15  C   UNL     1     -59.365 -62.509  41.498  0.00  0.00    +0.000 A 
ATOM     16  C   UNL     1     -59.866 -63.652  40.881  0.00  0.00    +0.000 A 
BRANCH  14  17
ATOM     17  N   UNL     1     -59.361 -60.946  43.387  0.00  0.00    +0.000 N 
ATOM     18  O   UNL     1     -59.900 -59.864  43.113  0.00  0.00    +0.000 OA
ATOM     19  O   UNL     1     -58.415 -61.083  44.175  0.00  0.00    +0.000 OA
ENDBRANCH  14  17
ENDBRANCH   3  11
BRANCH   2  20
ATOM     20  C   UNL     1     -64.536 -67.709  41.210  0.00  0.00    +0.000 A 
ATOM     21  C   UNL     1     -65.027 -68.028  39.940  0.00  0.00    +0.000 A 
ATOM     22  C   UNL     1     -66.306 -68.555  39.762  0.00  0.00    +0.000 A 
ATOM     23  C   UNL     1     -67.127 -68.785  40.863  0.00  0.00    +0.000 A 
ATOM     24  C   UNL     1     -66.657 -68.485  42.138  0.00  0.00    +0.000 A 
ATOM     25  C   UNL     1     -65.376 -67.958  42.305  0.00  0.00    +0.000 A 
BRANCH  23  26
ATOM     26  O   UNL     1     -68.397 -69.299  40.797  0.00  0.00    +0.000 OA
BRANCH  26  27
ATOM     27  C   UNL     1     -68.717 -69.852  39.630  0.00  0.00    +0.000 C 
ATOM     28  C   UNL     1     -69.102 -70.483  38.287  0.00  0.00    +0.000 C 
ENDBRANCH  26  27
ENDBRANCH  23  26
ENDBRANCH   2  20
BRANCH   3  29
ATOM     29  O   UNL     1     -61.044 -65.638  39.428  0.00  0.00    +0.000 OA
ATOM     30  H   UNL     1     -60.074 -65.600  39.397  0.00  0.00    +0.000 HD
ENDBRANCH   3  29
TORSDOF 6
ENDMDL
MODEL 2
REMARK VINA RESULT:      -7.2     35.462     37.275
REMARK  Name = 5109870_Ethoxyphenyl.pdbqt.pdb
REMARK  6 active torsions:
REMARK  status: ('A' for Active; 'I' for Inactive)
REMARK    1  A    between atoms: N_2  and  C_22
REMARK    2  A    between atoms: C_3  and  O_11
REMARK    3  A    between atoms: C_3  and  C_13
REMARK    4  A    between atoms: C_16  and  N_19
REMARK    5  A    between atoms: C_25  and  O_28
REMARK    6  A    between atoms: O_28  and  C_29
REMARK                            x       y       z     vdW  Elec       q    Type
REMARK                         _______ _______ _______ _____ _____    ______ ____
ROOT
ATOM      1  N   UNL     1     -32.725 -49.389  52.865  0.00  0.00    +0.000 N 
ATOM      2  N   UNL     1     -31.390 -49.910  50.940  0.00  0.00    +0.000 N 
ATOM      3  C   UNL     1     -32.678 -50.871  52.834  0.00  0.00    +0.000 C 
ATOM      4  C   UNL     1     -32.077 -48.912  51.602  0.00  0.00    +0.000 C 
ATOM      5  C   UNL     1     -31.751 -51.066  51.717  0.00  0.00    +0.000 C 
ATOM      6  C   UNL     1     -34.012 -48.741  53.111  0.00  0.00    +0.000 C 
ATOM      7  C   UNL     1     -32.536 -47.728  50.953  0.00  0.00    +0.000 C 
ATOM      8  C   UNL     1     -35.038 -47.639  52.796  0.00  0.00    +0.000 C 
ATOM      9  C   UNL     1     -33.636 -46.662  50.826  0.00  0.00    +0.000 C 
ATOM     10  C   UNL     1     -34.886 -46.592  51.697  0.00  0.00    +0.000 C 
ENDROOT
BRANCH   3  11
ATOM     11  C   UNL     1     -32.212 -51.440  54.153  0.00  0.00    +0.000 A 
ATOM     12  C   UNL     1     -30.899 -51.252  54.609  0.00  0.00    +0.000 A 
ATOM     13  C   UNL     1     -30.490 -51.743  55.846  0.00  0.00    +0.000 A 
ATOM     14  C   UNL     1     -31.411 -52.420  56.640  0.00  0.00    +0.000 A 
ATOM     15  C   UNL     1     -32.725 -52.611  56.226  0.00  0.00    +0.000 A 
ATOM     16  C   UNL     1     -33.118 -52.114  54.987  0.00  0.00    +0.000 A 
BRANCH  14  17
ATOM     17  N   UNL     1     -30.991 -52.936  57.928  0.00  0.00    +0.000 N 
ATOM     18  O   UNL     1     -30.895 -52.131  58.865  0.00  0.00    +0.000 OA
ATOM     19  O   UNL     1     -30.755 -54.150  58.014  0.00  0.00    +0.000 OA
ENDBRANCH  14  17
ENDBRANCH   3  11
BRANCH   2  20
ATOM     20  C   UNL     1     -30.842 -49.979  49.650  0.00  0.00    +0.000 A 
ATOM     21  C   UNL     1     -31.638 -50.160  48.514  0.00  0.00    +0.000 A 
ATOM     22  C   UNL     1     -31.086 -50.204  47.234  0.00  0.00    +0.000 A 
ATOM     23  C   UNL     1     -29.712 -50.058  47.059  0.00  0.00    +0.000 A 
ATOM     24  C   UNL     1     -28.901 -49.866  48.173  0.00  0.00    +0.000 A 
ATOM     25  C   UNL     1     -29.463 -49.824  49.449  0.00  0.00    +0.000 A 
BRANCH  23  26
ATOM     26  O   UNL     1     -29.071 -50.085  45.847  0.00  0.00    +0.000 OA
BRANCH  26  27
ATOM     27  C   UNL     1     -28.218 -49.085  45.642  0.00  0.00    +0.000 C 
ATOM     28  C   UNL     1     -27.247 -47.923  45.402  0.00  0.00    +0.000 C 
ENDBRANCH  26  27
ENDBRANCH  23  26
ENDBRANCH   2  20
BRANCH   3  29
ATOM     29  O   UNL     1     -33.921 -51.461  52.475  0.00  0.00    +0.000 OA
ATOM     30  H   UNL     1     -33.722 -52.401  52.328  0.00  0.00    +0.000 HD
ENDBRANCH   3  29
TORSDOF 6
ENDMDL
MODEL 3
REMARK VINA RESULT:      -7.2     33.498     36.025
REMARK  Name = 5109870_Ethoxyphenyl.pdbqt.pdb
REMARK  6 active torsions:
REMARK  status: ('A' for Active; 'I' for Inactive)
REMARK    1  A    between atoms: N_2  and  C_22
REMARK    2  A    between atoms: C_3  and  O_11
REMARK    3  A    between atoms: C_3  and  C_13
REMARK    4  A    between atoms: C_16  and  N_19
REMARK    5  A    between atoms: C_25  and  O_28
REMARK    6  A    between atoms: O_28  and  C_29
REMARK                            x       y       z     vdW  Elec       q    Type
REMARK                         _______ _______ _______ _____ _____    ______ ____
ROOT
ATOM      1  N   UNL     1     -34.330 -44.243  50.755  0.00  0.00    +0.000 N 
ATOM      2  N   UNL     1     -36.480 -44.062  49.705  0.00  0.00    +0.000 N 
ATOM      3  C   UNL     1     -35.226 -45.073  51.595  0.00  0.00    +0.000 C 
ATOM      4  C   UNL     1     -35.201 -43.544  49.758  0.00  0.00    +0.000 C 
ATOM      5  C   UNL     1     -36.455 -44.992  50.803  0.00  0.00    +0.000 C 
ATOM      6  C   UNL     1     -33.402 -43.331  51.422  0.00  0.00    +0.000 C 
ATOM      7  C   UNL     1     -34.881 -42.228  49.310  0.00  0.00    +0.000 C 
ATOM      8  C   UNL     1     -32.713 -41.959  51.523  0.00  0.00    +0.000 C 
ATOM      9  C   UNL     1     -34.049 -40.953  49.521  0.00  0.00    +0.000 C 
ATOM     10  C   UNL     1     -32.988 -40.773  50.604  0.00  0.00    +0.000 C 
ENDROOT
BRANCH   3  11
ATOM     11  C   UNL     1     -34.680 -46.470  51.779  0.00  0.00    +0.000 A 
ATOM     12  C   UNL     1     -33.665 -46.974  50.954  0.00  0.00    +0.000 A 
ATOM     13  C   UNL     1     -33.137 -48.246  51.158  0.00  0.00    +0.000 A 
ATOM     14  C   UNL     1     -33.625 -49.017  52.209  0.00  0.00    +0.000 A 
ATOM     15  C   UNL     1     -34.621 -48.543  53.056  0.00  0.00    +0.000 A 
ATOM     16  C   UNL     1     -35.137 -47.268  52.839  0.00  0.00    +0.000 A 
BRANCH  14  17
ATOM     17  N   UNL     1     -33.082 -50.344  52.426  0.00  0.00    +0.000 N 
ATOM     18  O   UNL     1     -33.881 -51.258  52.671  0.00  0.00    +0.000 OA
ATOM     19  O   UNL     1     -31.853 -50.482  52.353  0.00  0.00    +0.000 OA
ENDBRANCH  14  17
ENDBRANCH   3  11
BRANCH   2  20
ATOM     20  C   UNL     1     -37.661 -43.594  49.108  0.00  0.00    +0.000 A 
ATOM     21  C   UNL     1     -38.492 -42.662  49.737  0.00  0.00    +0.000 A 
ATOM     22  C   UNL     1     -39.651 -42.186  49.125  0.00  0.00    +0.000 A 
ATOM     23  C   UNL     1     -40.004 -42.630  47.853  0.00  0.00    +0.000 A 
ATOM     24  C   UNL     1     -39.187 -43.549  47.202  0.00  0.00    +0.000 A 
ATOM     25  C   UNL     1     -38.030 -44.019  47.823  0.00  0.00    +0.000 A 
BRANCH  23  26
ATOM     26  O   UNL     1     -41.119 -42.225  47.165  0.00  0.00    +0.000 OA
BRANCH  26  27
ATOM     27  C   UNL     1     -41.947 -41.442  47.852  0.00  0.00    +0.000 C 
ATOM     28  C   UNL     1     -42.892 -40.543  48.657  0.00  0.00    +0.000 C 
ENDBRANCH  26  27
ENDBRANCH  23  26
ENDBRANCH   2  20
BRANCH   3  29
ATOM     29  O   UNL     1     -35.492 -44.496  52.868  0.00  0.00    +0.000 OA
ATOM     30  H   UNL     1     -35.927 -45.199  53.378  0.00  0.00    +0.000 HD
ENDBRANCH   3  29
TORSDOF 6
ENDMDL
MODEL 4
REMARK VINA RESULT:      -7.2     22.685     26.616
REMARK  Name = 5109870_Ethoxyphenyl.pdbqt.pdb
REMARK  6 active torsions:
REMARK  status: ('A' for Active; 'I' for Inactive)
REMARK    1  A    between atoms: N_2  and  C_22
REMARK    2  A    between atoms: C_3  and  O_11
REMARK    3  A    between atoms: C_3  and  C_13
REMARK    4  A    between atoms: C_16  and  N_19
REMARK    5  A    between atoms: C_25  and  O_28
REMARK    6  A    between atoms: O_28  and  C_29
REMARK                            x       y       z     vdW  Elec       q    Type
REMARK                         _______ _______ _______ _____ _____    ______ ____
ROOT
ATOM      1  N   UNL     1     -42.956 -54.602  34.704  0.00  0.00    +0.000 N 
ATOM      2  N   UNL     1     -40.687 -54.420  33.945  0.00  0.00    +0.000 N 
ATOM      3  C   UNL     1     -42.625 -53.166  34.863  0.00  0.00    +0.000 C 
ATOM      4  C   UNL     1     -41.687 -55.297  34.317  0.00  0.00    +0.000 C 
ATOM      5  C   UNL     1     -41.289 -53.152  34.261  0.00  0.00    +0.000 C 
ATOM      6  C   UNL     1     -43.650 -55.279  35.799  0.00  0.00    +0.000 C 
ATOM      7  C   UNL     1     -41.424 -56.628  34.756  0.00  0.00    +0.000 C 
ATOM      8  C   UNL     1     -43.835 -56.500  36.716  0.00  0.00    +0.000 C 
ATOM      9  C   UNL     1     -41.799 -57.778  35.705  0.00  0.00    +0.000 C 
ATOM     10  C   UNL     1     -42.962 -57.751  36.692  0.00  0.00    +0.000 C 
ENDROOT
BRANCH   3  11
ATOM     11  C   UNL     1     -43.639 -52.282  34.176  0.00  0.00    +0.000 A 
ATOM     12  C   UNL     1     -43.592 -52.050  32.794  0.00  0.00    +0.000 A 
ATOM     13  C   UNL     1     -44.556 -51.269  32.162  0.00  0.00    +0.000 A 
ATOM     14  C   UNL     1     -45.587 -50.725  32.924  0.00  0.00    +0.000 A 
ATOM     15  C   UNL     1     -45.673 -50.948  34.294  0.00  0.00    +0.000 A 
ATOM     16  C   UNL     1     -44.701 -51.731  34.910  0.00  0.00    +0.000 A 
BRANCH  14  17
ATOM     17  N   UNL     1     -46.593 -49.909  32.273  0.00  0.00    +0.000 N 
ATOM     18  O   UNL     1     -46.821 -50.125  31.074  0.00  0.00    +0.000 OA
ATOM     19  O   UNL     1     -47.165 -49.047  32.956  0.00  0.00    +0.000 OA
ENDBRANCH  14  17
ENDBRANCH   3  11
BRANCH   2  20
ATOM     20  C   UNL     1     -39.311 -54.598  33.733  0.00  0.00    +0.000 A 
ATOM     21  C   UNL     1     -38.446 -54.989  34.760  0.00  0.00    +0.000 A 
ATOM     22  C   UNL     1     -37.084 -55.185  34.534  0.00  0.00    +0.000 A 
ATOM     23  C   UNL     1     -36.553 -55.001  33.259  0.00  0.00    +0.000 A 
ATOM     24  C   UNL     1     -37.396 -54.623  32.218  0.00  0.00    +0.000 A 
ATOM     25  C   UNL     1     -38.757 -54.429  32.456  0.00  0.00    +0.000 A 
BRANCH  23  26
ATOM     26  O   UNL     1     -35.232 -55.168  32.932  0.00  0.00    +0.000 OA
BRANCH  26  27
ATOM     27  C   UNL     1     -34.376 -54.952  33.927  0.00  0.00    +0.000 C 
ATOM     28  C   UNL     1     -33.382 -54.717  35.071  0.00  0.00    +0.000 C 
ENDBRANCH  26  27
ENDBRANCH  23  26
ENDBRANCH   2  20
BRANCH   3  29
ATOM     29  O   UNL     1     -42.492 -52.770  36.222  0.00  0.00    +0.000 OA
ATOM     30  H   UNL     1     -43.378 -52.877  36.604  0.00  0.00    +0.000 HD
ENDBRANCH   3  29
TORSDOF 6
ENDMDL
MODEL 5
REMARK VINA RESULT:      -7.0     35.058     37.294
REMARK  Name = 5109870_Ethoxyphenyl.pdbqt.pdb
REMARK  6 active torsions:
REMARK  status: ('A' for Active; 'I' for Inactive)
REMARK    1  A    between atoms: N_2  and  C_22
REMARK    2  A    between atoms: C_3  and  O_11
REMARK    3  A    between atoms: C_3  and  C_13
REMARK    4  A    between atoms: C_16  and  N_19
REMARK    5  A    between atoms: C_25  and  O_28
REMARK    6  A    between atoms: O_28  and  C_29
REMARK                            x       y       z     vdW  Elec       q    Type
REMARK                         _______ _______ _______ _____ _____    ______ ____
ROOT
ATOM      1  N   UNL     1     -31.561 -51.752  52.322  0.00  0.00    +0.000 N 
ATOM      2  N   UNL     1     -31.001 -51.894  54.652  0.00  0.00    +0.000 N 
ATOM      3  C   UNL     1     -32.758 -51.232  53.026  0.00  0.00    +0.000 C 
ATOM      4  C   UNL     1     -30.639 -52.283  53.377  0.00  0.00    +0.000 C 
ATOM      5  C   UNL     1     -32.262 -51.247  54.404  0.00  0.00    +0.000 C 
ATOM      6  C   UNL     1     -31.758 -52.699  51.226  0.00  0.00    +0.000 C 
ATOM      7  C   UNL     1     -29.819 -53.421  53.119  0.00  0.00    +0.000 C 
ATOM      8  C   UNL     1     -31.360 -53.983  50.478  0.00  0.00    +0.000 C 
ATOM      9  C   UNL     1     -29.517 -54.622  52.209  0.00  0.00    +0.000 C 
ATOM     10  C   UNL     1     -30.259 -54.944  50.915  0.00  0.00    +0.000 C 
ENDROOT
BRANCH   3  11
ATOM     11  C   UNL     1     -33.158 -49.870  52.510  0.00  0.00    +0.000 A 
ATOM     12  C   UNL     1     -32.519 -49.289  51.405  0.00  0.00    +0.000 A 
ATOM     13  C   UNL     1     -32.923 -48.052  50.909  0.00  0.00    +0.000 A 
ATOM     14  C   UNL     1     -33.988 -47.397  51.520  0.00  0.00    +0.000 A 
ATOM     15  C   UNL     1     -34.655 -47.951  52.608  0.00  0.00    +0.000 A 
ATOM     16  C   UNL     1     -34.239 -49.189  53.091  0.00  0.00    +0.000 A 
BRANCH  14  17
ATOM     17  N   UNL     1     -34.413 -46.108  51.010  0.00  0.00    +0.000 N 
ATOM     18  O   UNL     1     -33.627 -45.157  51.125  0.00  0.00    +0.000 OA
ATOM     19  O   UNL     1     -35.536 -46.036  50.490  0.00  0.00    +0.000 OA
ENDBRANCH  14  17
ENDBRANCH   3  11
BRANCH   2  20
ATOM     20  C   UNL     1     -30.582 -52.324  55.921  0.00  0.00    +0.000 A 
ATOM     21  C   UNL     1     -29.601 -51.642  56.649  0.00  0.00    +0.000 A 
ATOM     22  C   UNL     1     -29.209 -52.064  57.919  0.00  0.00    +0.000 A 
ATOM     23  C   UNL     1     -29.800 -53.184  58.498  0.00  0.00    +0.000 A 
ATOM     24  C   UNL     1     -30.786 -53.872  57.797  0.00  0.00    +0.000 A 
ATOM     25  C   UNL     1     -31.171 -53.442  56.528  0.00  0.00    +0.000 A 
BRANCH  23  26
ATOM     26  O   UNL     1     -29.488 -53.679  59.737  0.00  0.00    +0.000 OA
BRANCH  26  27
ATOM     27  C   UNL     1     -28.680 -52.908  60.462  0.00  0.00    +0.000 C 
ATOM     28  C   UNL     1     -27.740 -52.034  61.301  0.00  0.00    +0.000 C 
ENDBRANCH  26  27
ENDBRANCH  23  26
ENDBRANCH   2  20
BRANCH   3  29
ATOM     29  O   UNL     1     -33.873 -52.112  52.957  0.00  0.00    +0.000 OA
ATOM     30  H   UNL     1     -34.145 -52.249  53.880  0.00  0.00    +0.000 HD
ENDBRANCH   3  29
TORSDOF 6
ENDMDL
MODEL 6
REMARK VINA RESULT:      -6.9     33.497     34.988
REMARK  Name = 5109870_Ethoxyphenyl.pdbqt.pdb
REMARK  6 active torsions:
REMARK  status: ('A' for Active; 'I' for Inactive)
REMARK    1  A    between atoms: N_2  and  C_22
REMARK    2  A    between atoms: C_3  and  O_11
REMARK    3  A    between atoms: C_3  and  C_13
REMARK    4  A    between atoms: C_16  and  N_19
REMARK    5  A    between atoms: C_25  and  O_28
REMARK    6  A    between atoms: O_28  and  C_29
REMARK                            x       y       z     vdW  Elec       q    Type
REMARK                         _______ _______ _______ _____ _____    ______ ____
ROOT
ATOM      1  N   UNL     1     -38.046 -42.855  48.181  0.00  0.00    +0.000 N 
ATOM      2  N   UNL     1     -40.056 -42.016  49.188  0.00  0.00    +0.000 N 
ATOM      3  C   UNL     1     -37.624 -42.392  49.524  0.00  0.00    +0.000 C 
ATOM      4  C   UNL     1     -39.471 -42.430  48.007  0.00  0.00    +0.000 C 
ATOM      5  C   UNL     1     -38.929 -42.027  50.082  0.00  0.00    +0.000 C 
ATOM      6  C   UNL     1     -37.214 -42.499  47.032  0.00  0.00    +0.000 C 
ATOM      7  C   UNL     1     -39.965 -42.049  46.725  0.00  0.00    +0.000 C 
ATOM      8  C   UNL     1     -37.075 -42.015  45.578  0.00  0.00    +0.000 C 
ATOM      9  C   UNL     1     -39.640 -41.652  45.276  0.00  0.00    +0.000 C 
ATOM     10  C   UNL     1     -38.237 -41.605  44.678  0.00  0.00    +0.000 C 
ENDROOT
BRANCH   3  11
ATOM     11  C   UNL     1     -36.892 -43.475  50.281  0.00  0.00    +0.000 A 
ATOM     12  C   UNL     1     -35.505 -43.644  50.159  0.00  0.00    +0.000 A 
ATOM     13  C   UNL     1     -34.831 -44.616  50.893  0.00  0.00    +0.000 A 
ATOM     14  C   UNL     1     -35.554 -45.420  51.769  0.00  0.00    +0.000 A 
ATOM     15  C   UNL     1     -36.928 -45.270  51.926  0.00  0.00    +0.000 A 
ATOM     16  C   UNL     1     -37.586 -44.293  51.185  0.00  0.00    +0.000 A 
BRANCH  14  17
ATOM     17  N   UNL     1     -34.859 -46.436  52.535  0.00  0.00    +0.000 N 
ATOM     18  O   UNL     1     -33.744 -46.148  52.993  0.00  0.00    +0.000 OA
ATOM     19  O   UNL     1     -35.423 -47.529  52.687  0.00  0.00    +0.000 OA
ENDBRANCH  14  17
ENDBRANCH   3  11
BRANCH   2  20
ATOM     20  C   UNL     1     -41.257 -41.341  49.457  0.00  0.00    +0.000 A 
ATOM     21  C   UNL     1     -41.514 -40.750  50.698  0.00  0.00    +0.000 A 
ATOM     22  C   UNL     1     -42.701 -40.061  50.948  0.00  0.00    +0.000 A 
ATOM     23  C   UNL     1     -43.663 -39.940  49.948  0.00  0.00    +0.000 A 
ATOM     24  C   UNL     1     -43.425 -40.509  48.701  0.00  0.00    +0.000 A 
ATOM     25  C   UNL     1     -42.235 -41.196  48.462  0.00  0.00    +0.000 A 
BRANCH  23  26
ATOM     26  O   UNL     1     -44.859 -39.285  50.090  0.00  0.00    +0.000 OA
BRANCH  26  27
ATOM     27  C   UNL     1     -45.320 -39.224  51.338  0.00  0.00    +0.000 C 
ATOM     28  C   UNL     1     -45.843 -39.169  52.778  0.00  0.00    +0.000 C 
ENDBRANCH  26  27
ENDBRANCH  23  26
ENDBRANCH   2  20
BRANCH   3  29
ATOM     29  O   UNL     1     -36.825 -41.217  49.485  0.00  0.00    +0.000 OA
ATOM     30  H   UNL     1     -37.172 -40.651  50.195  0.00  0.00    +0.000 HD
ENDBRANCH   3  29
TORSDOF 6
ENDMDL
MODEL 7
REMARK VINA RESULT:      -6.8     20.720     24.405
REMARK  Name = 5109870_Ethoxyphenyl.pdbqt.pdb
REMARK  6 active torsions:
REMARK  status: ('A' for Active; 'I' for Inactive)
REMARK    1  A    between atoms: N_2  and  C_22
REMARK    2  A    between atoms: C_3  and  O_11
REMARK    3  A    between atoms: C_3  and  C_13
REMARK    4  A    between atoms: C_16  and  N_19
REMARK    5  A    between atoms: C_25  and  O_28
REMARK    6  A    between atoms: O_28  and  C_29
REMARK                            x       y       z     vdW  Elec       q    Type
REMARK                         _______ _______ _______ _____ _____    ______ ____
ROOT
ATOM      1  N   UNL     1     -41.694 -53.603  33.975  0.00  0.00    +0.000 N 
ATOM      2  N   UNL     1     -42.301 -55.658  35.055  0.00  0.00    +0.000 N 
ATOM      3  C   UNL     1     -42.898 -54.067  33.244  0.00  0.00    +0.000 C 
ATOM      4  C   UNL     1     -41.314 -54.702  34.919  0.00  0.00    +0.000 C 
ATOM      5  C   UNL     1     -43.246 -55.235  34.055  0.00  0.00    +0.000 C 
ATOM      6  C   UNL     1     -40.555 -53.118  33.198  0.00  0.00    +0.000 C 
ATOM      7  C   UNL     1     -39.945 -54.955  35.225  0.00  0.00    +0.000 C 
ATOM      8  C   UNL     1     -39.040 -53.048  32.943  0.00  0.00    +0.000 C 
ATOM      9  C   UNL     1     -38.470 -54.713  34.868  0.00  0.00    +0.000 C 
ATOM     10  C   UNL     1     -37.983 -53.800  33.746  0.00  0.00    +0.000 C 
ENDROOT
BRANCH   3  11
ATOM     11  C   UNL     1     -43.961 -52.995  33.187  0.00  0.00    +0.000 A 
ATOM     12  C   UNL     1     -44.401 -52.337  34.344  0.00  0.00    +0.000 A 
ATOM     13  C   UNL     1     -45.350 -51.320  34.277  0.00  0.00    +0.000 A 
ATOM     14  C   UNL     1     -45.854 -50.950  33.034  0.00  0.00    +0.000 A 
ATOM     15  C   UNL     1     -45.428 -51.571  31.864  0.00  0.00    +0.000 A 
ATOM     16  C   UNL     1     -44.479 -52.585  31.948  0.00  0.00    +0.000 A 
BRANCH  14  17
ATOM     17  N   UNL     1     -46.843 -49.893  32.957  0.00  0.00    +0.000 N 
ATOM     18  O   UNL     1     -47.239 -49.399  34.021  0.00  0.00    +0.000 OA
ATOM     19  O   UNL     1     -47.231 -49.549  31.831  0.00  0.00    +0.000 OA
ENDBRANCH  14  17
ENDBRANCH   3  11
BRANCH   2  20
ATOM     20  C   UNL     1     -42.298 -56.938  35.633  0.00  0.00    +0.000 A 
ATOM     21  C   UNL     1     -43.244 -57.323  36.588  0.00  0.00    +0.000 A 
ATOM     22  C   UNL     1     -43.247 -58.604  37.139  0.00  0.00    +0.000 A 
ATOM     23  C   UNL     1     -42.299 -59.541  36.735  0.00  0.00    +0.000 A 
ATOM     24  C   UNL     1     -41.354 -59.185  35.778  0.00  0.00    +0.000 A 
ATOM     25  C   UNL     1     -41.360 -57.900  35.233  0.00  0.00    +0.000 A 
BRANCH  23  26
ATOM     26  O   UNL     1     -42.215 -60.824  37.212  0.00  0.00    +0.000 OA
BRANCH  26  27
ATOM     27  C   UNL     1     -42.950 -61.068  38.295  0.00  0.00    +0.000 C 
ATOM     28  C   UNL     1     -43.811 -61.351  39.532  0.00  0.00    +0.000 C 
ENDBRANCH  26  27
ENDBRANCH  23  26
ENDBRANCH   2  20
BRANCH   3  29
ATOM     29  O   UNL     1     -42.612 -54.522  31.928  0.00  0.00    +0.000 OA
ATOM     30  H   UNL     1     -43.413 -54.331  31.414  0.00  0.00    +0.000 HD
ENDBRANCH   3  29
TORSDOF 6
ENDMDL
MODEL 8
REMARK VINA RESULT:      -6.6      9.777     13.786
REMARK  Name = 5109870_Ethoxyphenyl.pdbqt.pdb
REMARK  6 active torsions:
REMARK  status: ('A' for Active; 'I' for Inactive)
REMARK    1  A    between atoms: N_2  and  C_22
REMARK    2  A    between atoms: C_3  and  O_11
REMARK    3  A    between atoms: C_3  and  C_13
REMARK    4  A    between atoms: C_16  and  N_19
REMARK    5  A    between atoms: C_25  and  O_28
REMARK    6  A    between atoms: O_28  and  C_29
REMARK                            x       y       z     vdW  Elec       q    Type
REMARK                         _______ _______ _______ _____ _____    ______ ____
ROOT
ATOM      1  N   UNL     1     -64.352 -69.637  31.425  0.00  0.00    +0.000 N 
ATOM      2  N   UNL     1     -62.939 -71.420  32.188  0.00  0.00    +0.000 N 
ATOM      3  C   UNL     1     -63.847 -70.269  30.183  0.00  0.00    +0.000 C 
ATOM      4  C   UNL     1     -63.621 -70.279  32.563  0.00  0.00    +0.000 C 
ATOM      5  C   UNL     1     -63.115 -71.399  30.760  0.00  0.00    +0.000 C 
ATOM      6  C   UNL     1     -64.347 -68.177  31.512  0.00  0.00    +0.000 C 
ATOM      7  C   UNL     1     -63.289 -69.528  33.729  0.00  0.00    +0.000 C 
ATOM      8  C   UNL     1     -64.089 -66.884  32.304  0.00  0.00    +0.000 C 
ATOM      9  C   UNL     1     -63.159 -68.146  34.388  0.00  0.00    +0.000 C 
ATOM     10  C   UNL     1     -63.523 -66.823  33.719  0.00  0.00    +0.000 C 
ENDROOT
BRANCH   3  11
ATOM     11  C   UNL     1     -64.976 -70.653  29.255  0.00  0.00    +0.000 A 
ATOM     12  C   UNL     1     -64.869 -70.489  27.867  0.00  0.00    +0.000 A 
ATOM     13  C   UNL     1     -65.897 -70.885  27.015  0.00  0.00    +0.000 A 
ATOM     14  C   UNL     1     -67.039 -71.464  27.561  0.00  0.00    +0.000 A 
ATOM     15  C   UNL     1     -67.172 -71.655  28.933  0.00  0.00    +0.000 A 
ATOM     16  C   UNL     1     -66.135 -71.253  29.770  0.00  0.00    +0.000 A 
BRANCH  14  17
ATOM     17  N   UNL     1     -68.114 -71.877  26.680  0.00  0.00    +0.000 N 
ATOM     18  O   UNL     1     -67.998 -71.621  25.473  0.00  0.00    +0.000 OA
ATOM     19  O   UNL     1     -69.082 -72.461  27.188  0.00  0.00    +0.000 OA
ENDBRANCH  14  17
ENDBRANCH   3  11
BRANCH   2  20
ATOM     20  C   UNL     1     -61.968 -72.194  32.843  0.00  0.00    +0.000 A 
ATOM     21  C   UNL     1     -62.266 -72.956  33.976  0.00  0.00    +0.000 A 
ATOM     22  C   UNL     1     -61.298 -73.740  34.605  0.00  0.00    +0.000 A 
ATOM     23  C   UNL     1     -60.000 -73.784  34.104  0.00  0.00    +0.000 A 
ATOM     24  C   UNL     1     -59.682 -73.042  32.970  0.00  0.00    +0.000 A 
ATOM     25  C   UNL     1     -60.657 -72.262  32.349  0.00  0.00    +0.000 A 
BRANCH  23  26
ATOM     26  O   UNL     1     -58.978 -74.520  34.645  0.00  0.00    +0.000 OA
BRANCH  26  27
ATOM     27  C   UNL     1     -57.811 -73.885  34.724  0.00  0.00    +0.000 C 
ATOM     28  C   UNL     1     -56.460 -73.166  34.826  0.00  0.00    +0.000 C 
ENDBRANCH  26  27
ENDBRANCH  23  26
ENDBRANCH   2  20
BRANCH   3  29
ATOM     29  O   UNL     1     -62.912 -69.458  29.484  0.00  0.00    +0.000 OA
ATOM     30  H   UNL     1     -62.218 -70.069  29.188  0.00  0.00    +0.000 HD
ENDBRANCH   3  29
TORSDOF 6
ENDMDL
MODEL 9
REMARK VINA RESULT:      -6.6     34.855     38.100
REMARK  Name = 5109870_Ethoxyphenyl.pdbqt.pdb
REMARK  6 active torsions:
REMARK  status: ('A' for Active; 'I' for Inactive)
REMARK    1  A    between atoms: N_2  and  C_22
REMARK    2  A    between atoms: C_3  and  O_11
REMARK    3  A    between atoms: C_3  and  C_13
REMARK    4  A    between atoms: C_16  and  N_19
REMARK    5  A    between atoms: C_25  and  O_28
REMARK    6  A    between atoms: O_28  and  C_29
REMARK                            x       y       z     vdW  Elec       q    Type
REMARK                         _______ _______ _______ _____ _____    ______ ____
ROOT
ATOM      1  N   UNL     1     -30.541 -53.033  53.887  0.00  0.00    +0.000 N 
ATOM      2  N   UNL     1     -30.075 -52.991  56.241  0.00  0.00    +0.000 N 
ATOM      3  C   UNL     1     -31.855 -52.771  54.522  0.00  0.00    +0.000 C 
ATOM      4  C   UNL     1     -29.577 -53.322  54.996  0.00  0.00    +0.000 C 
ATOM      5  C   UNL     1     -31.434 -52.642  55.919  0.00  0.00    +0.000 C 
ATOM      6  C   UNL     1     -30.474 -54.026  52.817  0.00  0.00    +0.000 C 
ATOM      7  C   UNL     1     -28.517 -54.257  54.811  0.00  0.00    +0.000 C 
ATOM      8  C   UNL     1     -29.770 -55.209  52.130  0.00  0.00    +0.000 C 
ATOM      9  C   UNL     1     -27.916 -55.385  53.956  0.00  0.00    +0.000 C 
ATOM     10  C   UNL     1     -28.508 -55.894  52.645  0.00  0.00    +0.000 C 
ENDROOT
BRANCH   3  11
ATOM     11  C   UNL     1     -32.518 -51.543  53.944  0.00  0.00    +0.000 A 
ATOM     12  C   UNL     1     -31.767 -50.507  53.371  0.00  0.00    +0.000 A 
ATOM     13  C   UNL     1     -32.388 -49.399  52.800  0.00  0.00    +0.000 A 
ATOM     14  C   UNL     1     -33.778 -49.335  52.794  0.00  0.00    +0.000 A 
ATOM     15  C   UNL     1     -34.555 -50.353  53.339  0.00  0.00    +0.000 A 
ATOM     16  C   UNL     1     -33.918 -51.454  53.905  0.00  0.00    +0.000 A 
BRANCH  14  17
ATOM     17  N   UNL     1     -34.432 -48.184  52.203  0.00  0.00    +0.000 N 
ATOM     18  O   UNL     1     -34.110 -47.869  51.049  0.00  0.00    +0.000 OA
ATOM     19  O   UNL     1     -35.274 -47.585  52.888  0.00  0.00    +0.000 OA
ENDBRANCH  14  17
ENDBRANCH   3  11
BRANCH   2  20
ATOM     20  C   UNL     1     -29.633 -53.286  57.540  0.00  0.00    +0.000 A 
ATOM     21  C   UNL     1     -29.197 -54.565  57.903  0.00  0.00    +0.000 A 
ATOM     22  C   UNL     1     -28.738 -54.842  59.190  0.00  0.00    +0.000 A 
ATOM     23  C   UNL     1     -28.697 -53.834  60.151  0.00  0.00    +0.000 A 
ATOM     24  C   UNL     1     -29.115 -52.552  59.810  0.00  0.00    +0.000 A 
ATOM     25  C   UNL     1     -29.572 -52.285  58.520  0.00  0.00    +0.000 A 
BRANCH  23  26
ATOM     26  O   UNL     1     -28.264 -54.002  61.441  0.00  0.00    +0.000 OA
BRANCH  26  27
ATOM     27  C   UNL     1     -27.991 -52.873  62.091  0.00  0.00    +0.000 C 
ATOM     28  C   UNL     1     -27.684 -51.579  62.854  0.00  0.00    +0.000 C 
ENDBRANCH  26  27
ENDBRANCH  23  26
ENDBRANCH   2  20
BRANCH   3  29
ATOM     29  O   UNL     1     -32.746 -53.876  54.438  0.00  0.00    +0.000 OA
ATOM     30  H   UNL     1     -32.180 -54.663  54.501  0.00  0.00    +0.000 HD
ENDBRANCH   3  29
TORSDOF 6
ENDMDL
