MODEL 1
REMARK VINA RESULT:      -7.3      0.000      0.000
REMARK  Name = 5280445_Luteolin.pdbqt.pdb
REMARK  5 active torsions:
REMARK  status: ('A' for Active; 'I' for Inactive)
REMARK    1  A    between atoms: C_5  and  C_12
REMARK    2  A    between atoms: C_8  and  O_22
REMARK    3  A    between atoms: C_10  and  O_24
REMARK    4  A    between atoms: C_15  and  O_18
REMARK    5  A    between atoms: C_17  and  O_20
REMARK                            x       y       z     vdW  Elec       q    Type
REMARK                         _______ _______ _______ _____ _____    ______ ____
ROOT
ATOM      1  O   UNL     1     -47.537 -61.162  41.977  0.00  0.00    +0.000 OA
ATOM      2  O   UNL     1     -47.363 -62.342  45.913  0.00  0.00    +0.000 OA
ATOM      3  C   UNL     1     -48.422 -60.924  44.291  0.00  0.00    +0.000 A 
ATOM      4  C   UNL     1     -48.401 -60.588  42.914  0.00  0.00    +0.000 A 
ATOM      5  C   UNL     1     -46.624 -62.133  42.404  0.00  0.00    +0.000 A 
ATOM      6  C   UNL     1     -47.470 -61.945  44.767  0.00  0.00    +0.000 A 
ATOM      7  C   UNL     1     -46.695 -62.392  43.667  0.00  0.00    +0.000 A 
ATOM      8  C   UNL     1     -49.319 -60.304  45.160  0.00  0.00    +0.000 A 
ATOM      9  C   UNL     1     -49.284 -59.631  42.428  0.00  0.00    +0.000 A 
ATOM     10  C   UNL     1     -50.174 -59.019  43.309  0.00  0.00    +0.000 A 
ATOM     11  C   UNL     1     -50.198 -59.346  44.666  0.00  0.00    +0.000 A 
ENDROOT
BRANCH   5  12
ATOM     12  C   UNL     1     -45.725 -62.730  41.424  0.00  0.00    +0.000 A 
ATOM     13  C   UNL     1     -44.533 -62.088  41.075  0.00  0.00    +0.000 A 
ATOM     14  C   UNL     1     -46.038 -63.954  40.817  0.00  0.00    +0.000 A 
ATOM     15  C   UNL     1     -43.684 -62.665  40.139  0.00  0.00    +0.000 A 
ATOM     16  C   UNL     1     -45.185 -64.533  39.878  0.00  0.00    +0.000 A 
ATOM     17  C   UNL     1     -44.006 -63.879  39.545  0.00  0.00    +0.000 A 
BRANCH  15  18
ATOM     18  O   UNL     1     -42.523 -62.027  39.807  0.00  0.00    +0.000 OA
ATOM     19  H   UNL     1     -41.860 -62.355  40.448  0.00  0.00    +0.000 HD
ENDBRANCH  15  18
BRANCH  17  20
ATOM     20  O   UNL     1     -43.136 -64.406  38.630  0.00  0.00    +0.000 OA
ATOM     21  H   UNL     1     -43.209 -63.878  37.814  0.00  0.00    +0.000 HD
ENDBRANCH  17  20
ENDBRANCH   5  12
BRANCH   8  22
ATOM     22  O   UNL     1     -49.386 -60.585  46.497  0.00  0.00    +0.000 OA
ATOM     23  H   UNL     1     -48.759 -60.007  46.986  0.00  0.00    +0.000 HD
ENDBRANCH   8  22
BRANCH  10  24
ATOM     24  O   UNL     1     -51.031 -58.081  42.810  0.00  0.00    +0.000 OA
ATOM     25  H   UNL     1     -50.828 -57.952  41.867  0.00  0.00    +0.000 HD
ENDBRANCH  10  24
TORSDOF 5
ENDMDL
MODEL 2
REMARK VINA RESULT:      -7.0      3.388      4.679
REMARK  Name = 5280445_Luteolin.pdbqt.pdb
REMARK  5 active torsions:
REMARK  status: ('A' for Active; 'I' for Inactive)
REMARK    1  A    between atoms: C_5  and  C_12
REMARK    2  A    between atoms: C_8  and  O_22
REMARK    3  A    between atoms: C_10  and  O_24
REMARK    4  A    between atoms: C_15  and  O_18
REMARK    5  A    between atoms: C_17  and  O_20
REMARK                            x       y       z     vdW  Elec       q    Type
REMARK                         _______ _______ _______ _____ _____    ______ ____
ROOT
ATOM      1  O   UNL     1     -47.326 -61.828  40.683  0.00  0.00    +0.000 OA
ATOM      2  O   UNL     1     -44.451 -64.552  41.792  0.00  0.00    +0.000 OA
ATOM      3  C   UNL     1     -45.974 -62.841  42.511  0.00  0.00    +0.000 A 
ATOM      4  C   UNL     1     -46.951 -61.937  42.025  0.00  0.00    +0.000 A 
ATOM      5  C   UNL     1     -46.708 -62.656  39.739  0.00  0.00    +0.000 A 
ATOM      6  C   UNL     1     -45.307 -63.725  41.537  0.00  0.00    +0.000 A 
ATOM      7  C   UNL     1     -45.829 -63.454  40.246  0.00  0.00    +0.000 A 
ATOM      8  C   UNL     1     -45.660 -62.887  43.869  0.00  0.00    +0.000 A 
ATOM      9  C   UNL     1     -47.603 -61.088  42.914  0.00  0.00    +0.000 A 
ATOM     10  C   UNL     1     -47.277 -61.145  44.268  0.00  0.00    +0.000 A 
ATOM     11  C   UNL     1     -46.315 -62.033  44.751  0.00  0.00    +0.000 A 
ENDROOT
BRANCH   5  12
ATOM     12  C   UNL     1     -47.101 -62.540  38.340  0.00  0.00    +0.000 A 
ATOM     13  C   UNL     1     -48.241 -61.814  37.984  0.00  0.00    +0.000 A 
ATOM     14  C   UNL     1     -46.344 -63.151  37.331  0.00  0.00    +0.000 A 
ATOM     15  C   UNL     1     -48.607 -61.711  36.648  0.00  0.00    +0.000 A 
ATOM     16  C   UNL     1     -46.711 -63.047  35.989  0.00  0.00    +0.000 A 
ATOM     17  C   UNL     1     -47.848 -62.322  35.657  0.00  0.00    +0.000 A 
BRANCH  15  18
ATOM     18  O   UNL     1     -49.723 -60.999  36.314  0.00  0.00    +0.000 OA
ATOM     19  H   UNL     1     -49.843 -61.148  35.354  0.00  0.00    +0.000 HD
ENDBRANCH  15  18
BRANCH  17  20
ATOM     20  O   UNL     1     -48.250 -62.190  34.356  0.00  0.00    +0.000 OA
ATOM     21  H   UNL     1     -47.519 -61.780  33.860  0.00  0.00    +0.000 HD
ENDBRANCH  17  20
ENDBRANCH   5  12
BRANCH   8  22
ATOM     22  O   UNL     1     -44.727 -63.736  44.396  0.00  0.00    +0.000 OA
ATOM     23  H   UNL     1     -44.201 -64.137  43.670  0.00  0.00    +0.000 HD
ENDBRANCH   8  22
BRANCH  10  24
ATOM     24  O   UNL     1     -47.928 -60.302  45.123  0.00  0.00    +0.000 OA
ATOM     25  H   UNL     1     -47.307 -59.601  45.391  0.00  0.00    +0.000 HD
ENDBRANCH  10  24
TORSDOF 5
ENDMDL
MODEL 3
REMARK VINA RESULT:      -7.0     20.881     21.767
REMARK  Name = 5280445_Luteolin.pdbqt.pdb
REMARK  5 active torsions:
REMARK  status: ('A' for Active; 'I' for Inactive)
REMARK    1  A    between atoms: C_5  and  C_12
REMARK    2  A    between atoms: C_8  and  O_22
REMARK    3  A    between atoms: C_10  and  O_24
REMARK    4  A    between atoms: C_15  and  O_18
REMARK    5  A    between atoms: C_17  and  O_20
REMARK                            x       y       z     vdW  Elec       q    Type
REMARK                         _______ _______ _______ _____ _____    ______ ____
ROOT
ATOM      1  O   UNL     1     -33.178 -49.977  53.798  0.00  0.00    +0.000 OA
ATOM      2  O   UNL     1     -31.255 -50.003  50.161  0.00  0.00    +0.000 OA
ATOM      3  C   UNL     1     -32.938 -48.975  51.532  0.00  0.00    +0.000 A 
ATOM      4  C   UNL     1     -33.536 -49.051  52.814  0.00  0.00    +0.000 A 
ATOM      5  C   UNL     1     -32.164 -50.901  53.519  0.00  0.00    +0.000 A 
ATOM      6  C   UNL     1     -31.866 -49.938  51.213  0.00  0.00    +0.000 A 
ATOM      7  C   UNL     1     -31.661 -50.778  52.336  0.00  0.00    +0.000 A 
ATOM      8  C   UNL     1     -33.355 -48.018  50.607  0.00  0.00    +0.000 A 
ATOM      9  C   UNL     1     -34.550 -48.160  53.152  0.00  0.00    +0.000 A 
ATOM     10  C   UNL     1     -34.956 -47.209  52.217  0.00  0.00    +0.000 A 
ATOM     11  C   UNL     1     -34.370 -47.131  50.953  0.00  0.00    +0.000 A 
ENDROOT
BRANCH   5  12
ATOM     12  C   UNL     1     -31.792 -51.865  54.547  0.00  0.00    +0.000 A 
ATOM     13  C   UNL     1     -32.557 -53.018  54.744  0.00  0.00    +0.000 A 
ATOM     14  C   UNL     1     -30.664 -51.654  55.351  0.00  0.00    +0.000 A 
ATOM     15  C   UNL     1     -32.194 -53.930  55.727  0.00  0.00    +0.000 A 
ATOM     16  C   UNL     1     -30.299 -52.570  56.339  0.00  0.00    +0.000 A 
ATOM     17  C   UNL     1     -31.072 -53.709  56.519  0.00  0.00    +0.000 A 
BRANCH  15  18
ATOM     18  O   UNL     1     -32.950 -55.053  55.910  0.00  0.00    +0.000 OA
ATOM     19  H   UNL     1     -33.568 -55.070  55.152  0.00  0.00    +0.000 HD
ENDBRANCH  15  18
BRANCH  17  20
ATOM     20  O   UNL     1     -30.757 -54.638  57.473  0.00  0.00    +0.000 OA
ATOM     21  H   UNL     1     -29.786 -54.714  57.502  0.00  0.00    +0.000 HD
ENDBRANCH  17  20
ENDBRANCH   5  12
BRANCH   8  22
ATOM     22  O   UNL     1     -32.817 -47.897  49.356  0.00  0.00    +0.000 OA
ATOM     23  H   UNL     1     -32.529 -46.969  49.211  0.00  0.00    +0.000 HD
ENDBRANCH   8  22
BRANCH  10  24
ATOM     24  O   UNL     1     -35.953 -46.345  52.569  0.00  0.00    +0.000 OA
ATOM     25  H   UNL     1     -36.040 -46.359  53.539  0.00  0.00    +0.000 HD
ENDBRANCH  10  24
TORSDOF 5
ENDMDL
MODEL 4
REMARK VINA RESULT:      -6.7      1.443      7.312
REMARK  Name = 5280445_Luteolin.pdbqt.pdb
REMARK  5 active torsions:
REMARK  status: ('A' for Active; 'I' for Inactive)
REMARK    1  A    between atoms: C_5  and  C_12
REMARK    2  A    between atoms: C_8  and  O_22
REMARK    3  A    between atoms: C_10  and  O_24
REMARK    4  A    between atoms: C_15  and  O_18
REMARK    5  A    between atoms: C_17  and  O_20
REMARK                            x       y       z     vdW  Elec       q    Type
REMARK                         _______ _______ _______ _____ _____    ______ ____
ROOT
ATOM      1  O   UNL     1     -46.513 -63.374  41.528  0.00  0.00    +0.000 OA
ATOM      2  O   UNL     1     -43.020 -61.511  40.409  0.00  0.00    +0.000 OA
ATOM      3  C   UNL     1     -44.425 -63.445  40.176  0.00  0.00    +0.000 A 
ATOM      4  C   UNL     1     -45.649 -64.000  40.626  0.00  0.00    +0.000 A 
ATOM      5  C   UNL     1     -46.166 -62.116  42.036  0.00  0.00    +0.000 A 
ATOM      6  C   UNL     1     -44.035 -62.120  40.695  0.00  0.00    +0.000 A 
ATOM      7  C   UNL     1     -45.041 -61.668  41.587  0.00  0.00    +0.000 A 
ATOM      8  C   UNL     1     -43.620 -64.137  39.271  0.00  0.00    +0.000 A 
ATOM      9  C   UNL     1     -46.050 -65.246  40.158  0.00  0.00    +0.000 A 
ATOM     10  C   UNL     1     -45.235 -65.926  39.254  0.00  0.00    +0.000 A 
ATOM     11  C   UNL     1     -44.029 -65.384  38.809  0.00  0.00    +0.000 A 
ENDROOT
BRANCH   5  12
ATOM     12  C   UNL     1     -47.069 -61.465  42.977  0.00  0.00    +0.000 A 
ATOM     13  C   UNL     1     -48.363 -61.110  42.585  0.00  0.00    +0.000 A 
ATOM     14  C   UNL     1     -46.658 -61.186  44.287  0.00  0.00    +0.000 A 
ATOM     15  C   UNL     1     -49.215 -60.490  43.489  0.00  0.00    +0.000 A 
ATOM     16  C   UNL     1     -47.513 -60.563  45.196  0.00  0.00    +0.000 A 
ATOM     17  C   UNL     1     -48.795 -60.219  44.786  0.00  0.00    +0.000 A 
BRANCH  15  18
ATOM     18  O   UNL     1     -50.477 -60.148  43.093  0.00  0.00    +0.000 OA
ATOM     19  H   UNL     1     -50.754 -59.439  43.708  0.00  0.00    +0.000 HD
ENDBRANCH  15  18
BRANCH  17  20
ATOM     20  O   UNL     1     -49.672 -59.607  45.639  0.00  0.00    +0.000 OA
ATOM     21  H   UNL     1     -50.561 -59.674  45.246  0.00  0.00    +0.000 HD
ENDBRANCH  17  20
ENDBRANCH   5  12
BRANCH   8  22
ATOM     22  O   UNL     1     -42.430 -63.655  38.802  0.00  0.00    +0.000 OA
ATOM     23  H   UNL     1     -41.713 -64.294  39.007  0.00  0.00    +0.000 HD
ENDBRANCH   8  22
BRANCH  10  24
ATOM     24  O   UNL     1     -45.648 -67.149  38.809  0.00  0.00    +0.000 OA
ATOM     25  H   UNL     1     -46.433 -67.020  38.247  0.00  0.00    +0.000 HD
ENDBRANCH  10  24
TORSDOF 5
ENDMDL
MODEL 5
REMARK VINA RESULT:      -6.7     21.332     22.893
REMARK  Name = 5280445_Luteolin.pdbqt.pdb
REMARK  5 active torsions:
REMARK  status: ('A' for Active; 'I' for Inactive)
REMARK    1  A    between atoms: C_5  and  C_12
REMARK    2  A    between atoms: C_8  and  O_22
REMARK    3  A    between atoms: C_10  and  O_24
REMARK    4  A    between atoms: C_15  and  O_18
REMARK    5  A    between atoms: C_17  and  O_20
REMARK                            x       y       z     vdW  Elec       q    Type
REMARK                         _______ _______ _______ _____ _____    ______ ____
ROOT
ATOM      1  O   UNL     1     -37.800 -43.982  50.586  0.00  0.00    +0.000 OA
ATOM      2  O   UNL     1     -34.410 -41.777  49.838  0.00  0.00    +0.000 OA
ATOM      3  C   UNL     1     -35.342 -43.728  50.881  0.00  0.00    +0.000 A 
ATOM      4  C   UNL     1     -36.566 -44.413  51.082  0.00  0.00    +0.000 A 
ATOM      5  C   UNL     1     -37.854 -42.799  49.839  0.00  0.00    +0.000 A 
ATOM      6  C   UNL     1     -35.370 -42.478  50.098  0.00  0.00    +0.000 A 
ATOM      7  C   UNL     1     -36.706 -42.226  49.694  0.00  0.00    +0.000 A 
ATOM      8  C   UNL     1     -34.152 -44.228  51.410  0.00  0.00    +0.000 A 
ATOM      9  C   UNL     1     -36.579 -45.595  51.814  0.00  0.00    +0.000 A 
ATOM     10  C   UNL     1     -35.383 -46.082  52.338  0.00  0.00    +0.000 A 
ATOM     11  C   UNL     1     -34.174 -45.411  52.143  0.00  0.00    +0.000 A 
ENDROOT
BRANCH   5  12
ATOM     12  C   UNL     1     -39.141 -42.353  49.323  0.00  0.00    +0.000 A 
ATOM     13  C   UNL     1     -39.593 -42.791  48.075  0.00  0.00    +0.000 A 
ATOM     14  C   UNL     1     -39.947 -41.481  50.068  0.00  0.00    +0.000 A 
ATOM     15  C   UNL     1     -40.822 -42.359  47.592  0.00  0.00    +0.000 A 
ATOM     16  C   UNL     1     -41.181 -41.047  49.583  0.00  0.00    +0.000 A 
ATOM     17  C   UNL     1     -41.612 -41.493  48.341  0.00  0.00    +0.000 A 
BRANCH  15  18
ATOM     18  O   UNL     1     -41.251 -42.795  46.372  0.00  0.00    +0.000 OA
ATOM     19  H   UNL     1     -41.629 -43.682  46.536  0.00  0.00    +0.000 HD
ENDBRANCH  15  18
BRANCH  17  20
ATOM     20  O   UNL     1     -42.814 -41.098  47.821  0.00  0.00    +0.000 OA
ATOM     21  H   UNL     1     -42.633 -40.601  47.002  0.00  0.00    +0.000 HD
ENDBRANCH  17  20
ENDBRANCH   5  12
BRANCH   8  22
ATOM     22  O   UNL     1     -32.942 -43.613  51.251  0.00  0.00    +0.000 OA
ATOM     23  H   UNL     1     -32.280 -44.030  51.845  0.00  0.00    +0.000 HD
ENDBRANCH   8  22
BRANCH  10  24
ATOM     24  O   UNL     1     -35.419 -47.243  53.054  0.00  0.00    +0.000 OA
ATOM     25  H   UNL     1     -35.122 -47.968  52.476  0.00  0.00    +0.000 HD
ENDBRANCH  10  24
TORSDOF 5
ENDMDL
MODEL 6
REMARK VINA RESULT:      -6.4     20.156     21.630
REMARK  Name = 5280445_Luteolin.pdbqt.pdb
REMARK  5 active torsions:
REMARK  status: ('A' for Active; 'I' for Inactive)
REMARK    1  A    between atoms: C_5  and  C_12
REMARK    2  A    between atoms: C_8  and  O_22
REMARK    3  A    between atoms: C_10  and  O_24
REMARK    4  A    between atoms: C_15  and  O_18
REMARK    5  A    between atoms: C_17  and  O_20
REMARK                            x       y       z     vdW  Elec       q    Type
REMARK                         _______ _______ _______ _____ _____    ______ ____
ROOT
ATOM      1  O   UNL     1     -32.315 -51.489  51.630  0.00  0.00    +0.000 OA
ATOM      2  O   UNL     1     -30.573 -52.081  55.309  0.00  0.00    +0.000 OA
ATOM      3  C   UNL     1     -30.930 -52.946  53.098  0.00  0.00    +0.000 A 
ATOM      4  C   UNL     1     -31.570 -52.648  51.869  0.00  0.00    +0.000 A 
ATOM      5  C   UNL     1     -32.453 -50.549  52.658  0.00  0.00    +0.000 A 
ATOM      6  C   UNL     1     -31.060 -51.972  54.198  0.00  0.00    +0.000 A 
ATOM      7  C   UNL     1     -31.847 -50.882  53.749  0.00  0.00    +0.000 A 
ATOM      8  C   UNL     1     -30.204 -54.126  53.253  0.00  0.00    +0.000 A 
ATOM      9  C   UNL     1     -31.471 -53.542  50.808  0.00  0.00    +0.000 A 
ATOM     10  C   UNL     1     -30.741 -54.717  50.978  0.00  0.00    +0.000 A 
ATOM     11  C   UNL     1     -30.110 -55.016  52.187  0.00  0.00    +0.000 A 
ENDROOT
BRANCH   5  12
ATOM     12  C   UNL     1     -33.230 -49.343  52.406  0.00  0.00    +0.000 A 
ATOM     13  C   UNL     1     -33.064 -48.631  51.214  0.00  0.00    +0.000 A 
ATOM     14  C   UNL     1     -34.155 -48.877  53.350  0.00  0.00    +0.000 A 
ATOM     15  C   UNL     1     -33.809 -47.481  50.984  0.00  0.00    +0.000 A 
ATOM     16  C   UNL     1     -34.904 -47.722  53.119  0.00  0.00    +0.000 A 
ATOM     17  C   UNL     1     -34.724 -47.030  51.929  0.00  0.00    +0.000 A 
BRANCH  15  18
ATOM     18  O   UNL     1     -33.637 -46.796  49.816  0.00  0.00    +0.000 OA
ATOM     19  H   UNL     1     -33.325 -47.463  49.172  0.00  0.00    +0.000 HD
ENDBRANCH  15  18
BRANCH  17  20
ATOM     20  O   UNL     1     -35.434 -45.893  51.654  0.00  0.00    +0.000 OA
ATOM     21  H   UNL     1     -36.117 -46.122  50.998  0.00  0.00    +0.000 HD
ENDBRANCH  17  20
ENDBRANCH   5  12
BRANCH   8  22
ATOM     22  O   UNL     1     -29.566 -54.470  54.412  0.00  0.00    +0.000 OA
ATOM     23  H   UNL     1     -29.324 -53.657  54.907  0.00  0.00    +0.000 HD
ENDBRANCH   8  22
BRANCH  10  24
ATOM     24  O   UNL     1     -30.657 -55.581  49.924  0.00  0.00    +0.000 OA
ATOM     25  H   UNL     1     -30.477 -55.063  49.119  0.00  0.00    +0.000 HD
ENDBRANCH  10  24
TORSDOF 5
ENDMDL
MODEL 7
REMARK VINA RESULT:      -6.4     20.639     22.090
REMARK  Name = 5280445_Luteolin.pdbqt.pdb
REMARK  5 active torsions:
REMARK  status: ('A' for Active; 'I' for Inactive)
REMARK    1  A    between atoms: C_5  and  C_12
REMARK    2  A    between atoms: C_8  and  O_22
REMARK    3  A    between atoms: C_10  and  O_24
REMARK    4  A    between atoms: C_15  and  O_18
REMARK    5  A    between atoms: C_17  and  O_20
REMARK                            x       y       z     vdW  Elec       q    Type
REMARK                         _______ _______ _______ _____ _____    ______ ____
ROOT
ATOM      1  O   UNL     1     -32.873 -50.368  53.982  0.00  0.00    +0.000 OA
ATOM      2  O   UNL     1     -31.440 -52.162  50.569  0.00  0.00    +0.000 OA
ATOM      3  C   UNL     1     -31.955 -52.413  52.901  0.00  0.00    +0.000 A 
ATOM      4  C   UNL     1     -32.462 -51.703  54.018  0.00  0.00    +0.000 A 
ATOM      5  C   UNL     1     -32.786 -49.665  52.774  0.00  0.00    +0.000 A 
ATOM      6  C   UNL     1     -31.853 -51.696  51.616  0.00  0.00    +0.000 A 
ATOM      7  C   UNL     1     -32.317 -50.369  51.798  0.00  0.00    +0.000 A 
ATOM      8  C   UNL     1     -31.567 -53.747  53.023  0.00  0.00    +0.000 A 
ATOM      9  C   UNL     1     -32.573 -52.345  55.246  0.00  0.00    +0.000 A 
ATOM     10  C   UNL     1     -32.182 -53.679  55.352  0.00  0.00    +0.000 A 
ATOM     11  C   UNL     1     -31.681 -54.382  54.255  0.00  0.00    +0.000 A 
ENDROOT
BRANCH   5  12
ATOM     12  C   UNL     1     -33.215 -48.273  52.739  0.00  0.00    +0.000 A 
ATOM     13  C   UNL     1     -34.561 -47.953  52.541  0.00  0.00    +0.000 A 
ATOM     14  C   UNL     1     -32.289 -47.234  52.904  0.00  0.00    +0.000 A 
ATOM     15  C   UNL     1     -34.960 -46.623  52.510  0.00  0.00    +0.000 A 
ATOM     16  C   UNL     1     -32.689 -45.898  52.873  0.00  0.00    +0.000 A 
ATOM     17  C   UNL     1     -34.031 -45.601  52.675  0.00  0.00    +0.000 A 
BRANCH  15  18
ATOM     18  O   UNL     1     -36.278 -46.324  52.316  0.00  0.00    +0.000 OA
ATOM     19  H   UNL     1     -36.613 -46.063  53.197  0.00  0.00    +0.000 HD
ENDBRANCH  15  18
BRANCH  17  20
ATOM     20  O   UNL     1     -34.474 -44.308  52.636  0.00  0.00    +0.000 OA
ATOM     21  H   UNL     1     -35.249 -44.242  53.224  0.00  0.00    +0.000 HD
ENDBRANCH  17  20
ENDBRANCH   5  12
BRANCH   8  22
ATOM     22  O   UNL     1     -31.071 -54.483  51.983  0.00  0.00    +0.000 OA
ATOM     23  H   UNL     1     -30.162 -54.179  51.770  0.00  0.00    +0.000 HD
ENDBRANCH   8  22
BRANCH  10  24
ATOM     24  O   UNL     1     -32.299 -54.289  56.568  0.00  0.00    +0.000 OA
ATOM     25  H   UNL     1     -33.218 -54.595  56.668  0.00  0.00    +0.000 HD
ENDBRANCH  10  24
TORSDOF 5
ENDMDL
MODEL 8
REMARK VINA RESULT:      -6.3     11.004     13.636
REMARK  Name = 5280445_Luteolin.pdbqt.pdb
REMARK  5 active torsions:
REMARK  status: ('A' for Active; 'I' for Inactive)
REMARK    1  A    between atoms: C_5  and  C_12
REMARK    2  A    between atoms: C_8  and  O_22
REMARK    3  A    between atoms: C_10  and  O_24
REMARK    4  A    between atoms: C_15  and  O_18
REMARK    5  A    between atoms: C_17  and  O_20
REMARK                            x       y       z     vdW  Elec       q    Type
REMARK                         _______ _______ _______ _____ _____    ______ ____
ROOT
ATOM      1  O   UNL     1     -43.551 -53.760  33.255  0.00  0.00    +0.000 OA
ATOM      2  O   UNL     1     -44.315 -55.394  36.951  0.00  0.00    +0.000 OA
ATOM      3  C   UNL     1     -43.035 -55.533  34.924  0.00  0.00    +0.000 A 
ATOM      4  C   UNL     1     -42.848 -54.894  33.673  0.00  0.00    +0.000 A 
ATOM      5  C   UNL     1     -44.507 -53.202  34.112  0.00  0.00    +0.000 A 
ATOM      6  C   UNL     1     -44.037 -54.965  35.846  0.00  0.00    +0.000 A 
ATOM      7  C   UNL     1     -44.628 -53.831  35.233  0.00  0.00    +0.000 A 
ATOM      8  C   UNL     1     -42.290 -56.661  35.264  0.00  0.00    +0.000 A 
ATOM      9  C   UNL     1     -41.912 -55.399  32.777  0.00  0.00    +0.000 A 
ATOM     10  C   UNL     1     -41.176 -56.528  33.132  0.00  0.00    +0.000 A 
ATOM     11  C   UNL     1     -41.356 -57.161  34.362  0.00  0.00    +0.000 A 
ENDROOT
BRANCH   5  12
ATOM     12  C   UNL     1     -45.238 -52.020  33.673  0.00  0.00    +0.000 A 
ATOM     13  C   UNL     1     -45.280 -50.877  34.476  0.00  0.00    +0.000 A 
ATOM     14  C   UNL     1     -45.907 -52.008  32.442  0.00  0.00    +0.000 A 
ATOM     15  C   UNL     1     -45.980 -49.755  34.048  0.00  0.00    +0.000 A 
ATOM     16  C   UNL     1     -46.610 -50.883  32.012  0.00  0.00    +0.000 A 
ATOM     17  C   UNL     1     -46.640 -49.757  32.825  0.00  0.00    +0.000 A 
BRANCH  15  18
ATOM     18  O   UNL     1     -46.013 -48.645  34.842  0.00  0.00    +0.000 OA
ATOM     19  H   UNL     1     -46.958 -48.518  35.063  0.00  0.00    +0.000 HD
ENDBRANCH  15  18
BRANCH  17  20
ATOM     20  O   UNL     1     -47.315 -48.628  32.449  0.00  0.00    +0.000 OA
ATOM     21  H   UNL     1     -48.192 -48.901  32.126  0.00  0.00    +0.000 HD
ENDBRANCH  17  20
ENDBRANCH   5  12
BRANCH   8  22
ATOM     22  O   UNL     1     -42.426 -57.321  36.455  0.00  0.00    +0.000 OA
ATOM     23  H   UNL     1     -41.596 -57.239  36.973  0.00  0.00    +0.000 HD
ENDBRANCH   8  22
BRANCH  10  24
ATOM     24  O   UNL     1     -40.263 -57.008  32.237  0.00  0.00    +0.000 OA
ATOM     25  H   UNL     1     -39.412 -57.117  32.698  0.00  0.00    +0.000 HD
ENDBRANCH  10  24
TORSDOF 5
ENDMDL
MODEL 9
REMARK VINA RESULT:      -6.3     22.461     23.906
REMARK  Name = 5280445_Luteolin.pdbqt.pdb
REMARK  5 active torsions:
REMARK  status: ('A' for Active; 'I' for Inactive)
REMARK    1  A    between atoms: C_5  and  C_12
REMARK    2  A    between atoms: C_8  and  O_22
REMARK    3  A    between atoms: C_10  and  O_24
REMARK    4  A    between atoms: C_15  and  O_18
REMARK    5  A    between atoms: C_17  and  O_20
REMARK                            x       y       z     vdW  Elec       q    Type
REMARK                         _______ _______ _______ _____ _____    ______ ____
ROOT
ATOM      1  O   UNL     1     -65.577 -70.344  30.492  0.00  0.00    +0.000 OA
ATOM      2  O   UNL     1     -63.235 -69.759  27.162  0.00  0.00    +0.000 OA
ATOM      3  C   UNL     1     -65.248 -70.718  28.054  0.00  0.00    +0.000 A 
ATOM      4  C   UNL     1     -65.979 -70.863  29.259  0.00  0.00    +0.000 A 
ATOM      5  C   UNL     1     -64.374 -69.631  30.566  0.00  0.00    +0.000 A 
ATOM      6  C   UNL     1     -63.977 -69.971  28.104  0.00  0.00    +0.000 A 
ATOM      7  C   UNL     1     -63.758 -69.535  29.436  0.00  0.00    +0.000 A 
ATOM      8  C   UNL     1     -65.722 -71.267  26.863  0.00  0.00    +0.000 A 
ATOM      9  C   UNL     1     -67.182 -71.561  29.251  0.00  0.00    +0.000 A 
ATOM     10  C   UNL     1     -67.643 -72.104  28.053  0.00  0.00    +0.000 A 
ATOM     11  C   UNL     1     -66.926 -71.965  26.864  0.00  0.00    +0.000 A 
ENDROOT
BRANCH   5  12
ATOM     12  C   UNL     1     -63.957 -69.091  31.854  0.00  0.00    +0.000 A 
ATOM     13  C   UNL     1     -63.419 -69.931  32.833  0.00  0.00    +0.000 A 
ATOM     14  C   UNL     1     -64.087 -67.723  32.132  0.00  0.00    +0.000 A 
ATOM     15  C   UNL     1     -63.026 -69.406  34.057  0.00  0.00    +0.000 A 
ATOM     16  C   UNL     1     -63.691 -67.196  33.362  0.00  0.00    +0.000 A 
ATOM     17  C   UNL     1     -63.159 -68.048  34.320  0.00  0.00    +0.000 A 
BRANCH  15  18
ATOM     18  O   UNL     1     -62.501 -70.238  35.004  0.00  0.00    +0.000 OA
ATOM     19  H   UNL     1     -63.255 -70.781  35.312  0.00  0.00    +0.000 HD
ENDBRANCH  15  18
BRANCH  17  20
ATOM     20  O   UNL     1     -62.757 -67.580  35.541  0.00  0.00    +0.000 OA
ATOM     21  H   UNL     1     -63.210 -68.107  36.224  0.00  0.00    +0.000 HD
ENDBRANCH  17  20
ENDBRANCH   5  12
BRANCH   8  22
ATOM     22  O   UNL     1     -65.061 -71.161  25.671  0.00  0.00    +0.000 OA
ATOM     23  H   UNL     1     -64.818 -70.223  25.512  0.00  0.00    +0.000 HD
ENDBRANCH   8  22
BRANCH  10  24
ATOM     24  O   UNL     1     -68.826 -72.786  28.069  0.00  0.00    +0.000 OA
ATOM     25  H   UNL     1     -69.529 -72.172  28.346  0.00  0.00    +0.000 HD
ENDBRANCH  10  24
TORSDOF 5
ENDMDL
