MODEL 1
REMARK VINA RESULT:      -6.2      0.000      0.000
REMARK  Name = 5281239_Fucoxanthin.pdbqt.pdb
REMARK  19 active torsions:
REMARK  status: ('A' for Active; 'I' for Inactive)
REMARK    1  A    between atoms: C_1  and  C_5
REMARK    2  A    between atoms: C_2  and  C_26
REMARK    3  A    between atoms: C_3  and  C_5
REMARK    4  A    between atoms: C_3  and  C_7
REMARK    5  A    between atoms: C_6  and  C_10
REMARK    6  A    between atoms: C_8  and  C_10
REMARK    7  A    between atoms: C_8  and  C_12
REMARK    8  A    between atoms: C_12  and  C_13
REMARK    9  A    between atoms: C_13  and  C_15
REMARK   10  A    between atoms: C_20  and  O_24
REMARK   11  A    between atoms: C_26  and  C_27
REMARK   12  A    between atoms: C_27  and  C_30
REMARK   13  A    between atoms: C_29  and  C_33
REMARK   14  A    between atoms: C_31  and  C_33
REMARK   15  A    between atoms: C_31  and  C_44
REMARK   16  A    between atoms: C_35  and  O_45
REMARK   17  A    between atoms: C_37  and  O_47
REMARK   18  A    between atoms: C_39  and  C_43
REMARK   19  A    between atoms: O_47  and  C_49
REMARK                            x       y       z     vdW  Elec       q    Type
REMARK                         _______ _______ _______ _____ _____    ______ ____
ROOT
ATOM      1  C   UNL     1     -42.384 -58.458  36.506  0.00  0.00    +0.000 C 
ATOM      2  C   UNL     1     -42.197 -59.605  36.803  0.00  0.00    +0.000 C 
ENDROOT
BRANCH   2   3
ATOM      3  C   UNL     1     -41.960 -61.074  37.175  0.00  0.00    +0.000 C 
BRANCH   3   4
ATOM      4  C   UNL     1     -41.762 -62.316  37.486  0.00  0.00    +0.000 C 
ATOM      5  C   UNL     1     -42.889 -63.300  37.390  0.00  0.00    +0.000 C 
BRANCH   4   7
ATOM      6  C   UNL     1     -39.374 -63.118  38.194  0.00  0.00    +0.000 C 
ATOM      7  C   UNL     1     -40.471 -62.751  37.867  0.00  0.00    +0.000 C 
BRANCH   6   8
ATOM      8  C   UNL     1     -37.977 -63.587  38.614  0.00  0.00    +0.000 C 
BRANCH   8   9
ATOM      9  C   UNL     1     -36.796 -63.979  38.980  0.00  0.00    +0.000 C 
ATOM     10  C   UNL     1     -36.193 -65.213  38.381  0.00  0.00    +0.000 C 
BRANCH   9  12
ATOM     11  C   UNL     1     -35.551 -62.740  40.923  0.00  0.00    +0.000 C 
ATOM     12  C   UNL     1     -36.125 -63.306  40.031  0.00  0.00    +0.000 C 
BRANCH  11  18
ATOM     13  C   UNL     1     -34.524 -60.638  41.822  0.00  0.00    +0.000 C 
ATOM     14  C   UNL     1     -34.503 -62.868  43.161  0.00  0.00    +0.000 C 
ATOM     15  C   UNL     1     -34.116 -60.123  43.136  0.00  0.00    +0.000 C 
ATOM     16  C   UNL     1     -33.885 -60.594  44.443  0.00  0.00    +0.000 C 
ATOM     17  C   UNL     1     -34.136 -61.968  44.248  0.00  0.00    +0.000 C 
ATOM     18  C   UNL     1     -34.922 -62.122  41.904  0.00  0.00    +0.000 C 
ATOM     19  C   UNL     1     -33.356 -60.495  40.810  0.00  0.00    +0.000 C 
ATOM     20  C   UNL     1     -35.751 -59.807  41.336  0.00  0.00    +0.000 C 
ATOM     21  C   UNL     1     -33.379 -63.863  42.856  0.00  0.00    +0.000 C 
BRANCH  14  22
ATOM     22  O   UNL     1     -35.579 -63.663  43.608  0.00  0.00    +0.000 OA
ATOM     23  H   UNL     1     -35.111 -64.443  43.958  0.00  0.00    +0.000 HD
ENDBRANCH  14  22
BRANCH  16  24
ATOM     24  O   UNL     1     -32.749 -60.176  45.122  0.00  0.00    +0.000 OA
BRANCH  24  26
ATOM     25  O   UNL     1     -33.645 -60.684  47.230  0.00  0.00    +0.000 OA
ATOM     26  C   UNL     1     -32.764 -60.655  46.390  0.00  0.00    +0.000 C 
ATOM     27  C   UNL     1     -31.470 -61.239  46.836  0.00  0.00    +0.000 C 
ENDBRANCH  24  26
ENDBRANCH  16  24
ENDBRANCH  11  18
ENDBRANCH   9  12
ENDBRANCH   8   9
ENDBRANCH   6   8
ENDBRANCH   4   7
ENDBRANCH   3   4
ENDBRANCH   2   3
BRANCH   1  28
ATOM     28  C   UNL     1     -42.624 -56.995  36.117  0.00  0.00    +0.000 C 
BRANCH  28  29
ATOM     29  C   UNL     1     -42.829 -55.762  35.777  0.00  0.00    +0.000 C 
ATOM     30  C   UNL     1     -44.106 -55.080  36.165  0.00  0.00    +0.000 C 
BRANCH  29  32
ATOM     31  C   UNL     1     -41.050 -54.488  34.343  0.00  0.00    +0.000 C 
ATOM     32  C   UNL     1     -41.861 -55.074  35.007  0.00  0.00    +0.000 C 
BRANCH  31  33
ATOM     33  C   UNL     1     -40.024 -53.740  33.482  0.00  0.00    +0.000 C 
BRANCH  33  34
ATOM     34  C   UNL     1     -39.149 -53.106  32.760  0.00  0.00    +0.000 C 
ATOM     35  C   UNL     1     -39.677 -52.023  31.842  0.00  0.00    +0.000 C 
BRANCH  34  37
ATOM     36  O   UNL     1     -36.825 -52.811  32.287  0.00  0.00    +0.000 OA
ATOM     37  C   UNL     1     -37.702 -53.483  32.820  0.00  0.00    +0.000 C 
BRANCH  37  38
ATOM     38  C   UNL     1     -37.273 -54.669  33.521  0.00  0.00    +0.000 C 
BRANCH  38  40
ATOM     39  O   UNL     1     -36.229 -56.789  33.278  0.00  0.00    +0.000 OA
ATOM     40  C   UNL     1     -36.808 -55.849  34.225  0.00  0.00    +0.000 C 
ATOM     41  C   UNL     1     -35.306 -56.203  34.193  0.00  0.00    +0.000 C 
ATOM     42  C   UNL     1     -37.687 -56.462  35.373  0.00  0.00    +0.000 C 
ATOM     43  C   UNL     1     -34.836 -57.142  35.160  0.00  0.00    +0.000 C 
ATOM     44  C   UNL     1     -36.850 -57.433  36.081  0.00  0.00    +0.000 C 
ATOM     45  C   UNL     1     -35.512 -57.869  36.155  0.00  0.00    +0.000 C 
ATOM     46  C   UNL     1     -34.256 -55.319  33.514  0.00  0.00    +0.000 C 
ATOM     47  C   UNL     1     -38.059 -55.271  36.290  0.00  0.00    +0.000 C 
ATOM     48  C   UNL     1     -38.921 -57.081  34.679  0.00  0.00    +0.000 C 
BRANCH  45  49
ATOM     49  O   UNL     1     -34.938 -58.200  37.345  0.00  0.00    +0.000 OA
ATOM     50  H   UNL     1     -34.862 -57.438  37.946  0.00  0.00    +0.000 HD
ENDBRANCH  45  49
ENDBRANCH  38  40
ENDBRANCH  37  38
ENDBRANCH  34  37
ENDBRANCH  33  34
ENDBRANCH  31  33
ENDBRANCH  29  32
ENDBRANCH  28  29
ENDBRANCH   1  28
TORSDOF 19
ENDMDL
MODEL 2
REMARK VINA RESULT:      -6.1     20.044     23.761
REMARK  Name = 5281239_Fucoxanthin.pdbqt.pdb
REMARK  19 active torsions:
REMARK  status: ('A' for Active; 'I' for Inactive)
REMARK    1  A    between atoms: C_1  and  C_5
REMARK    2  A    between atoms: C_2  and  C_26
REMARK    3  A    between atoms: C_3  and  C_5
REMARK    4  A    between atoms: C_3  and  C_7
REMARK    5  A    between atoms: C_6  and  C_10
REMARK    6  A    between atoms: C_8  and  C_10
REMARK    7  A    between atoms: C_8  and  C_12
REMARK    8  A    between atoms: C_12  and  C_13
REMARK    9  A    between atoms: C_13  and  C_15
REMARK   10  A    between atoms: C_20  and  O_24
REMARK   11  A    between atoms: C_26  and  C_27
REMARK   12  A    between atoms: C_27  and  C_30
REMARK   13  A    between atoms: C_29  and  C_33
REMARK   14  A    between atoms: C_31  and  C_33
REMARK   15  A    between atoms: C_31  and  C_44
REMARK   16  A    between atoms: C_35  and  O_45
REMARK   17  A    between atoms: C_37  and  O_47
REMARK   18  A    between atoms: C_39  and  C_43
REMARK   19  A    between atoms: O_47  and  C_49
REMARK                            x       y       z     vdW  Elec       q    Type
REMARK                         _______ _______ _______ _____ _____    ______ ____
ROOT
ATOM      1  C   UNL     1     -53.979 -42.292  27.572  0.00  0.00    +0.000 C 
ATOM      2  C   UNL     1     -54.816 -41.788  28.268  0.00  0.00    +0.000 C 
ENDROOT
BRANCH   2   3
ATOM      3  C   UNL     1     -55.889 -41.150  29.158  0.00  0.00    +0.000 C 
BRANCH   3   4
ATOM      4  C   UNL     1     -56.794 -40.608  29.911  0.00  0.00    +0.000 C 
ATOM      5  C   UNL     1     -57.880 -39.780  29.297  0.00  0.00    +0.000 C 
BRANCH   4   7
ATOM      6  C   UNL     1     -56.775 -41.038  32.492  0.00  0.00    +0.000 C 
ATOM      7  C   UNL     1     -56.782 -40.841  31.307  0.00  0.00    +0.000 C 
BRANCH   6   8
ATOM      8  C   UNL     1     -56.771 -41.292  34.004  0.00  0.00    +0.000 C 
BRANCH   8   9
ATOM      9  C   UNL     1     -56.760 -41.499  35.284  0.00  0.00    +0.000 C 
ATOM     10  C   UNL     1     -58.042 -41.496  36.059  0.00  0.00    +0.000 C 
BRANCH   9  12
ATOM     11  C   UNL     1     -54.477 -41.704  36.552  0.00  0.00    +0.000 C 
ATOM     12  C   UNL     1     -55.525 -41.612  35.968  0.00  0.00    +0.000 C 
BRANCH  11  18
ATOM     13  C   UNL     1     -52.002 -42.087  36.459  0.00  0.00    +0.000 C 
ATOM     14  C   UNL     1     -53.255 -41.686  38.703  0.00  0.00    +0.000 C 
ATOM     15  C   UNL     1     -50.848 -41.849  37.336  0.00  0.00    +0.000 C 
ATOM     16  C   UNL     1     -50.578 -41.524  38.679  0.00  0.00    +0.000 C 
ATOM     17  C   UNL     1     -51.893 -41.481  39.184  0.00  0.00    +0.000 C 
ATOM     18  C   UNL     1     -53.326 -41.800  37.188  0.00  0.00    +0.000 C 
ATOM     19  C   UNL     1     -52.011 -43.565  35.984  0.00  0.00    +0.000 C 
ATOM     20  C   UNL     1     -51.881 -41.136  35.229  0.00  0.00    +0.000 C 
ATOM     21  C   UNL     1     -53.907 -42.899  39.373  0.00  0.00    +0.000 C 
BRANCH  14  22
ATOM     22  O   UNL     1     -54.027 -40.582  39.121  0.00  0.00    +0.000 OA
ATOM     23  H   UNL     1     -53.568 -40.325  39.942  0.00  0.00    +0.000 HD
ENDBRANCH  14  22
BRANCH  16  24
ATOM     24  O   UNL     1     -49.587 -42.222  39.358  0.00  0.00    +0.000 OA
BRANCH  24  26
ATOM     25  O   UNL     1     -47.601 -41.576  38.289  0.00  0.00    +0.000 OA
ATOM     26  C   UNL     1     -48.394 -41.593  39.212  0.00  0.00    +0.000 C 
ATOM     27  C   UNL     1     -47.979 -40.792  40.395  0.00  0.00    +0.000 C 
ENDBRANCH  24  26
ENDBRANCH  16  24
ENDBRANCH  11  18
ENDBRANCH   9  12
ENDBRANCH   8   9
ENDBRANCH   6   8
ENDBRANCH   4   7
ENDBRANCH   3   4
ENDBRANCH   2   3
BRANCH   1  28
ATOM     28  C   UNL     1     -52.915 -42.946  26.682  0.00  0.00    +0.000 C 
BRANCH  28  29
ATOM     29  C   UNL     1     -52.024 -43.501  25.923  0.00  0.00    +0.000 C 
ATOM     30  C   UNL     1     -50.611 -43.005  25.939  0.00  0.00    +0.000 C 
BRANCH  29  32
ATOM     31  C   UNL     1     -52.719 -45.435  24.303  0.00  0.00    +0.000 C 
ATOM     32  C   UNL     1     -52.399 -44.553  25.052  0.00  0.00    +0.000 C 
BRANCH  31  33
ATOM     33  C   UNL     1     -53.132 -46.550  23.335  0.00  0.00    +0.000 C 
BRANCH  33  34
ATOM     34  C   UNL     1     -53.485 -47.500  22.521  0.00  0.00    +0.000 C 
ATOM     35  C   UNL     1     -54.782 -47.303  21.763  0.00  0.00    +0.000 C 
BRANCH  34  37
ATOM     36  O   UNL     1     -53.068 -49.755  21.849  0.00  0.00    +0.000 OA
ATOM     37  C   UNL     1     -52.654 -48.738  22.396  0.00  0.00    +0.000 C 
BRANCH  37  38
ATOM     38  C   UNL     1     -51.310 -48.786  22.920  0.00  0.00    +0.000 C 
BRANCH  38  40
ATOM     39  O   UNL     1     -49.196 -49.838  22.662  0.00  0.00    +0.000 OA
ATOM     40  C   UNL     1     -49.955 -48.864  23.430  0.00  0.00    +0.000 C 
ATOM     41  C   UNL     1     -48.778 -48.484  22.506  0.00  0.00    +0.000 C 
ATOM     42  C   UNL     1     -49.710 -48.850  24.982  0.00  0.00    +0.000 C 
ATOM     43  C   UNL     1     -47.516 -48.235  23.125  0.00  0.00    +0.000 C 
ATOM     44  C   UNL     1     -48.274 -48.640  25.186  0.00  0.00    +0.000 C 
ATOM     45  C   UNL     1     -47.109 -48.309  24.468  0.00  0.00    +0.000 C 
ATOM     46  C   UNL     1     -48.976 -47.947  21.085  0.00  0.00    +0.000 C 
ATOM     47  C   UNL     1     -50.531 -47.654  25.519  0.00  0.00    +0.000 C 
ATOM     48  C   UNL     1     -50.229 -50.207  25.506  0.00  0.00    +0.000 C 
BRANCH  45  49
ATOM     49  O   UNL     1     -46.157 -47.490  24.996  0.00  0.00    +0.000 OA
ATOM     50  H   UNL     1     -45.416 -47.338  24.383  0.00  0.00    +0.000 HD
ENDBRANCH  45  49
ENDBRANCH  38  40
ENDBRANCH  37  38
ENDBRANCH  34  37
ENDBRANCH  33  34
ENDBRANCH  31  33
ENDBRANCH  29  32
ENDBRANCH  28  29
ENDBRANCH   1  28
TORSDOF 19
ENDMDL
MODEL 3
REMARK VINA RESULT:      -6.1     24.053     29.300
REMARK  Name = 5281239_Fucoxanthin.pdbqt.pdb
REMARK  19 active torsions:
REMARK  status: ('A' for Active; 'I' for Inactive)
REMARK    1  A    between atoms: C_1  and  C_5
REMARK    2  A    between atoms: C_2  and  C_26
REMARK    3  A    between atoms: C_3  and  C_5
REMARK    4  A    between atoms: C_3  and  C_7
REMARK    5  A    between atoms: C_6  and  C_10
REMARK    6  A    between atoms: C_8  and  C_10
REMARK    7  A    between atoms: C_8  and  C_12
REMARK    8  A    between atoms: C_12  and  C_13
REMARK    9  A    between atoms: C_13  and  C_15
REMARK   10  A    between atoms: C_20  and  O_24
REMARK   11  A    between atoms: C_26  and  C_27
REMARK   12  A    between atoms: C_27  and  C_30
REMARK   13  A    between atoms: C_29  and  C_33
REMARK   14  A    between atoms: C_31  and  C_33
REMARK   15  A    between atoms: C_31  and  C_44
REMARK   16  A    between atoms: C_35  and  O_45
REMARK   17  A    between atoms: C_37  and  O_47
REMARK   18  A    between atoms: C_39  and  C_43
REMARK   19  A    between atoms: O_47  and  C_49
REMARK                            x       y       z     vdW  Elec       q    Type
REMARK                         _______ _______ _______ _____ _____    ______ ____
ROOT
ATOM      1  C   UNL     1     -58.557 -73.655  34.227  0.00  0.00    +0.000 C 
ATOM      2  C   UNL     1     -57.873 -73.538  35.206  0.00  0.00    +0.000 C 
ENDROOT
BRANCH   2   3
ATOM      3  C   UNL     1     -57.004 -73.394  36.461  0.00  0.00    +0.000 C 
BRANCH   3   4
ATOM      4  C   UNL     1     -56.271 -73.276  37.523  0.00  0.00    +0.000 C 
ATOM      5  C   UNL     1     -54.936 -73.954  37.589  0.00  0.00    +0.000 C 
BRANCH   4   7
ATOM      6  C   UNL     1     -57.083 -71.776  39.508  0.00  0.00    +0.000 C 
ATOM      7  C   UNL     1     -56.710 -72.466  38.598  0.00  0.00    +0.000 C 
BRANCH   6   8
ATOM      8  C   UNL     1     -57.563 -70.894  40.666  0.00  0.00    +0.000 C 
BRANCH   8   9
ATOM      9  C   UNL     1     -57.976 -70.156  41.648  0.00  0.00    +0.000 C 
ATOM     10  C   UNL     1     -57.232 -70.147  42.949  0.00  0.00    +0.000 C 
BRANCH   9  12
ATOM     11  C   UNL     1     -60.230 -68.838  41.430  0.00  0.00    +0.000 C 
ATOM     12  C   UNL     1     -59.196 -69.445  41.531  0.00  0.00    +0.000 C 
BRANCH  11  18
ATOM     13  C   UNL     1     -62.735 -68.857  41.404  0.00  0.00    +0.000 C 
ATOM     14  C   UNL     1     -61.366 -66.672  41.056  0.00  0.00    +0.000 C 
ATOM     15  C   UNL     1     -63.815 -67.872  41.558  0.00  0.00    +0.000 C 
ATOM     16  C   UNL     1     -63.993 -66.476  41.561  0.00  0.00    +0.000 C 
ATOM     17  C   UNL     1     -62.669 -66.066  41.305  0.00  0.00    +0.000 C 
ATOM     18  C   UNL     1     -61.361 -68.169  41.324  0.00  0.00    +0.000 C 
ATOM     19  C   UNL     1     -62.951 -69.683  40.107  0.00  0.00    +0.000 C 
ATOM     20  C   UNL     1     -62.761 -69.801  42.644  0.00  0.00    +0.000 C 
ATOM     21  C   UNL     1     -60.871 -66.369  39.639  0.00  0.00    +0.000 C 
BRANCH  14  22
ATOM     22  O   UNL     1     -60.433 -66.047  41.909  0.00  0.00    +0.000 OA
ATOM     23  H   UNL     1     -60.949 -65.963  42.732  0.00  0.00    +0.000 HD
ENDBRANCH  14  22
BRANCH  16  24
ATOM     24  O   UNL     1     -65.050 -65.927  40.847  0.00  0.00    +0.000 OA
BRANCH  24  26
ATOM     25  O   UNL     1     -66.933 -67.003  41.742  0.00  0.00    +0.000 OA
ATOM     26  C   UNL     1     -66.114 -66.768  40.873  0.00  0.00    +0.000 C 
ATOM     27  C   UNL     1     -66.303 -67.549  39.621  0.00  0.00    +0.000 C 
ENDBRANCH  24  26
ENDBRANCH  16  24
ENDBRANCH  11  18
ENDBRANCH   9  12
ENDBRANCH   8   9
ENDBRANCH   6   8
ENDBRANCH   4   7
ENDBRANCH   3   4
ENDBRANCH   2   3
BRANCH   1  28
ATOM     28  C   UNL     1     -59.436 -73.810  32.980  0.00  0.00    +0.000 C 
BRANCH  28  29
ATOM     29  C   UNL     1     -60.169 -73.941  31.921  0.00  0.00    +0.000 C 
ATOM     30  C   UNL     1     -59.855 -75.009  30.918  0.00  0.00    +0.000 C 
BRANCH  29  32
ATOM     31  C   UNL     1     -62.161 -72.298  31.493  0.00  0.00    +0.000 C 
ATOM     32  C   UNL     1     -61.244 -73.047  31.695  0.00  0.00    +0.000 C 
BRANCH  31  33
ATOM     33  C   UNL     1     -63.335 -71.351  31.222  0.00  0.00    +0.000 C 
BRANCH  33  34
ATOM     34  C   UNL     1     -64.335 -70.553  30.986  0.00  0.00    +0.000 C 
ATOM     35  C   UNL     1     -64.097 -69.074  31.214  0.00  0.00    +0.000 C 
BRANCH  34  37
ATOM     36  O   UNL     1     -66.549 -71.371  31.355  0.00  0.00    +0.000 OA
ATOM     37  C   UNL     1     -65.657 -71.104  30.556  0.00  0.00    +0.000 C 
BRANCH  37  38
ATOM     38  C   UNL     1     -65.944 -71.344  29.162  0.00  0.00    +0.000 C 
BRANCH  38  40
ATOM     39  O   UNL     1     -66.636 -70.321  27.133  0.00  0.00    +0.000 OA
ATOM     40  C   UNL     1     -66.265 -71.576  27.767  0.00  0.00    +0.000 C 
ATOM     41  C   UNL     1     -65.414 -70.896  26.674  0.00  0.00    +0.000 C 
ATOM     42  C   UNL     1     -67.109 -72.839  27.367  0.00  0.00    +0.000 C 
ATOM     43  C   UNL     1     -65.525 -71.409  25.347  0.00  0.00    +0.000 C 
ATOM     44  C   UNL     1     -67.019 -72.970  25.911  0.00  0.00    +0.000 C 
ATOM     45  C   UNL     1     -66.323 -72.434  24.810  0.00  0.00    +0.000 C 
ATOM     46  C   UNL     1     -64.184 -70.040  26.989  0.00  0.00    +0.000 C 
ATOM     47  C   UNL     1     -66.427 -74.034  28.078  0.00  0.00    +0.000 C 
ATOM     48  C   UNL     1     -68.539 -72.578  27.890  0.00  0.00    +0.000 C 
BRANCH  45  49
ATOM     49  O   UNL     1     -65.915 -73.221  23.776  0.00  0.00    +0.000 OA
ATOM     50  H   UNL     1     -66.619 -73.364  23.118  0.00  0.00    +0.000 HD
ENDBRANCH  45  49
ENDBRANCH  38  40
ENDBRANCH  37  38
ENDBRANCH  34  37
ENDBRANCH  33  34
ENDBRANCH  31  33
ENDBRANCH  29  32
ENDBRANCH  28  29
ENDBRANCH   1  28
TORSDOF 19
ENDMDL
MODEL 4
REMARK VINA RESULT:      -6.0     12.974     19.312
REMARK  Name = 5281239_Fucoxanthin.pdbqt.pdb
REMARK  19 active torsions:
REMARK  status: ('A' for Active; 'I' for Inactive)
REMARK    1  A    between atoms: C_1  and  C_5
REMARK    2  A    between atoms: C_2  and  C_26
REMARK    3  A    between atoms: C_3  and  C_5
REMARK    4  A    between atoms: C_3  and  C_7
REMARK    5  A    between atoms: C_6  and  C_10
REMARK    6  A    between atoms: C_8  and  C_10
REMARK    7  A    between atoms: C_8  and  C_12
REMARK    8  A    between atoms: C_12  and  C_13
REMARK    9  A    between atoms: C_13  and  C_15
REMARK   10  A    between atoms: C_20  and  O_24
REMARK   11  A    between atoms: C_26  and  C_27
REMARK   12  A    between atoms: C_27  and  C_30
REMARK   13  A    between atoms: C_29  and  C_33
REMARK   14  A    between atoms: C_31  and  C_33
REMARK   15  A    between atoms: C_31  and  C_44
REMARK   16  A    between atoms: C_35  and  O_45
REMARK   17  A    between atoms: C_37  and  O_47
REMARK   18  A    between atoms: C_39  and  C_43
REMARK   19  A    between atoms: O_47  and  C_49
REMARK                            x       y       z     vdW  Elec       q    Type
REMARK                         _______ _______ _______ _____ _____    ______ ____
ROOT
ATOM      1  C   UNL     1     -46.916 -66.847  28.394  0.00  0.00    +0.000 C 
ATOM      2  C   UNL     1     -46.455 -66.877  27.286  0.00  0.00    +0.000 C 
ENDROOT
BRANCH   2   3
ATOM      3  C   UNL     1     -45.865 -66.922  25.872  0.00  0.00    +0.000 C 
BRANCH   3   4
ATOM      4  C   UNL     1     -45.363 -66.962  24.677  0.00  0.00    +0.000 C 
ATOM      5  C   UNL     1     -45.281 -68.267  23.945  0.00  0.00    +0.000 C 
BRANCH   4   7
ATOM      6  C   UNL     1     -44.582 -64.751  23.518  0.00  0.00    +0.000 C 
ATOM      7  C   UNL     1     -44.941 -65.767  24.049  0.00  0.00    +0.000 C 
BRANCH   6   8
ATOM      8  C   UNL     1     -44.119 -63.455  22.843  0.00  0.00    +0.000 C 
BRANCH   8   9
ATOM      9  C   UNL     1     -43.735 -62.354  22.275  0.00  0.00    +0.000 C 
ATOM     10  C   UNL     1     -43.780 -61.061  23.031  0.00  0.00    +0.000 C 
BRANCH   9  12
ATOM     11  C   UNL     1     -43.078 -62.356  19.739  0.00  0.00    +0.000 C 
ATOM     12  C   UNL     1     -43.383 -62.355  20.903  0.00  0.00    +0.000 C 
BRANCH  11  18
ATOM     13  C   UNL     1     -41.513 -63.115  17.935  0.00  0.00    +0.000 C 
ATOM     14  C   UNL     1     -43.527 -61.543  17.446  0.00  0.00    +0.000 C 
ATOM     15  C   UNL     1     -41.531 -63.200  16.469  0.00  0.00    +0.000 C 
ATOM     16  C   UNL     1     -42.282 -62.717  15.380  0.00  0.00    +0.000 C 
ATOM     17  C   UNL     1     -43.222 -61.926  16.072  0.00  0.00    +0.000 C 
ATOM     18  C   UNL     1     -42.741 -62.354  18.464  0.00  0.00    +0.000 C 
ATOM     19  C   UNL     1     -40.232 -62.377  18.408  0.00  0.00    +0.000 C 
ATOM     20  C   UNL     1     -41.528 -64.567  18.505  0.00  0.00    +0.000 C 
ATOM     21  C   UNL     1     -43.318 -60.041  17.666  0.00  0.00    +0.000 C 
BRANCH  14  22
ATOM     22  O   UNL     1     -44.906 -61.752  17.653  0.00  0.00    +0.000 OA
ATOM     23  H   UNL     1     -44.898 -62.530  18.240  0.00  0.00    +0.000 HD
ENDBRANCH  14  22
BRANCH  16  24
ATOM     24  O   UNL     1     -41.618 -62.210  14.271  0.00  0.00    +0.000 OA
BRANCH  24  26
ATOM     25  O   UNL     1     -39.399 -61.835  14.936  0.00  0.00    +0.000 OA
ATOM     26  C   UNL     1     -40.536 -61.494  14.666  0.00  0.00    +0.000 C 
ATOM     27  C   UNL     1     -40.790 -60.034  14.803  0.00  0.00    +0.000 C 
ENDBRANCH  24  26
ENDBRANCH  16  24
ENDBRANCH  11  18
ENDBRANCH   9  12
ENDBRANCH   8   9
ENDBRANCH   6   8
ENDBRANCH   4   7
ENDBRANCH   3   4
ENDBRANCH   2   3
BRANCH   1  28
ATOM     28  C   UNL     1     -47.503 -66.820  29.810  0.00  0.00    +0.000 C 
BRANCH  28  29
ATOM     29  C   UNL     1     -48.009 -66.801  31.002  0.00  0.00    +0.000 C 
ATOM     30  C   UNL     1     -48.693 -68.018  31.546  0.00  0.00    +0.000 C 
BRANCH  29  32
ATOM     31  C   UNL     1     -47.887 -64.604  32.418  0.00  0.00    +0.000 C 
ATOM     32  C   UNL     1     -47.948 -65.615  31.773  0.00  0.00    +0.000 C 
BRANCH  31  33
ATOM     33  C   UNL     1     -47.798 -63.306  33.230  0.00  0.00    +0.000 C 
BRANCH  33  34
ATOM     34  C   UNL     1     -47.732 -62.206  33.920  0.00  0.00    +0.000 C 
ATOM     35  C   UNL     1     -47.407 -60.939  33.156  0.00  0.00    +0.000 C 
BRANCH  34  37
ATOM     36  O   UNL     1     -49.034 -62.127  35.923  0.00  0.00    +0.000 OA
ATOM     37  C   UNL     1     -47.927 -62.230  35.403  0.00  0.00    +0.000 C 
BRANCH  37  38
ATOM     38  C   UNL     1     -46.804 -62.381  36.297  0.00  0.00    +0.000 C 
BRANCH  38  40
ATOM     39  O   UNL     1     -44.508 -62.966  36.461  0.00  0.00    +0.000 OA
ATOM     40  C   UNL     1     -45.689 -62.563  37.207  0.00  0.00    +0.000 C 
ATOM     41  C   UNL     1     -44.439 -61.671  37.055  0.00  0.00    +0.000 C 
ATOM     42  C   UNL     1     -45.925 -63.276  38.586  0.00  0.00    +0.000 C 
ATOM     43  C   UNL     1     -43.529 -61.630  38.154  0.00  0.00    +0.000 C 
ATOM     44  C   UNL     1     -44.724 -63.052  39.394  0.00  0.00    +0.000 C 
ATOM     45  C   UNL     1     -43.531 -62.304  39.387  0.00  0.00    +0.000 C 
ATOM     46  C   UNL     1     -44.344 -60.538  36.029  0.00  0.00    +0.000 C 
ATOM     47  C   UNL     1     -47.156 -62.575  39.209  0.00  0.00    +0.000 C 
ATOM     48  C   UNL     1     -46.195 -64.761  38.256  0.00  0.00    +0.000 C 
BRANCH  45  49
ATOM     49  O   UNL     1     -43.031 -61.753  40.528  0.00  0.00    +0.000 OA
ATOM     50  H   UNL     1     -43.380 -62.180  41.331  0.00  0.00    +0.000 HD
ENDBRANCH  45  49
ENDBRANCH  38  40
ENDBRANCH  37  38
ENDBRANCH  34  37
ENDBRANCH  33  34
ENDBRANCH  31  33
ENDBRANCH  29  32
ENDBRANCH  28  29
ENDBRANCH   1  28
TORSDOF 19
ENDMDL
MODEL 5
REMARK VINA RESULT:      -5.9      5.852     10.482
REMARK  Name = 5281239_Fucoxanthin.pdbqt.pdb
REMARK  19 active torsions:
REMARK  status: ('A' for Active; 'I' for Inactive)
REMARK    1  A    between atoms: C_1  and  C_5
REMARK    2  A    between atoms: C_2  and  C_26
REMARK    3  A    between atoms: C_3  and  C_5
REMARK    4  A    between atoms: C_3  and  C_7
REMARK    5  A    between atoms: C_6  and  C_10
REMARK    6  A    between atoms: C_8  and  C_10
REMARK    7  A    between atoms: C_8  and  C_12
REMARK    8  A    between atoms: C_12  and  C_13
REMARK    9  A    between atoms: C_13  and  C_15
REMARK   10  A    between atoms: C_20  and  O_24
REMARK   11  A    between atoms: C_26  and  C_27
REMARK   12  A    between atoms: C_27  and  C_30
REMARK   13  A    between atoms: C_29  and  C_33
REMARK   14  A    between atoms: C_31  and  C_33
REMARK   15  A    between atoms: C_31  and  C_44
REMARK   16  A    between atoms: C_35  and  O_45
REMARK   17  A    between atoms: C_37  and  O_47
REMARK   18  A    between atoms: C_39  and  C_43
REMARK   19  A    between atoms: O_47  and  C_49
REMARK                            x       y       z     vdW  Elec       q    Type
REMARK                         _______ _______ _______ _____ _____    ______ ____
ROOT
ATOM      1  C   UNL     1     -43.275 -60.105  37.942  0.00  0.00    +0.000 C 
ATOM      2  C   UNL     1     -43.774 -60.845  38.744  0.00  0.00    +0.000 C 
ENDROOT
BRANCH   2   3
ATOM      3  C   UNL     1     -44.416 -61.793  39.764  0.00  0.00    +0.000 C 
BRANCH   3   4
ATOM      4  C   UNL     1     -44.957 -62.598  40.624  0.00  0.00    +0.000 C 
ATOM      5  C   UNL     1     -45.438 -62.070  41.941  0.00  0.00    +0.000 C 
BRANCH   4   7
ATOM      6  C   UNL     1     -45.294 -65.120  40.018  0.00  0.00    +0.000 C 
ATOM      7  C   UNL     1     -45.138 -63.963  40.297  0.00  0.00    +0.000 C 
BRANCH   6   8
ATOM      8  C   UNL     1     -45.493 -66.597  39.657  0.00  0.00    +0.000 C 
BRANCH   8   9
ATOM      9  C   UNL     1     -45.660 -67.848  39.361  0.00  0.00    +0.000 C 
ATOM     10  C   UNL     1     -46.304 -68.776  40.345  0.00  0.00    +0.000 C 
BRANCH   9  12
ATOM     11  C   UNL     1     -44.670 -68.796  37.128  0.00  0.00    +0.000 C 
ATOM     12  C   UNL     1     -45.127 -68.363  38.153  0.00  0.00    +0.000 C 
BRANCH  11  18
ATOM     13  C   UNL     1     -42.664 -69.523  35.814  0.00  0.00    +0.000 C 
ATOM     14  C   UNL     1     -45.059 -69.532  34.798  0.00  0.00    +0.000 C 
ATOM     15  C   UNL     1     -42.406 -70.316  34.605  0.00  0.00    +0.000 C 
ATOM     16  C   UNL     1     -43.109 -70.842  33.503  0.00  0.00    +0.000 C 
ATOM     17  C   UNL     1     -44.399 -70.351  33.788  0.00  0.00    +0.000 C 
ATOM     18  C   UNL     1     -44.170 -69.267  36.003  0.00  0.00    +0.000 C 
ATOM     19  C   UNL     1     -41.939 -68.154  35.715  0.00  0.00    +0.000 C 
ATOM     20  C   UNL     1     -42.124 -70.320  37.040  0.00  0.00    +0.000 C 
ATOM     21  C   UNL     1     -45.577 -68.220  34.203  0.00  0.00    +0.000 C 
BRANCH  14  22
ATOM     22  O   UNL     1     -46.215 -70.221  35.220  0.00  0.00    +0.000 OA
ATOM     23  H   UNL     1     -46.838 -70.013  34.499  0.00  0.00    +0.000 HD
ENDBRANCH  14  22
BRANCH  16  24
ATOM     24  O   UNL     1     -42.570 -70.708  32.230  0.00  0.00    +0.000 OA
BRANCH  24  26
ATOM     25  O   UNL     1     -44.021 -69.304  31.035  0.00  0.00    +0.000 OA
ATOM     26  C   UNL     1     -43.008 -69.558  31.660  0.00  0.00    +0.000 C 
ATOM     27  C   UNL     1     -42.077 -68.408  31.818  0.00  0.00    +0.000 C 
ENDBRANCH  24  26
ENDBRANCH  16  24
ENDBRANCH  11  18
ENDBRANCH   9  12
ENDBRANCH   8   9
ENDBRANCH   6   8
ENDBRANCH   4   7
ENDBRANCH   3   4
ENDBRANCH   2   3
BRANCH   1  28
ATOM     28  C   UNL     1     -42.644 -59.163  36.910  0.00  0.00    +0.000 C 
BRANCH  28  29
ATOM     29  C   UNL     1     -42.112 -58.358  36.045  0.00  0.00    +0.000 C 
ATOM     30  C   UNL     1     -42.899 -57.196  35.520  0.00  0.00    +0.000 C 
BRANCH  29  32
ATOM     31  C   UNL     1     -39.691 -58.799  35.157  0.00  0.00    +0.000 C 
ATOM     32  C   UNL     1     -40.802 -58.602  35.570  0.00  0.00    +0.000 C 
BRANCH  31  33
ATOM     33  C   UNL     1     -38.276 -59.038  34.618  0.00  0.00    +0.000 C 
BRANCH  33  34
ATOM     34  C   UNL     1     -37.079 -59.246  34.154  0.00  0.00    +0.000 C 
ATOM     35  C   UNL     1     -36.602 -58.317  33.057  0.00  0.00    +0.000 C 
BRANCH  34  37
ATOM     36  O   UNL     1     -35.490 -61.018  33.948  0.00  0.00    +0.000 OA
ATOM     37  C   UNL     1     -36.255 -60.384  34.667  0.00  0.00    +0.000 C 
BRANCH  37  38
ATOM     38  C   UNL     1     -36.326 -60.787  36.051  0.00  0.00    +0.000 C 
BRANCH  38  40
ATOM     39  O   UNL     1     -35.080 -61.271  38.015  0.00  0.00    +0.000 OA
ATOM     40  C   UNL     1     -36.415 -61.164  37.449  0.00  0.00    +0.000 C 
ATOM     41  C   UNL     1     -35.872 -60.200  38.525  0.00  0.00    +0.000 C 
ATOM     42  C   UNL     1     -37.453 -62.256  37.892  0.00  0.00    +0.000 C 
ATOM     43  C   UNL     1     -36.282 -60.429  39.873  0.00  0.00    +0.000 C 
ATOM     44  C   UNL     1     -37.525 -62.210  39.354  0.00  0.00    +0.000 C 
ATOM     45  C   UNL     1     -37.090 -61.428  40.442  0.00  0.00    +0.000 C 
ATOM     46  C   UNL     1     -35.307 -58.816  38.194  0.00  0.00    +0.000 C 
ATOM     47  C   UNL     1     -38.798 -61.831  37.253  0.00  0.00    +0.000 C 
ATOM     48  C   UNL     1     -36.928 -63.595  37.328  0.00  0.00    +0.000 C 
BRANCH  45  49
ATOM     49  O   UNL     1     -37.890 -61.204  41.521  0.00  0.00    +0.000 OA
ATOM     50  H   UNL     1     -37.504 -61.545  42.347  0.00  0.00    +0.000 HD
ENDBRANCH  45  49
ENDBRANCH  38  40
ENDBRANCH  37  38
ENDBRANCH  34  37
ENDBRANCH  33  34
ENDBRANCH  31  33
ENDBRANCH  29  32
ENDBRANCH  28  29
ENDBRANCH   1  28
TORSDOF 19
ENDMDL
MODEL 6
REMARK VINA RESULT:      -5.9     17.593     27.102
REMARK  Name = 5281239_Fucoxanthin.pdbqt.pdb
REMARK  19 active torsions:
REMARK  status: ('A' for Active; 'I' for Inactive)
REMARK    1  A    between atoms: C_1  and  C_5
REMARK    2  A    between atoms: C_2  and  C_26
REMARK    3  A    between atoms: C_3  and  C_5
REMARK    4  A    between atoms: C_3  and  C_7
REMARK    5  A    between atoms: C_6  and  C_10
REMARK    6  A    between atoms: C_8  and  C_10
REMARK    7  A    between atoms: C_8  and  C_12
REMARK    8  A    between atoms: C_12  and  C_13
REMARK    9  A    between atoms: C_13  and  C_15
REMARK   10  A    between atoms: C_20  and  O_24
REMARK   11  A    between atoms: C_26  and  C_27
REMARK   12  A    between atoms: C_27  and  C_30
REMARK   13  A    between atoms: C_29  and  C_33
REMARK   14  A    between atoms: C_31  and  C_33
REMARK   15  A    between atoms: C_31  and  C_44
REMARK   16  A    between atoms: C_35  and  O_45
REMARK   17  A    between atoms: C_37  and  O_47
REMARK   18  A    between atoms: C_39  and  C_43
REMARK   19  A    between atoms: O_47  and  C_49
REMARK                            x       y       z     vdW  Elec       q    Type
REMARK                         _______ _______ _______ _____ _____    ______ ____
ROOT
ATOM      1  C   UNL     1     -29.657 -53.152  63.782  0.00  0.00    +0.000 C 
ATOM      2  C   UNL     1     -28.867 -52.908  62.912  0.00  0.00    +0.000 C 
ENDROOT
BRANCH   2   3
ATOM      3  C   UNL     1     -27.855 -52.592  61.804  0.00  0.00    +0.000 C 
BRANCH   3   4
ATOM      4  C   UNL     1     -26.998 -52.321  60.871  0.00  0.00    +0.000 C 
ATOM      5  C   UNL     1     -25.646 -51.784  61.230  0.00  0.00    +0.000 C 
BRANCH   4   7
ATOM      6  C   UNL     1     -27.595 -52.800  58.369  0.00  0.00    +0.000 C 
ATOM      7  C   UNL     1     -27.322 -52.581  59.518  0.00  0.00    +0.000 C 
BRANCH   6   8
ATOM      8  C   UNL     1     -27.938 -53.080  56.901  0.00  0.00    +0.000 C 
BRANCH   8   9
ATOM      9  C   UNL     1     -28.223 -53.309  55.657  0.00  0.00    +0.000 C 
ATOM     10  C   UNL     1     -27.413 -54.290  54.866  0.00  0.00    +0.000 C 
BRANCH   9  12
ATOM     11  C   UNL     1     -30.077 -51.896  54.461  0.00  0.00    +0.000 C 
ATOM     12  C   UNL     1     -29.227 -52.544  55.013  0.00  0.00    +0.000 C 
BRANCH  11  18
ATOM     13  C   UNL     1     -32.460 -51.667  53.720  0.00  0.00    +0.000 C 
ATOM     14  C   UNL     1     -30.670 -49.852  53.198  0.00  0.00    +0.000 C 
ATOM     15  C   UNL     1     -33.345 -50.579  53.281  0.00  0.00    +0.000 C 
ATOM     16  C   UNL     1     -33.259 -49.241  52.852  0.00  0.00    +0.000 C 
ATOM     17  C   UNL     1     -31.860 -49.069  52.886  0.00  0.00    +0.000 C 
ATOM     18  C   UNL     1     -31.005 -51.183  53.854  0.00  0.00    +0.000 C 
ATOM     19  C   UNL     1     -32.501 -52.831  52.693  0.00  0.00    +0.000 C 
ATOM     20  C   UNL     1     -32.961 -52.168  55.109  0.00  0.00    +0.000 C 
ATOM     21  C   UNL     1     -29.797 -50.060  51.958  0.00  0.00    +0.000 C 
BRANCH  14  22
ATOM     22  O   UNL     1     -29.875 -49.090  54.079  0.00  0.00    +0.000 OA
ATOM     23  H   UNL     1     -29.079 -49.649  54.153  0.00  0.00    +0.000 HD
ENDBRANCH  14  22
BRANCH  16  24
ATOM     24  O   UNL     1     -33.990 -48.838  51.742  0.00  0.00    +0.000 OA
BRANCH  24  26
ATOM     25  O   UNL     1     -35.233 -47.284  52.985  0.00  0.00    +0.000 OA
ATOM     26  C   UNL     1     -34.623 -47.668  52.003  0.00  0.00    +0.000 C 
ATOM     27  C   UNL     1     -34.572 -46.685  50.888  0.00  0.00    +0.000 C 
ENDBRANCH  24  26
ENDBRANCH  16  24
ENDBRANCH  11  18
ENDBRANCH   9  12
ENDBRANCH   8   9
ENDBRANCH   6   8
ENDBRANCH   4   7
ENDBRANCH   3   4
ENDBRANCH   2   3
BRANCH   1  28
ATOM     28  C   UNL     1     -30.661 -53.456  64.899  0.00  0.00    +0.000 C 
BRANCH  28  29
ATOM     29  C   UNL     1     -31.511 -53.724  65.840  0.00  0.00    +0.000 C 
ATOM     30  C   UNL     1     -32.020 -52.627  66.724  0.00  0.00    +0.000 C 
BRANCH  29  32
ATOM     31  C   UNL     1     -32.282 -56.191  66.248  0.00  0.00    +0.000 C 
ATOM     32  C   UNL     1     -31.925 -55.061  66.054  0.00  0.00    +0.000 C 
BRANCH  31  33
ATOM     33  C   UNL     1     -32.743 -57.629  66.511  0.00  0.00    +0.000 C 
BRANCH  33  34
ATOM     34  C   UNL     1     -33.127 -58.852  66.729  0.00  0.00    +0.000 C 
ATOM     35  C   UNL     1     -33.645 -59.168  68.117  0.00  0.00    +0.000 C 
BRANCH  34  37
ATOM     36  O   UNL     1     -32.437 -59.666  64.590  0.00  0.00    +0.000 OA
ATOM     37  C   UNL     1     -33.007 -59.886  65.654  0.00  0.00    +0.000 C 
BRANCH  37  38
ATOM     38  C   UNL     1     -33.563 -61.206  65.829  0.00  0.00    +0.000 C 
BRANCH  38  40
ATOM     39  O   UNL     1     -35.026 -62.845  64.924  0.00  0.00    +0.000 OA
ATOM     40  C   UNL     1     -34.091 -62.547  65.997  0.00  0.00    +0.000 C 
ATOM     41  C   UNL     1     -33.820 -63.606  64.908  0.00  0.00    +0.000 C 
ATOM     42  C   UNL     1     -34.488 -63.048  67.432  0.00  0.00    +0.000 C 
ATOM     43  C   UNL     1     -34.040 -64.973  65.257  0.00  0.00    +0.000 C 
ATOM     44  C   UNL     1     -34.695 -64.495  67.338  0.00  0.00    +0.000 C 
ATOM     45  C   UNL     1     -34.514 -65.565  66.440  0.00  0.00    +0.000 C 
ATOM     46  C   UNL     1     -32.946 -63.333  63.680  0.00  0.00    +0.000 C 
ATOM     47  C   UNL     1     -33.276 -62.715  68.336  0.00  0.00    +0.000 C 
ATOM     48  C   UNL     1     -35.753 -62.254  67.824  0.00  0.00    +0.000 C 
BRANCH  45  49
ATOM     49  O   UNL     1     -34.099 -66.789  66.868  0.00  0.00    +0.000 OA
ATOM     50  H   UNL     1     -33.277 -66.742  67.387  0.00  0.00    +0.000 HD
ENDBRANCH  45  49
ENDBRANCH  38  40
ENDBRANCH  37  38
ENDBRANCH  34  37
ENDBRANCH  33  34
ENDBRANCH  31  33
ENDBRANCH  29  32
ENDBRANCH  28  29
ENDBRANCH   1  28
TORSDOF 19
ENDMDL
MODEL 7
REMARK VINA RESULT:      -5.8     21.641     27.765
REMARK  Name = 5281239_Fucoxanthin.pdbqt.pdb
REMARK  19 active torsions:
REMARK  status: ('A' for Active; 'I' for Inactive)
REMARK    1  A    between atoms: C_1  and  C_5
REMARK    2  A    between atoms: C_2  and  C_26
REMARK    3  A    between atoms: C_3  and  C_5
REMARK    4  A    between atoms: C_3  and  C_7
REMARK    5  A    between atoms: C_6  and  C_10
REMARK    6  A    between atoms: C_8  and  C_10
REMARK    7  A    between atoms: C_8  and  C_12
REMARK    8  A    between atoms: C_12  and  C_13
REMARK    9  A    between atoms: C_13  and  C_15
REMARK   10  A    between atoms: C_20  and  O_24
REMARK   11  A    between atoms: C_26  and  C_27
REMARK   12  A    between atoms: C_27  and  C_30
REMARK   13  A    between atoms: C_29  and  C_33
REMARK   14  A    between atoms: C_31  and  C_33
REMARK   15  A    between atoms: C_31  and  C_44
REMARK   16  A    between atoms: C_35  and  O_45
REMARK   17  A    between atoms: C_37  and  O_47
REMARK   18  A    between atoms: C_39  and  C_43
REMARK   19  A    between atoms: O_47  and  C_49
REMARK                            x       y       z     vdW  Elec       q    Type
REMARK                         _______ _______ _______ _____ _____    ______ ____
ROOT
ATOM      1  C   UNL     1     -51.602 -41.880  29.979  0.00  0.00    +0.000 C 
ATOM      2  C   UNL     1     -51.821 -41.918  28.800  0.00  0.00    +0.000 C 
ENDROOT
BRANCH   2   3
ATOM      3  C   UNL     1     -52.107 -41.970  27.294  0.00  0.00    +0.000 C 
BRANCH   3   4
ATOM      4  C   UNL     1     -52.351 -42.018  26.022  0.00  0.00    +0.000 C 
ATOM      5  C   UNL     1     -52.379 -40.754  25.218  0.00  0.00    +0.000 C 
BRANCH   4   7
ATOM      6  C   UNL     1     -52.702 -44.328  24.845  0.00  0.00    +0.000 C 
ATOM      7  C   UNL     1     -52.539 -43.268  25.386  0.00  0.00    +0.000 C 
BRANCH   6   8
ATOM      8  C   UNL     1     -52.911 -45.679  24.151  0.00  0.00    +0.000 C 
BRANCH   8   9
ATOM      9  C   UNL     1     -53.083 -46.817  23.555  0.00  0.00    +0.000 C 
ATOM     10  C   UNL     1     -52.315 -48.024  23.998  0.00  0.00    +0.000 C 
BRANCH   9  12
ATOM     11  C   UNL     1     -54.614 -46.960  21.433  0.00  0.00    +0.000 C 
ATOM     12  C   UNL     1     -53.914 -46.893  22.409  0.00  0.00    +0.000 C 
BRANCH  11  18
ATOM     13  C   UNL     1     -54.819 -47.382  18.971  0.00  0.00    +0.000 C 
ATOM     14  C   UNL     1     -56.863 -46.708  20.433  0.00  0.00    +0.000 C 
ATOM     15  C   UNL     1     -55.899 -47.685  18.024  0.00  0.00    +0.000 C 
ATOM     16  C   UNL     1     -57.306 -47.664  17.966  0.00  0.00    +0.000 C 
ATOM     17  C   UNL     1     -57.589 -47.160  19.252  0.00  0.00    +0.000 C 
ATOM     18  C   UNL     1     -55.378 -47.030  20.361  0.00  0.00    +0.000 C 
ATOM     19  C   UNL     1     -53.984 -46.178  18.456  0.00  0.00    +0.000 C 
ATOM     20  C   UNL     1     -53.911 -48.644  19.092  0.00  0.00    +0.000 C 
ATOM     21  C   UNL     1     -57.085 -45.214  20.687  0.00  0.00    +0.000 C 
BRANCH  14  22
ATOM     22  O   UNL     1     -57.423 -47.354  21.554  0.00  0.00    +0.000 OA
ATOM     23  H   UNL     1     -57.896 -48.095  21.133  0.00  0.00    +0.000 HD
ENDBRANCH  14  22
BRANCH  16  24
ATOM     24  O   UNL     1     -57.930 -47.129  16.847  0.00  0.00    +0.000 OA
BRANCH  24  26
ATOM     25  O   UNL     1     -59.739 -48.597  16.572  0.00  0.00    +0.000 OA
ATOM     26  C   UNL     1     -58.690 -48.075  16.243  0.00  0.00    +0.000 C 
ATOM     27  C   UNL     1     -58.135 -48.569  14.953  0.00  0.00    +0.000 C 
ENDBRANCH  24  26
ENDBRANCH  16  24
ENDBRANCH  11  18
ENDBRANCH   9  12
ENDBRANCH   8   9
ENDBRANCH   6   8
ENDBRANCH   4   7
ENDBRANCH   3   4
ENDBRANCH   2   3
BRANCH   1  28
ATOM     28  C   UNL     1     -51.331 -41.836  31.487  0.00  0.00    +0.000 C 
BRANCH  28  29
ATOM     29  C   UNL     1     -51.106 -41.810  32.763  0.00  0.00    +0.000 C 
ATOM     30  C   UNL     1     -49.702 -41.905  33.278  0.00  0.00    +0.000 C 
BRANCH  29  32
ATOM     31  C   UNL     1     -53.110 -41.677  34.439  0.00  0.00    +0.000 C 
ATOM     32  C   UNL     1     -52.191 -41.731  33.668  0.00  0.00    +0.000 C 
BRANCH  31  33
ATOM     33  C   UNL     1     -54.283 -41.625  35.426  0.00  0.00    +0.000 C 
BRANCH  33  34
ATOM     34  C   UNL     1     -55.278 -41.572  36.260  0.00  0.00    +0.000 C 
ATOM     35  C   UNL     1     -56.669 -41.701  35.672  0.00  0.00    +0.000 C 
BRANCH  34  37
ATOM     36  O   UNL     1     -55.947 -41.225  38.528  0.00  0.00    +0.000 OA
ATOM     37  C   UNL     1     -55.033 -41.348  37.718  0.00  0.00    +0.000 C 
BRANCH  37  38
ATOM     38  C   UNL     1     -53.690 -41.269  38.242  0.00  0.00    +0.000 C 
BRANCH  38  40
ATOM     39  O   UNL     1     -52.160 -40.031  39.572  0.00  0.00    +0.000 OA
ATOM     40  C   UNL     1     -52.333 -41.218  38.750  0.00  0.00    +0.000 C 
ATOM     41  C   UNL     1     -52.096 -41.271  40.274  0.00  0.00    +0.000 C 
ATOM     42  C   UNL     1     -51.138 -41.596  37.803  0.00  0.00    +0.000 C 
ATOM     43  C   UNL     1     -50.773 -41.570  40.719  0.00  0.00    +0.000 C 
ATOM     44  C   UNL     1     -49.952 -41.743  38.650  0.00  0.00    +0.000 C 
ATOM     45  C   UNL     1     -49.583 -41.799  40.008  0.00  0.00    +0.000 C 
ATOM     46  C   UNL     1     -53.230 -41.453  41.287  0.00  0.00    +0.000 C 
ATOM     47  C   UNL     1     -51.533 -42.946  37.157  0.00  0.00    +0.000 C 
ATOM     48  C   UNL     1     -51.037 -40.453  36.770  0.00  0.00    +0.000 C 
BRANCH  45  49
ATOM     49  O   UNL     1     -48.614 -42.650  40.447  0.00  0.00    +0.000 OA
ATOM     50  H   UNL     1     -47.765 -42.513  39.991  0.00  0.00    +0.000 HD
ENDBRANCH  45  49
ENDBRANCH  38  40
ENDBRANCH  37  38
ENDBRANCH  34  37
ENDBRANCH  33  34
ENDBRANCH  31  33
ENDBRANCH  29  32
ENDBRANCH  28  29
ENDBRANCH   1  28
TORSDOF 19
ENDMDL
MODEL 8
REMARK VINA RESULT:      -5.7     10.019     16.481
REMARK  Name = 5281239_Fucoxanthin.pdbqt.pdb
REMARK  19 active torsions:
REMARK  status: ('A' for Active; 'I' for Inactive)
REMARK    1  A    between atoms: C_1  and  C_5
REMARK    2  A    between atoms: C_2  and  C_26
REMARK    3  A    between atoms: C_3  and  C_5
REMARK    4  A    between atoms: C_3  and  C_7
REMARK    5  A    between atoms: C_6  and  C_10
REMARK    6  A    between atoms: C_8  and  C_10
REMARK    7  A    between atoms: C_8  and  C_12
REMARK    8  A    between atoms: C_12  and  C_13
REMARK    9  A    between atoms: C_13  and  C_15
REMARK   10  A    between atoms: C_20  and  O_24
REMARK   11  A    between atoms: C_26  and  C_27
REMARK   12  A    between atoms: C_27  and  C_30
REMARK   13  A    between atoms: C_29  and  C_33
REMARK   14  A    between atoms: C_31  and  C_33
REMARK   15  A    between atoms: C_31  and  C_44
REMARK   16  A    between atoms: C_35  and  O_45
REMARK   17  A    between atoms: C_37  and  O_47
REMARK   18  A    between atoms: C_39  and  C_43
REMARK   19  A    between atoms: O_47  and  C_49
REMARK                            x       y       z     vdW  Elec       q    Type
REMARK                         _______ _______ _______ _____ _____    ______ ____
ROOT
ATOM      1  C   UNL     1     -47.000 -67.136  28.416  0.00  0.00    +0.000 C 
ATOM      2  C   UNL     1     -46.502 -67.271  27.333  0.00  0.00    +0.000 C 
ENDROOT
BRANCH   2   3
ATOM      3  C   UNL     1     -45.867 -67.450  25.949  0.00  0.00    +0.000 C 
BRANCH   3   4
ATOM      4  C   UNL     1     -45.334 -67.603  24.778  0.00  0.00    +0.000 C 
ATOM      5  C   UNL     1     -45.133 -68.979  24.221  0.00  0.00    +0.000 C 
BRANCH   4   7
ATOM      6  C   UNL     1     -44.700 -65.504  23.349  0.00  0.00    +0.000 C 
ATOM      7  C   UNL     1     -44.989 -66.468  24.005  0.00  0.00    +0.000 C 
BRANCH   6   8
ATOM      8  C   UNL     1     -44.335 -64.272  22.513  0.00  0.00    +0.000 C 
BRANCH   8   9
ATOM      9  C   UNL     1     -44.019 -63.235  21.802  0.00  0.00    +0.000 C 
ATOM     10  C   UNL     1     -43.781 -63.376  20.329  0.00  0.00    +0.000 C 
BRANCH   9  12
ATOM     11  C   UNL     1     -43.579 -60.934  22.975  0.00  0.00    +0.000 C 
ATOM     12  C   UNL     1     -43.784 -61.990  22.437  0.00  0.00    +0.000 C 
BRANCH  11  18
ATOM     13  C   UNL     1     -42.057 -58.978  23.342  0.00  0.00    +0.000 C 
ATOM     14  C   UNL     1     -44.345 -59.198  24.562  0.00  0.00    +0.000 C 
ATOM     15  C   UNL     1     -42.178 -57.612  23.869  0.00  0.00    +0.000 C 
ATOM     16  C   UNL     1     -43.087 -56.829  24.607  0.00  0.00    +0.000 C 
ATOM     17  C   UNL     1     -44.090 -57.790  24.846  0.00  0.00    +0.000 C 
ATOM     18  C   UNL     1     -43.352 -59.779  23.568  0.00  0.00    +0.000 C 
ATOM     19  C   UNL     1     -40.889 -59.717  24.048  0.00  0.00    +0.000 C 
ATOM     20  C   UNL     1     -41.776 -58.883  21.812  0.00  0.00    +0.000 C 
ATOM     21  C   UNL     1     -44.381 -60.030  25.847  0.00  0.00    +0.000 C 
BRANCH  14  22
ATOM     22  O   UNL     1     -45.646 -59.298  24.028  0.00  0.00    +0.000 OA
ATOM     23  H   UNL     1     -45.753 -58.422  23.614  0.00  0.00    +0.000 HD
ENDBRANCH  14  22
BRANCH  16  24
ATOM     24  O   UNL     1     -42.611 -56.035  25.643  0.00  0.00    +0.000 OA
BRANCH  24  26
ATOM     25  O   UNL     1     -41.107 -54.444  24.802  0.00  0.00    +0.000 OA
ATOM     26  C   UNL     1     -42.202 -54.837  25.159  0.00  0.00    +0.000 C 
ATOM     27  C   UNL     1     -43.284 -53.820  25.058  0.00  0.00    +0.000 C 
ENDBRANCH  24  26
ENDBRANCH  16  24
ENDBRANCH  11  18
ENDBRANCH   9  12
ENDBRANCH   8   9
ENDBRANCH   6   8
ENDBRANCH   4   7
ENDBRANCH   3   4
ENDBRANCH   2   3
BRANCH   1  28
ATOM     28  C   UNL     1     -47.639 -66.975  29.800  0.00  0.00    +0.000 C 
BRANCH  28  29
ATOM     29  C   UNL     1     -48.190 -66.839  30.965  0.00  0.00    +0.000 C 
ATOM     30  C   UNL     1     -49.035 -67.941  31.528  0.00  0.00    +0.000 C 
BRANCH  29  32
ATOM     31  C   UNL     1     -47.872 -64.604  32.287  0.00  0.00    +0.000 C 
ATOM     32  C   UNL     1     -48.022 -65.633  31.686  0.00  0.00    +0.000 C 
BRANCH  31  33
ATOM     33  C   UNL     1     -47.671 -63.284  33.042  0.00  0.00    +0.000 C 
BRANCH  33  34
ATOM     34  C   UNL     1     -47.510 -62.164  33.681  0.00  0.00    +0.000 C 
ATOM     35  C   UNL     1     -47.037 -60.976  32.868  0.00  0.00    +0.000 C 
BRANCH  34  37
ATOM     36  O   UNL     1     -48.856 -61.901  35.638  0.00  0.00    +0.000 OA
ATOM     37  C   UNL     1     -47.744 -62.093  35.157  0.00  0.00    +0.000 C 
BRANCH  37  38
ATOM     38  C   UNL     1     -46.654 -62.255  36.090  0.00  0.00    +0.000 C 
BRANCH  38  40
ATOM     39  O   UNL     1     -44.308 -62.598  36.244  0.00  0.00    +0.000 OA
ATOM     40  C   UNL     1     -45.538 -62.425  37.000  0.00  0.00    +0.000 C 
ATOM     41  C   UNL     1     -44.395 -61.388  36.994  0.00  0.00    +0.000 C 
ATOM     42  C   UNL     1     -45.710 -63.327  38.275  0.00  0.00    +0.000 C 
ATOM     43  C   UNL     1     -43.510 -61.385  38.114  0.00  0.00    +0.000 C 
ATOM     44  C   UNL     1     -44.553 -63.074  39.137  0.00  0.00    +0.000 C 
ATOM     45  C   UNL     1     -43.452 -62.203  39.255  0.00  0.00    +0.000 C 
ATOM     46  C   UNL     1     -44.415 -60.132  36.119  0.00  0.00    +0.000 C 
ATOM     47  C   UNL     1     -47.021 -62.850  38.946  0.00  0.00    +0.000 C 
ATOM     48  C   UNL     1     -45.806 -64.779  37.757  0.00  0.00    +0.000 C 
BRANCH  45  49
ATOM     49  O   UNL     1     -43.034 -61.748  40.468  0.00  0.00    +0.000 OA
ATOM     50  H   UNL     1     -43.573 -61.004  40.792  0.00  0.00    +0.000 HD
ENDBRANCH  45  49
ENDBRANCH  38  40
ENDBRANCH  37  38
ENDBRANCH  34  37
ENDBRANCH  33  34
ENDBRANCH  31  33
ENDBRANCH  29  32
ENDBRANCH  28  29
ENDBRANCH   1  28
TORSDOF 19
ENDMDL
MODEL 9
REMARK VINA RESULT:      -5.5      8.446     15.939
REMARK  Name = 5281239_Fucoxanthin.pdbqt.pdb
REMARK  19 active torsions:
REMARK  status: ('A' for Active; 'I' for Inactive)
REMARK    1  A    between atoms: C_1  and  C_5
REMARK    2  A    between atoms: C_2  and  C_26
REMARK    3  A    between atoms: C_3  and  C_5
REMARK    4  A    between atoms: C_3  and  C_7
REMARK    5  A    between atoms: C_6  and  C_10
REMARK    6  A    between atoms: C_8  and  C_10
REMARK    7  A    between atoms: C_8  and  C_12
REMARK    8  A    between atoms: C_12  and  C_13
REMARK    9  A    between atoms: C_13  and  C_15
REMARK   10  A    between atoms: C_20  and  O_24
REMARK   11  A    between atoms: C_26  and  C_27
REMARK   12  A    between atoms: C_27  and  C_30
REMARK   13  A    between atoms: C_29  and  C_33
REMARK   14  A    between atoms: C_31  and  C_33
REMARK   15  A    between atoms: C_31  and  C_44
REMARK   16  A    between atoms: C_35  and  O_45
REMARK   17  A    between atoms: C_37  and  O_47
REMARK   18  A    between atoms: C_39  and  C_43
REMARK   19  A    between atoms: O_47  and  C_49
REMARK                            x       y       z     vdW  Elec       q    Type
REMARK                         _______ _______ _______ _____ _____    ______ ____
ROOT
ATOM      1  C   UNL     1     -45.999 -59.883  35.877  0.00  0.00    +0.000 C 
ATOM      2  C   UNL     1     -45.369 -59.122  35.196  0.00  0.00    +0.000 C 
ENDROOT
BRANCH   2   3
ATOM      3  C   UNL     1     -44.558 -58.148  34.333  0.00  0.00    +0.000 C 
BRANCH   3   4
ATOM      4  C   UNL     1     -43.870 -57.324  33.606  0.00  0.00    +0.000 C 
ATOM      5  C   UNL     1     -42.943 -56.345  34.259  0.00  0.00    +0.000 C 
BRANCH   4   7
ATOM      6  C   UNL     1     -44.030 -57.438  30.997  0.00  0.00    +0.000 C 
ATOM      7  C   UNL     1     -43.958 -57.386  32.194  0.00  0.00    +0.000 C 
BRANCH   6   8
ATOM      8  C   UNL     1     -44.117 -57.508  29.468  0.00  0.00    +0.000 C 
BRANCH   8   9
ATOM      9  C   UNL     1     -44.190 -57.578  28.175  0.00  0.00    +0.000 C 
ATOM     10  C   UNL     1     -44.195 -56.326  27.352  0.00  0.00    +0.000 C 
BRANCH   9  12
ATOM     11  C   UNL     1     -44.550 -59.898  27.014  0.00  0.00    +0.000 C 
ATOM     12  C   UNL     1     -44.382 -58.833  27.547  0.00  0.00    +0.000 C 
BRANCH  11  18
ATOM     13  C   UNL     1     -44.562 -61.272  24.918  0.00  0.00    +0.000 C 
ATOM     14  C   UNL     1     -45.199 -62.276  27.232  0.00  0.00    +0.000 C 
ATOM     15  C   UNL     1     -44.533 -62.700  24.574  0.00  0.00    +0.000 C 
ATOM     16  C   UNL     1     -44.711 -63.951  25.195  0.00  0.00    +0.000 C 
ATOM     17  C   UNL     1     -45.025 -63.526  26.502  0.00  0.00    +0.000 C 
ATOM     18  C   UNL     1     -44.738 -61.067  26.433  0.00  0.00    +0.000 C 
ATOM     19  C   UNL     1     -45.738 -60.573  24.185  0.00  0.00    +0.000 C 
ATOM     20  C   UNL     1     -43.209 -60.639  24.472  0.00  0.00    +0.000 C 
ATOM     21  C   UNL     1     -46.646 -62.101  27.702  0.00  0.00    +0.000 C 
BRANCH  14  22
ATOM     22  O   UNL     1     -44.440 -62.364  28.417  0.00  0.00    +0.000 OA
ATOM     23  H   UNL     1     -44.041 -63.249  28.327  0.00  0.00    +0.000 HD
ENDBRANCH  14  22
BRANCH  16  24
ATOM     24  O   UNL     1     -45.485 -64.916  24.563  0.00  0.00    +0.000 OA
BRANCH  24  26
ATOM     25  O   UNL     1     -44.117 -66.814  24.389  0.00  0.00    +0.000 OA
ATOM     26  C   UNL     1     -44.686 -65.828  23.957  0.00  0.00    +0.000 C 
ATOM     27  C   UNL     1     -44.456 -65.569  22.510  0.00  0.00    +0.000 C 
ENDBRANCH  24  26
ENDBRANCH  16  24
ENDBRANCH  11  18
ENDBRANCH   9  12
ENDBRANCH   8   9
ENDBRANCH   6   8
ENDBRANCH   4   7
ENDBRANCH   3   4
ENDBRANCH   2   3
BRANCH   1  28
ATOM     28  C   UNL     1     -46.799 -60.853  36.754  0.00  0.00    +0.000 C 
BRANCH  28  29
ATOM     29  C   UNL     1     -47.471 -61.667  37.505  0.00  0.00    +0.000 C 
ATOM     30  C   UNL     1     -48.927 -61.902  37.241  0.00  0.00    +0.000 C 
BRANCH  29  32
ATOM     31  C   UNL     1     -46.284 -62.834  39.524  0.00  0.00    +0.000 C 
ATOM     32  C   UNL     1     -46.835 -62.303  38.598  0.00  0.00    +0.000 C 
BRANCH  31  33
ATOM     33  C   UNL     1     -45.569 -63.501  40.704  0.00  0.00    +0.000 C 
BRANCH  33  34
ATOM     34  C   UNL     1     -44.963 -64.075  41.701  0.00  0.00    +0.000 C 
ATOM     35  C   UNL     1     -45.134 -63.435  43.064  0.00  0.00    +0.000 C 
BRANCH  34  37
ATOM     36  O   UNL     1     -43.354 -65.724  42.335  0.00  0.00    +0.000 OA
ATOM     37  C   UNL     1     -44.108 -65.281  41.475  0.00  0.00    +0.000 C 
BRANCH  37  38
ATOM     38  C   UNL     1     -44.138 -65.986  40.215  0.00  0.00    +0.000 C 
BRANCH  38  40
ATOM     39  O   UNL     1     -43.385 -65.937  37.963  0.00  0.00    +0.000 OA
ATOM     40  C   UNL     1     -44.132 -66.698  38.952  0.00  0.00    +0.000 C 
ATOM     41  C   UNL     1     -42.788 -67.171  38.358  0.00  0.00    +0.000 C 
ATOM     42  C   UNL     1     -45.448 -67.396  38.451  0.00  0.00    +0.000 C 
ATOM     43  C   UNL     1     -42.842 -68.151  37.322  0.00  0.00    +0.000 C 
ATOM     44  C   UNL     1     -45.072 -68.264  37.333  0.00  0.00    +0.000 C 
ATOM     45  C   UNL     1     -43.930 -68.769  36.682  0.00  0.00    +0.000 C 
ATOM     46  C   UNL     1     -41.451 -66.994  39.082  0.00  0.00    +0.000 C 
ATOM     47  C   UNL     1     -45.959 -68.225  39.655  0.00  0.00    +0.000 C 
ATOM     48  C   UNL     1     -46.414 -66.254  38.067  0.00  0.00    +0.000 C 
BRANCH  45  49
ATOM     49  O   UNL     1     -43.883 -70.050  36.221  0.00  0.00    +0.000 OA
ATOM     50  H   UNL     1     -44.551 -70.222  35.534  0.00  0.00    +0.000 HD
ENDBRANCH  45  49
ENDBRANCH  38  40
ENDBRANCH  37  38
ENDBRANCH  34  37
ENDBRANCH  33  34
ENDBRANCH  31  33
ENDBRANCH  29  32
ENDBRANCH  28  29
ENDBRANCH   1  28
TORSDOF 19
ENDMDL
