MODEL 1
REMARK VINA RESULT:      -6.5      0.000      0.000
REMARK  Name = 5281416_Esculetin.pdbqt.pdb
REMARK  2 active torsions:
REMARK  status: ('A' for Active; 'I' for Inactive)
REMARK    1  A    between atoms: C_7  and  O_12
REMARK    2  A    between atoms: C_8  and  O_14
REMARK                            x       y       z     vdW  Elec       q    Type
REMARK                         _______ _______ _______ _____ _____    ______ ____
ROOT
ATOM      1  O   UNL     1     -57.868 -60.704  43.220  0.00  0.00    +0.000 OA
ATOM      2  O   UNL     1     -60.054 -59.994  43.690  0.00  0.00    +0.000 OA
ATOM      3  C   UNL     1     -57.622 -62.394  41.402  0.00  0.00    +0.000 A 
ATOM      4  C   UNL     1     -57.041 -61.561  42.397  0.00  0.00    +0.000 A 
ATOM      5  C   UNL     1     -56.837 -63.216  40.611  0.00  0.00    +0.000 A 
ATOM      6  C   UNL     1     -55.671 -61.540  42.613  0.00  0.00    +0.000 A 
ATOM      7  C   UNL     1     -55.462 -63.193  40.831  0.00  0.00    +0.000 A 
ATOM      8  C   UNL     1     -54.891 -62.370  41.814  0.00  0.00    +0.000 A 
ATOM      9  C   UNL     1     -59.033 -62.292  41.315  0.00  0.00    +0.000 A 
ATOM     10  C   UNL     1     -59.697 -61.578  42.004  0.00  0.00    +0.000 A 
ATOM     11  C   UNL     1     -59.279 -60.681  43.046  0.00  0.00    +0.000 A 
ENDROOT
BRANCH   7  12
ATOM     12  O   UNL     1     -54.617 -63.978  40.090  0.00  0.00    +0.000 OA
ATOM     13  H   UNL     1     -53.719 -63.878  40.456  0.00  0.00    +0.000 HD
ENDBRANCH   7  12
BRANCH   8  14
ATOM     14  O   UNL     1     -53.536 -62.379  41.995  0.00  0.00    +0.000 OA
ATOM     15  H   UNL     1     -53.365 -61.717  42.694  0.00  0.00    +0.000 HD
ENDBRANCH   8  14
TORSDOF 2
ENDMDL
MODEL 2
REMARK VINA RESULT:      -6.2      3.304      4.741
REMARK  Name = 5281416_Esculetin.pdbqt.pdb
REMARK  2 active torsions:
REMARK  status: ('A' for Active; 'I' for Inactive)
REMARK    1  A    between atoms: C_7  and  O_12
REMARK    2  A    between atoms: C_8  and  O_14
REMARK                            x       y       z     vdW  Elec       q    Type
REMARK                         _______ _______ _______ _____ _____    ______ ____
ROOT
ATOM      1  O   UNL     1     -60.692 -61.970  43.130  0.00  0.00    +0.000 OA
ATOM      2  O   UNL     1     -59.772 -59.859  43.582  0.00  0.00    +0.000 OA
ATOM      3  C   UNL     1     -59.511 -63.346  41.419  0.00  0.00    +0.000 A 
ATOM      4  C   UNL     1     -60.571 -63.185  42.353  0.00  0.00    +0.000 A 
ATOM      5  C   UNL     1     -59.389 -64.506  40.671  0.00  0.00    +0.000 A 
ATOM      6  C   UNL     1     -61.519 -64.178  42.550  0.00  0.00    +0.000 A 
ATOM      7  C   UNL     1     -60.342 -65.501  40.872  0.00  0.00    +0.000 A 
ATOM      8  C   UNL     1     -61.387 -65.338  41.795  0.00  0.00    +0.000 A 
ATOM      9  C   UNL     1     -58.633 -62.237  41.343  0.00  0.00    +0.000 A 
ATOM     10  C   UNL     1     -58.751 -61.243  41.994  0.00  0.00    +0.000 A 
ATOM     11  C   UNL     1     -59.751 -60.916  42.973  0.00  0.00    +0.000 A 
ENDROOT
BRANCH   7  12
ATOM     12  O   UNL     1     -60.291 -66.678  40.171  0.00  0.00    +0.000 OA
ATOM     13  H   UNL     1     -60.851 -66.579  39.379  0.00  0.00    +0.000 HD
ENDBRANCH   7  12
BRANCH   8  14
ATOM     14  O   UNL     1     -62.301 -66.342  41.959  0.00  0.00    +0.000 OA
ATOM     15  H   UNL     1     -62.620 -66.551  41.058  0.00  0.00    +0.000 HD
ENDBRANCH   8  14
TORSDOF 2
ENDMDL
MODEL 3
REMARK VINA RESULT:      -5.8      2.670      3.739
REMARK  Name = 5281416_Esculetin.pdbqt.pdb
REMARK  2 active torsions:
REMARK  status: ('A' for Active; 'I' for Inactive)
REMARK    1  A    between atoms: C_7  and  O_12
REMARK    2  A    between atoms: C_8  and  O_14
REMARK                            x       y       z     vdW  Elec       q    Type
REMARK                         _______ _______ _______ _____ _____    ______ ____
ROOT
ATOM      1  O   UNL     1     -60.834 -64.214  42.163  0.00  0.00    +0.000 OA
ATOM      2  O   UNL     1     -62.753 -64.713  43.418  0.00  0.00    +0.000 OA
ATOM      3  C   UNL     1     -59.663 -62.088  42.734  0.00  0.00    +0.000 A 
ATOM      4  C   UNL     1     -59.760 -63.269  41.948  0.00  0.00    +0.000 A 
ATOM      5  C   UNL     1     -58.636 -61.179  42.534  0.00  0.00    +0.000 A 
ATOM      6  C   UNL     1     -58.834 -63.555  40.955  0.00  0.00    +0.000 A 
ATOM      7  C   UNL     1     -57.709 -61.469  41.536  0.00  0.00    +0.000 A 
ATOM      8  C   UNL     1     -57.808 -62.636  40.762  0.00  0.00    +0.000 A 
ATOM      9  C   UNL     1     -60.689 -61.952  43.701  0.00  0.00    +0.000 A 
ATOM     10  C   UNL     1     -61.568 -62.744  43.862  0.00  0.00    +0.000 A 
ATOM     11  C   UNL     1     -61.814 -63.976  43.165  0.00  0.00    +0.000 A 
ENDROOT
BRANCH   7  12
ATOM     12  O   UNL     1     -56.665 -60.621  41.277  0.00  0.00    +0.000 OA
ATOM     13  H   UNL     1     -56.723 -59.876  41.903  0.00  0.00    +0.000 HD
ENDBRANCH   7  12
BRANCH   8  14
ATOM     14  O   UNL     1     -56.874 -62.881  39.793  0.00  0.00    +0.000 OA
ATOM     15  H   UNL     1     -56.582 -61.999  39.487  0.00  0.00    +0.000 HD
ENDBRANCH   8  14
TORSDOF 2
ENDMDL
MODEL 4
REMARK VINA RESULT:      -5.5     16.939     18.025
REMARK  Name = 5281416_Esculetin.pdbqt.pdb
REMARK  2 active torsions:
REMARK  status: ('A' for Active; 'I' for Inactive)
REMARK    1  A    between atoms: C_7  and  O_12
REMARK    2  A    between atoms: C_8  and  O_14
REMARK                            x       y       z     vdW  Elec       q    Type
REMARK                         _______ _______ _______ _____ _____    ______ ____
ROOT
ATOM      1  O   UNL     1     -46.136 -50.971  31.324  0.00  0.00    +0.000 OA
ATOM      2  O   UNL     1     -47.250 -49.081  30.490  0.00  0.00    +0.000 OA
ATOM      3  C   UNL     1     -45.831 -51.072  33.796  0.00  0.00    +0.000 A 
ATOM      4  C   UNL     1     -45.650 -51.645  32.508  0.00  0.00    +0.000 A 
ATOM      5  C   UNL     1     -45.368 -51.712  34.934  0.00  0.00    +0.000 A 
ATOM      6  C   UNL     1     -45.004 -52.862  32.341  0.00  0.00    +0.000 A 
ATOM      7  C   UNL     1     -44.720 -52.933  34.764  0.00  0.00    +0.000 A 
ATOM      8  C   UNL     1     -44.543 -53.496  33.490  0.00  0.00    +0.000 A 
ATOM      9  C   UNL     1     -46.510 -49.828  33.785  0.00  0.00    +0.000 A 
ATOM     10  C   UNL     1     -46.904 -49.288  32.796  0.00  0.00    +0.000 A 
ATOM     11  C   UNL     1     -46.806 -49.721  31.429  0.00  0.00    +0.000 A 
ENDROOT
BRANCH   7  12
ATOM     12  O   UNL     1     -44.233 -53.628  35.840  0.00  0.00    +0.000 OA
ATOM     13  H   UNL     1     -44.485 -53.143  36.648  0.00  0.00    +0.000 HD
ENDBRANCH   7  12
BRANCH   8  14
ATOM     14  O   UNL     1     -43.901 -54.697  33.370  0.00  0.00    +0.000 OA
ATOM     15  H   UNL     1     -43.902 -54.895  32.411  0.00  0.00    +0.000 HD
ENDBRANCH   8  14
TORSDOF 2
ENDMDL
MODEL 5
REMARK VINA RESULT:      -5.4      4.131      6.277
REMARK  Name = 5281416_Esculetin.pdbqt.pdb
REMARK  2 active torsions:
REMARK  status: ('A' for Active; 'I' for Inactive)
REMARK    1  A    between atoms: C_7  and  O_12
REMARK    2  A    between atoms: C_8  and  O_14
REMARK                            x       y       z     vdW  Elec       q    Type
REMARK                         _______ _______ _______ _____ _____    ______ ____
ROOT
ATOM      1  O   UNL     1     -61.570 -62.878  43.489  0.00  0.00    +0.000 OA
ATOM      2  O   UNL     1     -59.924 -61.748  44.721  0.00  0.00    +0.000 OA
ATOM      3  C   UNL     1     -61.326 -62.825  41.008  0.00  0.00    +0.000 A 
ATOM      4  C   UNL     1     -62.037 -63.240  42.168  0.00  0.00    +0.000 A 
ATOM      5  C   UNL     1     -61.766 -63.168  39.740  0.00  0.00    +0.000 A 
ATOM      6  C   UNL     1     -63.193 -64.001  42.075  0.00  0.00    +0.000 A 
ATOM      7  C   UNL     1     -62.928 -63.932  39.650  0.00  0.00    +0.000 A 
ATOM      8  C   UNL     1     -63.626 -64.339  40.797  0.00  0.00    +0.000 A 
ATOM      9  C   UNL     1     -60.168 -62.056  41.284  0.00  0.00    +0.000 A 
ATOM     10  C   UNL     1     -59.801 -61.768  42.383  0.00  0.00    +0.000 A 
ATOM     11  C   UNL     1     -60.391 -62.100  43.650  0.00  0.00    +0.000 A 
ENDROOT
BRANCH   7  12
ATOM     12  O   UNL     1     -63.428 -64.311  38.432  0.00  0.00    +0.000 OA
ATOM     13  H   UNL     1     -63.037 -65.176  38.205  0.00  0.00    +0.000 HD
ENDBRANCH   7  12
BRANCH   8  14
ATOM     14  O   UNL     1     -64.762 -65.088  40.662  0.00  0.00    +0.000 OA
ATOM     15  H   UNL     1     -65.224 -65.015  41.521  0.00  0.00    +0.000 HD
ENDBRANCH   8  14
TORSDOF 2
ENDMDL
MODEL 6
REMARK VINA RESULT:      -5.2      5.800      7.472
REMARK  Name = 5281416_Esculetin.pdbqt.pdb
REMARK  2 active torsions:
REMARK  status: ('A' for Active; 'I' for Inactive)
REMARK    1  A    between atoms: C_7  and  O_12
REMARK    2  A    between atoms: C_8  and  O_14
REMARK                            x       y       z     vdW  Elec       q    Type
REMARK                         _______ _______ _______ _____ _____    ______ ____
ROOT
ATOM      1  O   UNL     1     -62.221 -65.227  42.343  0.00  0.00    +0.000 OA
ATOM      2  O   UNL     1     -60.906 -64.153  43.962  0.00  0.00    +0.000 OA
ATOM      3  C   UNL     1     -62.270 -64.174  40.083  0.00  0.00    +0.000 A 
ATOM      4  C   UNL     1     -62.683 -65.205  40.972  0.00  0.00    +0.000 A 
ATOM      5  C   UNL     1     -62.708 -64.147  38.769  0.00  0.00    +0.000 A 
ATOM      6  C   UNL     1     -63.536 -66.218  40.558  0.00  0.00    +0.000 A 
ATOM      7  C   UNL     1     -63.564 -65.165  38.357  0.00  0.00    +0.000 A 
ATOM      8  C   UNL     1     -63.969 -66.181  39.237  0.00  0.00    +0.000 A 
ATOM      9  C   UNL     1     -61.400 -63.221  40.668  0.00  0.00    +0.000 A 
ATOM     10  C   UNL     1     -61.031 -63.258  41.802  0.00  0.00    +0.000 A 
ATOM     11  C   UNL     1     -61.346 -64.216  42.826  0.00  0.00    +0.000 A 
ENDROOT
BRANCH   7  12
ATOM     12  O   UNL     1     -64.041 -65.208  37.073  0.00  0.00    +0.000 OA
ATOM     13  H   UNL     1     -63.446 -64.674  36.516  0.00  0.00    +0.000 HD
ENDBRANCH   7  12
BRANCH   8  14
ATOM     14  O   UNL     1     -64.811 -67.162  38.790  0.00  0.00    +0.000 OA
ATOM     15  H   UNL     1     -64.445 -67.442  37.927  0.00  0.00    +0.000 HD
ENDBRANCH   8  14
TORSDOF 2
ENDMDL
MODEL 7
REMARK VINA RESULT:      -4.9     17.852     17.906
REMARK  Name = 5281416_Esculetin.pdbqt.pdb
REMARK  2 active torsions:
REMARK  status: ('A' for Active; 'I' for Inactive)
REMARK    1  A    between atoms: C_7  and  O_12
REMARK    2  A    between atoms: C_8  and  O_14
REMARK                            x       y       z     vdW  Elec       q    Type
REMARK                         _______ _______ _______ _____ _____    ______ ____
ROOT
ATOM      1  O   UNL     1     -45.719 -50.189  34.331  0.00  0.00    +0.000 OA
ATOM      2  O   UNL     1     -47.466 -48.978  33.337  0.00  0.00    +0.000 OA
ATOM      3  C   UNL     1     -45.015 -52.275  33.160  0.00  0.00    +0.000 A 
ATOM      4  C   UNL     1     -44.873 -51.359  34.239  0.00  0.00    +0.000 A 
ATOM      5  C   UNL     1     -44.208 -53.397  33.065  0.00  0.00    +0.000 A 
ATOM      6  C   UNL     1     -43.925 -51.554  35.233  0.00  0.00    +0.000 A 
ATOM      7  C   UNL     1     -43.258 -53.590  34.065  0.00  0.00    +0.000 A 
ATOM      8  C   UNL     1     -43.121 -52.684  35.128  0.00  0.00    +0.000 A 
ATOM      9  C   UNL     1     -46.029 -51.925  32.235  0.00  0.00    +0.000 A 
ATOM     10  C   UNL     1     -46.717 -50.954  32.329  0.00  0.00    +0.000 A 
ATOM     11  C   UNL     1     -46.709 -49.935  33.342  0.00  0.00    +0.000 A 
ENDROOT
BRANCH   7  12
ATOM     12  O   UNL     1     -42.422 -54.675  34.043  0.00  0.00    +0.000 OA
ATOM     13  H   UNL     1     -42.016 -54.722  33.158  0.00  0.00    +0.000 HD
ENDBRANCH   7  12
BRANCH   8  14
ATOM     14  O   UNL     1     -42.174 -52.912  36.089  0.00  0.00    +0.000 OA
ATOM     15  H   UNL     1     -41.328 -52.625  35.691  0.00  0.00    +0.000 HD
ENDBRANCH   8  14
TORSDOF 2
ENDMDL
MODEL 8
REMARK VINA RESULT:      -4.9      6.645      8.080
REMARK  Name = 5281416_Esculetin.pdbqt.pdb
REMARK  2 active torsions:
REMARK  status: ('A' for Active; 'I' for Inactive)
REMARK    1  A    between atoms: C_7  and  O_12
REMARK    2  A    between atoms: C_8  and  O_14
REMARK                            x       y       z     vdW  Elec       q    Type
REMARK                         _______ _______ _______ _____ _____    ______ ____
ROOT
ATOM      1  O   UNL     1     -65.183 -66.018  41.715  0.00  0.00    +0.000 OA
ATOM      2  O   UNL     1     -66.974 -67.529  41.591  0.00  0.00    +0.000 OA
ATOM      3  C   UNL     1     -63.875 -65.680  39.619  0.00  0.00    +0.000 A 
ATOM      4  C   UNL     1     -64.102 -65.385  40.992  0.00  0.00    +0.000 A 
ATOM      5  C   UNL     1     -62.841 -65.078  38.920  0.00  0.00    +0.000 A 
ATOM      6  C   UNL     1     -63.300 -64.486  41.680  0.00  0.00    +0.000 A 
ATOM      7  C   UNL     1     -62.039 -64.177  39.615  0.00  0.00    +0.000 A 
ATOM      8  C   UNL     1     -62.265 -63.887  40.969  0.00  0.00    +0.000 A 
ATOM      9  C   UNL     1     -64.785 -66.618  39.072  0.00  0.00    +0.000 A 
ATOM     10  C   UNL     1     -65.672 -67.129  39.687  0.00  0.00    +0.000 A 
ATOM     11  C   UNL     1     -66.040 -66.948  41.064  0.00  0.00    +0.000 A 
ENDROOT
BRANCH   7  12
ATOM     12  O   UNL     1     -60.996 -63.539  38.995  0.00  0.00    +0.000 OA
ATOM     13  H   UNL     1     -60.309 -64.205  38.805  0.00  0.00    +0.000 HD
ENDBRANCH   7  12
BRANCH   8  14
ATOM     14  O   UNL     1     -61.452 -62.995  41.612  0.00  0.00    +0.000 OA
ATOM     15  H   UNL     1     -62.055 -62.330  42.001  0.00  0.00    +0.000 HD
ENDBRANCH   8  14
TORSDOF 2
ENDMDL
MODEL 9
REMARK VINA RESULT:      -4.8     26.067     27.306
REMARK  Name = 5281416_Esculetin.pdbqt.pdb
REMARK  2 active torsions:
REMARK  status: ('A' for Active; 'I' for Inactive)
REMARK    1  A    between atoms: C_7  and  O_12
REMARK    2  A    between atoms: C_8  and  O_14
REMARK                            x       y       z     vdW  Elec       q    Type
REMARK                         _______ _______ _______ _____ _____    ______ ____
ROOT
ATOM      1  O   UNL     1     -40.529 -41.675  49.225  0.00  0.00    +0.000 OA
ATOM      2  O   UNL     1     -42.524 -41.063  48.153  0.00  0.00    +0.000 OA
ATOM      3  C   UNL     1     -38.979 -43.134  47.926  0.00  0.00    +0.000 A 
ATOM      4  C   UNL     1     -39.290 -42.415  49.113  0.00  0.00    +0.000 A 
ATOM      5  C   UNL     1     -37.795 -43.844  47.811  0.00  0.00    +0.000 A 
ATOM      6  C   UNL     1     -38.423 -42.396  50.196  0.00  0.00    +0.000 A 
ATOM      7  C   UNL     1     -36.927 -43.823  48.900  0.00  0.00    +0.000 A 
ATOM      8  C   UNL     1     -37.237 -43.112  50.069  0.00  0.00    +0.000 A 
ATOM      9  C   UNL     1     -39.973 -43.046  46.920  0.00  0.00    +0.000 A 
ATOM     10  C   UNL     1     -40.989 -42.430  47.033  0.00  0.00    +0.000 A 
ATOM     11  C   UNL     1     -41.458 -41.656  48.149  0.00  0.00    +0.000 A 
ENDROOT
BRANCH   7  12
ATOM     12  O   UNL     1     -35.736 -44.500  48.864  0.00  0.00    +0.000 OA
ATOM     13  H   UNL     1     -35.638 -44.977  49.710  0.00  0.00    +0.000 HD
ENDBRANCH   7  12
BRANCH   8  14
ATOM     14  O   UNL     1     -36.356 -43.120  51.115  0.00  0.00    +0.000 OA
ATOM     15  H   UNL     1     -35.703 -42.421  50.907  0.00  0.00    +0.000 HD
ENDBRANCH   8  14
TORSDOF 2
ENDMDL
