MODEL 1
REMARK VINA RESULT:      -7.4      0.000      0.000
REMARK  Name = 5281224_Astaxanthin.pdbqt.pdb
REMARK  16 active torsions:
REMARK  status: ('A' for Active; 'I' for Inactive)
REMARK    1  A    between atoms: C_1  and  C_5
REMARK    2  A    between atoms: C_2  and  C_27
REMARK    3  A    between atoms: C_3  and  C_5
REMARK    4  A    between atoms: C_3  and  C_7
REMARK    5  A    between atoms: C_6  and  C_10
REMARK    6  A    between atoms: C_8  and  C_10
REMARK    7  A    between atoms: C_8  and  C_12
REMARK    8  A    between atoms: C_11  and  C_16
REMARK    9  A    between atoms: C_17  and  O_23
REMARK   10  A    between atoms: C_25  and  C_27
REMARK   11  A    between atoms: C_25  and  C_29
REMARK   12  A    between atoms: C_28  and  C_32
REMARK   13  A    between atoms: C_30  and  C_32
REMARK   14  A    between atoms: C_30  and  C_34
REMARK   15  A    between atoms: C_33  and  C_38
REMARK   16  A    between atoms: C_39  and  O_45
REMARK                            x       y       z     vdW  Elec       q    Type
REMARK                         _______ _______ _______ _____ _____    ______ ____
ROOT
ATOM      1  C   UNL     1     -74.170 -69.167  36.611  0.00  0.00    +0.000 C 
ATOM      2  C   UNL     1     -73.530 -69.290  37.618  0.00  0.00    +0.000 C 
ENDROOT
BRANCH   2   3
ATOM      3  C   UNL     1     -72.717 -69.452  38.909  0.00  0.00    +0.000 C 
BRANCH   3   4
ATOM      4  C   UNL     1     -72.036 -69.590  40.003  0.00  0.00    +0.000 C 
ATOM      5  C   UNL     1     -72.726 -69.497  41.330  0.00  0.00    +0.000 C 
BRANCH   4   7
ATOM      6  C   UNL     1     -69.438 -69.878  39.901  0.00  0.00    +0.000 C 
ATOM      7  C   UNL     1     -70.630 -69.747  39.946  0.00  0.00    +0.000 C 
BRANCH   6   8
ATOM      8  C   UNL     1     -67.915 -70.046  39.847  0.00  0.00    +0.000 C 
BRANCH   8   9
ATOM      9  C   UNL     1     -66.626 -70.186  39.794  0.00  0.00    +0.000 C 
ATOM     10  C   UNL     1     -66.028 -71.552  39.646  0.00  0.00    +0.000 C 
BRANCH   9  12
ATOM     11  C   UNL     1     -65.110 -68.055  39.650  0.00  0.00    +0.000 C 
ATOM     12  C   UNL     1     -65.797 -69.039  39.722  0.00  0.00    +0.000 C 
BRANCH  11  16
ATOM     13  O   UNL     1     -64.435 -63.266  40.445  0.00  0.00    +0.000 OA
ATOM     14  C   UNL     1     -62.896 -66.997  38.893  0.00  0.00    +0.000 C 
ATOM     15  C   UNL     1     -62.321 -65.664  38.937  0.00  0.00    +0.000 C 
ATOM     16  C   UNL     1     -64.293 -66.860  39.553  0.00  0.00    +0.000 C 
ATOM     17  C   UNL     1     -62.680 -64.397  39.387  0.00  0.00    +0.000 C 
ATOM     18  C   UNL     1     -62.038 -67.977  39.726  0.00  0.00    +0.000 C 
ATOM     19  C   UNL     1     -63.063 -67.459  37.429  0.00  0.00    +0.000 C 
ATOM     20  C   UNL     1     -64.767 -65.676  40.041  0.00  0.00    +0.000 C 
ATOM     21  C   UNL     1     -64.021 -64.332  40.010  0.00  0.00    +0.000 C 
ATOM     22  C   UNL     1     -66.158 -65.651  40.690  0.00  0.00    +0.000 C 
BRANCH  17  23
ATOM     23  O   UNL     1     -61.864 -63.304  39.271  0.00  0.00    +0.000 OA
ATOM     24  H   UNL     1     -62.378 -62.514  39.008  0.00  0.00    +0.000 HD
ENDBRANCH  17  23
ENDBRANCH  11  16
ENDBRANCH   9  12
ENDBRANCH   8   9
ENDBRANCH   6   8
ENDBRANCH   4   7
ENDBRANCH   3   4
ENDBRANCH   2   3
BRANCH   1  25
ATOM     25  C   UNL     1     -74.997 -69.015  35.329  0.00  0.00    +0.000 C 
BRANCH  25  26
ATOM     26  C   UNL     1     -75.698 -68.882  34.247  0.00  0.00    +0.000 C 
ATOM     27  C   UNL     1     -76.047 -70.090  33.430  0.00  0.00    +0.000 C 
BRANCH  26  29
ATOM     28  C   UNL     1     -76.362 -66.496  33.406  0.00  0.00    +0.000 C 
ATOM     29  C   UNL     1     -76.057 -67.592  33.791  0.00  0.00    +0.000 C 
BRANCH  28  30
ATOM     30  C   UNL     1     -76.751 -65.094  32.918  0.00  0.00    +0.000 C 
BRANCH  30  31
ATOM     31  C   UNL     1     -77.076 -63.913  32.498  0.00  0.00    +0.000 C 
ATOM     32  C   UNL     1     -77.460 -63.708  31.063  0.00  0.00    +0.000 C 
BRANCH  31  34
ATOM     33  C   UNL     1     -77.327 -61.941  34.205  0.00  0.00    +0.000 C 
ATOM     34  C   UNL     1     -77.221 -62.852  33.426  0.00  0.00    +0.000 C 
BRANCH  33  38
ATOM     35  O   UNL     1     -76.570 -57.241  35.370  0.00  0.00    +0.000 OA
ATOM     36  C   UNL     1     -78.116 -61.118  36.504  0.00  0.00    +0.000 C 
ATOM     37  C   UNL     1     -78.083 -59.850  37.214  0.00  0.00    +0.000 C 
ATOM     38  C   UNL     1     -77.437 -60.837  35.139  0.00  0.00    +0.000 C 
ATOM     39  C   UNL     1     -77.632 -58.552  36.992  0.00  0.00    +0.000 C 
ATOM     40  C   UNL     1     -79.579 -61.555  36.261  0.00  0.00    +0.000 C 
ATOM     41  C   UNL     1     -77.302 -62.181  37.275  0.00  0.00    +0.000 C 
ATOM     42  C   UNL     1     -76.954 -59.608  34.791  0.00  0.00    +0.000 C 
ATOM     43  C   UNL     1     -76.999 -58.348  35.671  0.00  0.00    +0.000 C 
ATOM     44  C   UNL     1     -76.313 -59.433  33.408  0.00  0.00    +0.000 C 
BRANCH  39  45
ATOM     45  O   UNL     1     -77.766 -57.548  37.913  0.00  0.00    +0.000 OA
ATOM     46  H   UNL     1     -77.075 -57.618  38.604  0.00  0.00    +0.000 HD
ENDBRANCH  39  45
ENDBRANCH  33  38
ENDBRANCH  31  34
ENDBRANCH  30  31
ENDBRANCH  28  30
ENDBRANCH  26  29
ENDBRANCH  25  26
ENDBRANCH   1  25
TORSDOF 16
ENDMDL
MODEL 2
REMARK VINA RESULT:      -7.0     24.079     32.091
REMARK  Name = 5281224_Astaxanthin.pdbqt.pdb
REMARK  16 active torsions:
REMARK  status: ('A' for Active; 'I' for Inactive)
REMARK    1  A    between atoms: C_1  and  C_5
REMARK    2  A    between atoms: C_2  and  C_27
REMARK    3  A    between atoms: C_3  and  C_5
REMARK    4  A    between atoms: C_3  and  C_7
REMARK    5  A    between atoms: C_6  and  C_10
REMARK    6  A    between atoms: C_8  and  C_10
REMARK    7  A    between atoms: C_8  and  C_12
REMARK    8  A    between atoms: C_11  and  C_16
REMARK    9  A    between atoms: C_17  and  O_23
REMARK   10  A    between atoms: C_25  and  C_27
REMARK   11  A    between atoms: C_25  and  C_29
REMARK   12  A    between atoms: C_28  and  C_32
REMARK   13  A    between atoms: C_30  and  C_32
REMARK   14  A    between atoms: C_30  and  C_34
REMARK   15  A    between atoms: C_33  and  C_38
REMARK   16  A    between atoms: C_39  and  O_45
REMARK                            x       y       z     vdW  Elec       q    Type
REMARK                         _______ _______ _______ _____ _____    ______ ____
ROOT
ATOM      1  C   UNL     1     -41.323 -69.506  41.895  0.00  0.00    +0.000 C 
ATOM      2  C   UNL     1     -42.259 -68.912  41.435  0.00  0.00    +0.000 C 
ENDROOT
BRANCH   2   3
ATOM      3  C   UNL     1     -43.451 -68.151  40.841  0.00  0.00    +0.000 C 
BRANCH   3   4
ATOM      4  C   UNL     1     -44.459 -67.504  40.344  0.00  0.00    +0.000 C 
ATOM      5  C   UNL     1     -45.467 -68.225  39.501  0.00  0.00    +0.000 C 
BRANCH   4   7
ATOM      6  C   UNL     1     -44.648 -64.918  40.693  0.00  0.00    +0.000 C 
ATOM      7  C   UNL     1     -44.563 -66.105  40.531  0.00  0.00    +0.000 C 
BRANCH   6   8
ATOM      8  C   UNL     1     -44.754 -63.403  40.900  0.00  0.00    +0.000 C 
BRANCH   8   9
ATOM      9  C   UNL     1     -44.841 -62.120  41.068  0.00  0.00    +0.000 C 
ATOM     10  C   UNL     1     -43.855 -61.210  40.400  0.00  0.00    +0.000 C 
BRANCH   9  12
ATOM     11  C   UNL     1     -46.898 -61.129  42.352  0.00  0.00    +0.000 C 
ATOM     12  C   UNL     1     -45.954 -61.575  41.755  0.00  0.00    +0.000 C 
BRANCH  11  16
ATOM     13  O   UNL     1     -51.216 -58.812  42.444  0.00  0.00    +0.000 OA
ATOM     14  C   UNL     1     -48.052 -60.798  44.621  0.00  0.00    +0.000 C 
ATOM     15  C   UNL     1     -49.291 -60.186  45.070  0.00  0.00    +0.000 C 
ATOM     16  C   UNL     1     -48.037 -60.607  43.082  0.00  0.00    +0.000 C 
ATOM     17  C   UNL     1     -50.379 -59.524  44.511  0.00  0.00    +0.000 C 
ATOM     18  C   UNL     1     -48.058 -62.312  44.942  0.00  0.00    +0.000 C 
ATOM     19  C   UNL     1     -46.841 -60.069  45.243  0.00  0.00    +0.000 C 
ATOM     20  C   UNL     1     -49.043 -59.979  42.406  0.00  0.00    +0.000 C 
ATOM     21  C   UNL     1     -50.308 -59.376  43.040  0.00  0.00    +0.000 C 
ATOM     22  C   UNL     1     -48.939 -59.854  40.880  0.00  0.00    +0.000 C 
BRANCH  17  23
ATOM     23  O   UNL     1     -51.430 -59.054  45.252  0.00  0.00    +0.000 OA
ATOM     24  H   UNL     1     -52.130 -58.692  44.671  0.00  0.00    +0.000 HD
ENDBRANCH  17  23
ENDBRANCH  11  16
ENDBRANCH   9  12
ENDBRANCH   8   9
ENDBRANCH   6   8
ENDBRANCH   4   7
ENDBRANCH   3   4
ENDBRANCH   2   3
BRANCH   1  25
ATOM     25  C   UNL     1     -40.122 -70.261  42.474  0.00  0.00    +0.000 C 
BRANCH  25  26
ATOM     26  C   UNL     1     -39.104 -70.896  42.966  0.00  0.00    +0.000 C 
ATOM     27  C   UNL     1     -37.879 -71.106  42.128  0.00  0.00    +0.000 C 
BRANCH  26  29
ATOM     28  C   UNL     1     -39.247 -71.948  45.356  0.00  0.00    +0.000 C 
ATOM     29  C   UNL     1     -39.183 -71.464  44.259  0.00  0.00    +0.000 C 
BRANCH  28  30
ATOM     30  C   UNL     1     -39.327 -72.568  46.757  0.00  0.00    +0.000 C 
BRANCH  30  31
ATOM     31  C   UNL     1     -39.402 -73.089  47.941  0.00  0.00    +0.000 C 
ATOM     32  C   UNL     1     -38.549 -72.553  49.050  0.00  0.00    +0.000 C 
BRANCH  31  34
ATOM     33  C   UNL     1     -41.252 -74.877  48.439  0.00  0.00    +0.000 C 
ATOM     34  C   UNL     1     -40.401 -74.055  48.222  0.00  0.00    +0.000 C 
BRANCH  33  38
ATOM     35  O   UNL     1     -42.766 -79.538  48.485  0.00  0.00    +0.000 OA
ATOM     36  C   UNL     1     -43.656 -75.366  49.192  0.00  0.00    +0.000 C 
ATOM     37  C   UNL     1     -44.469 -76.562  49.342  0.00  0.00    +0.000 C 
ATOM     38  C   UNL     1     -42.281 -75.869  48.682  0.00  0.00    +0.000 C 
ATOM     39  C   UNL     1     -44.332 -77.934  49.159  0.00  0.00    +0.000 C 
ATOM     40  C   UNL     1     -43.466 -74.674  50.562  0.00  0.00    +0.000 C 
ATOM     41  C   UNL     1     -44.283 -74.425  48.138  0.00  0.00    +0.000 C 
ATOM     42  C   UNL     1     -42.011 -77.190  48.464  0.00  0.00    +0.000 C 
ATOM     43  C   UNL     1     -42.997 -78.351  48.676  0.00  0.00    +0.000 C 
ATOM     44  C   UNL     1     -40.612 -77.585  47.974  0.00  0.00    +0.000 C 
BRANCH  39  45
ATOM     45  O   UNL     1     -45.341 -78.825  49.407  0.00  0.00    +0.000 OA
ATOM     46  H   UNL     1     -46.107 -78.374  49.820  0.00  0.00    +0.000 HD
ENDBRANCH  39  45
ENDBRANCH  33  38
ENDBRANCH  31  34
ENDBRANCH  30  31
ENDBRANCH  28  30
ENDBRANCH  26  29
ENDBRANCH  25  26
ENDBRANCH   1  25
TORSDOF 16
ENDMDL
MODEL 3
REMARK VINA RESULT:      -6.6     25.263     31.788
REMARK  Name = 5281224_Astaxanthin.pdbqt.pdb
REMARK  16 active torsions:
REMARK  status: ('A' for Active; 'I' for Inactive)
REMARK    1  A    between atoms: C_1  and  C_5
REMARK    2  A    between atoms: C_2  and  C_27
REMARK    3  A    between atoms: C_3  and  C_5
REMARK    4  A    between atoms: C_3  and  C_7
REMARK    5  A    between atoms: C_6  and  C_10
REMARK    6  A    between atoms: C_8  and  C_10
REMARK    7  A    between atoms: C_8  and  C_12
REMARK    8  A    between atoms: C_11  and  C_16
REMARK    9  A    between atoms: C_17  and  O_23
REMARK   10  A    between atoms: C_25  and  C_27
REMARK   11  A    between atoms: C_25  and  C_29
REMARK   12  A    between atoms: C_28  and  C_32
REMARK   13  A    between atoms: C_30  and  C_32
REMARK   14  A    between atoms: C_30  and  C_34
REMARK   15  A    between atoms: C_33  and  C_38
REMARK   16  A    between atoms: C_39  and  O_45
REMARK                            x       y       z     vdW  Elec       q    Type
REMARK                         _______ _______ _______ _____ _____    ______ ____
ROOT
ATOM      1  C   UNL     1     -37.373 -63.229  39.025  0.00  0.00    +0.000 C 
ATOM      2  C   UNL     1     -37.970 -64.262  38.901  0.00  0.00    +0.000 C 
ENDROOT
BRANCH   2   3
ATOM      3  C   UNL     1     -38.727 -65.586  38.739  0.00  0.00    +0.000 C 
BRANCH   3   4
ATOM      4  C   UNL     1     -39.372 -66.702  38.603  0.00  0.00    +0.000 C 
ATOM      5  C   UNL     1     -38.671 -68.005  38.844  0.00  0.00    +0.000 C 
BRANCH   4   7
ATOM      6  C   UNL     1     -41.850 -66.682  37.765  0.00  0.00    +0.000 C 
ATOM      7  C   UNL     1     -40.713 -66.693  38.150  0.00  0.00    +0.000 C 
BRANCH   6   8
ATOM      8  C   UNL     1     -43.301 -66.666  37.270  0.00  0.00    +0.000 C 
BRANCH   8   9
ATOM      9  C   UNL     1     -44.529 -66.643  36.852  0.00  0.00    +0.000 C 
ATOM     10  C   UNL     1     -45.310 -67.919  36.757  0.00  0.00    +0.000 C 
BRANCH   9  12
ATOM     11  C   UNL     1     -45.721 -64.350  36.424  0.00  0.00    +0.000 C 
ATOM     12  C   UNL     1     -45.174 -65.401  36.632  0.00  0.00    +0.000 C 
BRANCH  11  16
ATOM     13  O   UNL     1     -47.887 -61.237  33.319  0.00  0.00    +0.000 OA
ATOM     14  C   UNL     1     -46.578 -62.113  37.346  0.00  0.00    +0.000 C 
ATOM     15  C   UNL     1     -47.250 -60.954  36.785  0.00  0.00    +0.000 C 
ATOM     16  C   UNL     1     -46.378 -63.086  36.155  0.00  0.00    +0.000 C 
ATOM     17  C   UNL     1     -47.722 -60.532  35.546  0.00  0.00    +0.000 C 
ATOM     18  C   UNL     1     -47.477 -62.790  38.407  0.00  0.00    +0.000 C 
ATOM     19  C   UNL     1     -45.200 -61.707  37.915  0.00  0.00    +0.000 C 
ATOM     20  C   UNL     1     -46.798 -62.798  34.888  0.00  0.00    +0.000 C 
ATOM     21  C   UNL     1     -47.506 -61.505  34.451  0.00  0.00    +0.000 C 
ATOM     22  C   UNL     1     -46.566 -63.836  33.782  0.00  0.00    +0.000 C 
BRANCH  17  23
ATOM     23  O   UNL     1     -48.338 -59.325  35.352  0.00  0.00    +0.000 OA
ATOM     24  H   UNL     1     -48.059 -58.925  34.504  0.00  0.00    +0.000 HD
ENDBRANCH  17  23
ENDBRANCH  11  16
ENDBRANCH   9  12
ENDBRANCH   8   9
ENDBRANCH   6   8
ENDBRANCH   4   7
ENDBRANCH   3   4
ENDBRANCH   2   3
BRANCH   1  25
ATOM     25  C   UNL     1     -36.601 -61.913  39.180  0.00  0.00    +0.000 C 
BRANCH  25  26
ATOM     26  C   UNL     1     -35.943 -60.804  39.312  0.00  0.00    +0.000 C 
ATOM     27  C   UNL     1     -35.015 -60.620  40.475  0.00  0.00    +0.000 C 
BRANCH  26  29
ATOM     28  C   UNL     1     -36.354 -58.831  37.645  0.00  0.00    +0.000 C 
ATOM     29  C   UNL     1     -36.167 -59.738  38.410  0.00  0.00    +0.000 C 
BRANCH  28  30
ATOM     30  C   UNL     1     -36.590 -57.671  36.669  0.00  0.00    +0.000 C 
BRANCH  30  31
ATOM     31  C   UNL     1     -36.783 -56.694  35.840  0.00  0.00    +0.000 C 
ATOM     32  C   UNL     1     -35.629 -56.128  35.069  0.00  0.00    +0.000 C 
BRANCH  31  34
ATOM     33  C   UNL     1     -39.231 -55.931  35.300  0.00  0.00    +0.000 C 
ATOM     34  C   UNL     1     -38.104 -56.270  35.548  0.00  0.00    +0.000 C 
BRANCH  33  38
ATOM     35  O   UNL     1     -42.698 -52.491  34.891  0.00  0.00    +0.000 OA
ATOM     36  C   UNL     1     -41.582 -56.657  34.570  0.00  0.00    +0.000 C 
ATOM     37  C   UNL     1     -42.846 -55.979  34.337  0.00  0.00    +0.000 C 
ATOM     38  C   UNL     1     -40.595 -55.541  34.999  0.00  0.00    +0.000 C 
ATOM     39  C   UNL     1     -43.351 -54.683  34.398  0.00  0.00    +0.000 C 
ATOM     40  C   UNL     1     -41.075 -57.304  33.260  0.00  0.00    +0.000 C 
ATOM     41  C   UNL     1     -41.730 -57.682  35.716  0.00  0.00    +0.000 C 
ATOM     42  C   UNL     1     -40.958 -54.228  35.095  0.00  0.00    +0.000 C 
ATOM     43  C   UNL     1     -42.360 -53.665  34.809  0.00  0.00    +0.000 C 
ATOM     44  C   UNL     1     -39.899 -53.199  35.514  0.00  0.00    +0.000 C 
BRANCH  39  45
ATOM     45  O   UNL     1     -44.650 -54.374  34.099  0.00  0.00    +0.000 OA
ATOM     46  H   UNL     1     -45.245 -55.118  34.328  0.00  0.00    +0.000 HD
ENDBRANCH  39  45
ENDBRANCH  33  38
ENDBRANCH  31  34
ENDBRANCH  30  31
ENDBRANCH  28  30
ENDBRANCH  26  29
ENDBRANCH  25  26
ENDBRANCH   1  25
TORSDOF 16
ENDMDL
MODEL 4
REMARK VINA RESULT:      -6.5     31.483     35.948
REMARK  Name = 5281224_Astaxanthin.pdbqt.pdb
REMARK  16 active torsions:
REMARK  status: ('A' for Active; 'I' for Inactive)
REMARK    1  A    between atoms: C_1  and  C_5
REMARK    2  A    between atoms: C_2  and  C_27
REMARK    3  A    between atoms: C_3  and  C_5
REMARK    4  A    between atoms: C_3  and  C_7
REMARK    5  A    between atoms: C_6  and  C_10
REMARK    6  A    between atoms: C_8  and  C_10
REMARK    7  A    between atoms: C_8  and  C_12
REMARK    8  A    between atoms: C_11  and  C_16
REMARK    9  A    between atoms: C_17  and  O_23
REMARK   10  A    between atoms: C_25  and  C_27
REMARK   11  A    between atoms: C_25  and  C_29
REMARK   12  A    between atoms: C_28  and  C_32
REMARK   13  A    between atoms: C_30  and  C_32
REMARK   14  A    between atoms: C_30  and  C_34
REMARK   15  A    between atoms: C_33  and  C_38
REMARK   16  A    between atoms: C_39  and  O_45
REMARK                            x       y       z     vdW  Elec       q    Type
REMARK                         _______ _______ _______ _____ _____    ______ ____
ROOT
ATOM      1  C   UNL     1     -44.154 -77.865  56.152  0.00  0.00    +0.000 C 
ATOM      2  C   UNL     1     -44.634 -77.881  55.052  0.00  0.00    +0.000 C 
ENDROOT
BRANCH   2   3
ATOM      3  C   UNL     1     -45.240 -77.905  53.643  0.00  0.00    +0.000 C 
BRANCH   3   4
ATOM      4  C   UNL     1     -45.746 -77.923  52.451  0.00  0.00    +0.000 C 
ATOM      5  C   UNL     1     -46.822 -78.910  52.110  0.00  0.00    +0.000 C 
BRANCH   4   7
ATOM      6  C   UNL     1     -44.788 -76.338  50.603  0.00  0.00    +0.000 C 
ATOM      7  C   UNL     1     -45.229 -77.066  51.450  0.00  0.00    +0.000 C 
BRANCH   6   8
ATOM      8  C   UNL     1     -44.222 -75.408  49.524  0.00  0.00    +0.000 C 
BRANCH   8   9
ATOM      9  C   UNL     1     -43.750 -74.618  48.610  0.00  0.00    +0.000 C 
ATOM     10  C   UNL     1     -44.660 -74.070  47.554  0.00  0.00    +0.000 C 
BRANCH   9  12
ATOM     11  C   UNL     1     -41.275 -73.771  48.761  0.00  0.00    +0.000 C 
ATOM     12  C   UNL     1     -42.414 -74.155  48.702  0.00  0.00    +0.000 C 
BRANCH  11  16
ATOM     13  O   UNL     1     -37.035 -73.273  51.168  0.00  0.00    +0.000 OA
ATOM     14  C   UNL     1     -39.322 -72.619  47.557  0.00  0.00    +0.000 C 
ATOM     15  C   UNL     1     -37.951 -72.283  47.901  0.00  0.00    +0.000 C 
ATOM     16  C   UNL     1     -39.899 -73.318  48.816  0.00  0.00    +0.000 C 
ATOM     17  C   UNL     1     -37.095 -72.419  48.989  0.00  0.00    +0.000 C 
ATOM     18  C   UNL     1     -39.347 -73.613  46.372  0.00  0.00    +0.000 C 
ATOM     19  C   UNL     1     -40.130 -71.335  47.266  0.00  0.00    +0.000 C 
ATOM     20  C   UNL     1     -39.166 -73.519  49.950  0.00  0.00    +0.000 C 
ATOM     21  C   UNL     1     -37.702 -73.096  50.157  0.00  0.00    +0.000 C 
ATOM     22  C   UNL     1     -39.826 -74.235  51.136  0.00  0.00    +0.000 C 
BRANCH  17  23
ATOM     23  O   UNL     1     -35.801 -71.973  48.982  0.00  0.00    +0.000 OA
ATOM     24  H   UNL     1     -35.514 -71.729  49.886  0.00  0.00    +0.000 HD
ENDBRANCH  17  23
ENDBRANCH  11  16
ENDBRANCH   9  12
ENDBRANCH   8   9
ENDBRANCH   6   8
ENDBRANCH   4   7
ENDBRANCH   3   4
ENDBRANCH   2   3
BRANCH   1  25
ATOM     25  C   UNL     1     -43.533 -77.849  57.554  0.00  0.00    +0.000 C 
BRANCH  25  26
ATOM     26  C   UNL     1     -43.004 -77.833  58.737  0.00  0.00    +0.000 C 
ATOM     27  C   UNL     1     -41.551 -78.159  58.909  0.00  0.00    +0.000 C 
BRANCH  26  29
ATOM     28  C   UNL     1     -44.501 -77.386  60.835  0.00  0.00    +0.000 C 
ATOM     29  C   UNL     1     -43.814 -77.592  59.871  0.00  0.00    +0.000 C 
BRANCH  28  30
ATOM     30  C   UNL     1     -45.375 -77.120  62.067  0.00  0.00    +0.000 C 
BRANCH  30  31
ATOM     31  C   UNL     1     -46.112 -76.887  63.107  0.00  0.00    +0.000 C 
ATOM     32  C   UNL     1     -45.530 -76.175  64.291  0.00  0.00    +0.000 C 
BRANCH  31  34
ATOM     33  C   UNL     1     -48.678 -77.404  63.002  0.00  0.00    +0.000 C 
ATOM     34  C   UNL     1     -47.501 -77.164  63.061  0.00  0.00    +0.000 C 
BRANCH  33  38
ATOM     35  O   UNL     1     -52.576 -78.890  60.429  0.00  0.00    +0.000 OA
ATOM     36  C   UNL     1     -50.954 -77.489  64.185  0.00  0.00    +0.000 C 
ATOM     37  C   UNL     1     -52.306 -77.855  63.798  0.00  0.00    +0.000 C 
ATOM     38  C   UNL     1     -50.096 -77.696  62.911  0.00  0.00    +0.000 C 
ATOM     39  C   UNL     1     -52.970 -78.308  62.662  0.00  0.00    +0.000 C 
ATOM     40  C   UNL     1     -50.444 -78.434  65.298  0.00  0.00    +0.000 C 
ATOM     41  C   UNL     1     -50.903 -76.003  64.604  0.00  0.00    +0.000 C 
ATOM     42  C   UNL     1     -50.619 -78.141  61.730  0.00  0.00    +0.000 C 
ATOM     43  C   UNL     1     -52.096 -78.490  61.482  0.00  0.00    +0.000 C 
ATOM     44  C   UNL     1     -49.679 -78.328  60.532  0.00  0.00    +0.000 C 
BRANCH  39  45
ATOM     45  O   UNL     1     -54.313 -78.569  62.636  0.00  0.00    +0.000 OA
ATOM     46  H   UNL     1     -54.592 -79.031  63.454  0.00  0.00    +0.000 HD
ENDBRANCH  39  45
ENDBRANCH  33  38
ENDBRANCH  31  34
ENDBRANCH  30  31
ENDBRANCH  28  30
ENDBRANCH  26  29
ENDBRANCH  25  26
ENDBRANCH   1  25
TORSDOF 16
ENDMDL
MODEL 5
REMARK VINA RESULT:      -6.5     39.243     44.943
REMARK  Name = 5281224_Astaxanthin.pdbqt.pdb
REMARK  16 active torsions:
REMARK  status: ('A' for Active; 'I' for Inactive)
REMARK    1  A    between atoms: C_1  and  C_5
REMARK    2  A    between atoms: C_2  and  C_27
REMARK    3  A    between atoms: C_3  and  C_5
REMARK    4  A    between atoms: C_3  and  C_7
REMARK    5  A    between atoms: C_6  and  C_10
REMARK    6  A    between atoms: C_8  and  C_10
REMARK    7  A    between atoms: C_8  and  C_12
REMARK    8  A    between atoms: C_11  and  C_16
REMARK    9  A    between atoms: C_17  and  O_23
REMARK   10  A    between atoms: C_25  and  C_27
REMARK   11  A    between atoms: C_25  and  C_29
REMARK   12  A    between atoms: C_28  and  C_32
REMARK   13  A    between atoms: C_30  and  C_32
REMARK   14  A    between atoms: C_30  and  C_34
REMARK   15  A    between atoms: C_33  and  C_38
REMARK   16  A    between atoms: C_39  and  O_45
REMARK                            x       y       z     vdW  Elec       q    Type
REMARK                         _______ _______ _______ _____ _____    ______ ____
ROOT
ATOM      1  C   UNL     1     -36.276 -41.385  48.803  0.00  0.00    +0.000 C 
ATOM      2  C   UNL     1     -37.441 -41.508  48.543  0.00  0.00    +0.000 C 
ENDROOT
BRANCH   2   3
ATOM      3  C   UNL     1     -38.930 -41.675  48.213  0.00  0.00    +0.000 C 
BRANCH   3   4
ATOM      4  C   UNL     1     -40.189 -41.816  47.940  0.00  0.00    +0.000 C 
ATOM      5  C   UNL     1     -40.612 -42.280  46.579  0.00  0.00    +0.000 C 
BRANCH   4   7
ATOM      6  C   UNL     1     -41.990 -41.150  49.717  0.00  0.00    +0.000 C 
ATOM      7  C   UNL     1     -41.165 -41.456  48.900  0.00  0.00    +0.000 C 
BRANCH   6   8
ATOM      8  C   UNL     1     -43.041 -40.757  50.761  0.00  0.00    +0.000 C 
BRANCH   8   9
ATOM      9  C   UNL     1     -43.937 -40.428  51.640  0.00  0.00    +0.000 C 
ATOM     10  C   UNL     1     -43.790 -40.879  53.062  0.00  0.00    +0.000 C 
BRANCH   9  12
ATOM     11  C   UNL     1     -45.827 -38.732  50.998  0.00  0.00    +0.000 C 
ATOM     12  C   UNL     1     -44.966 -39.520  51.289  0.00  0.00    +0.000 C 
BRANCH  11  16
ATOM     13  O   UNL     1     -49.977 -36.352  52.064  0.00  0.00    +0.000 OA
ATOM     14  C   UNL     1     -46.721 -37.027  49.300  0.00  0.00    +0.000 C 
ATOM     15  C   UNL     1     -47.873 -36.144  49.231  0.00  0.00    +0.000 C 
ATOM     16  C   UNL     1     -46.856 -37.769  50.654  0.00  0.00    +0.000 C 
ATOM     17  C   UNL     1     -48.977 -35.823  50.014  0.00  0.00    +0.000 C 
ATOM     18  C   UNL     1     -45.414 -36.200  49.304  0.00  0.00    +0.000 C 
ATOM     19  C   UNL     1     -46.766 -38.052  48.145  0.00  0.00    +0.000 C 
ATOM     20  C   UNL     1     -47.889 -37.546  51.519  0.00  0.00    +0.000 C 
ATOM     21  C   UNL     1     -49.048 -36.561  51.295  0.00  0.00    +0.000 C 
ATOM     22  C   UNL     1     -47.921 -38.323  52.843  0.00  0.00    +0.000 C 
BRANCH  17  23
ATOM     23  O   UNL     1     -49.917 -34.901  49.639  0.00  0.00    +0.000 OA
ATOM     24  H   UNL     1     -50.701 -34.948  50.222  0.00  0.00    +0.000 HD
ENDBRANCH  17  23
ENDBRANCH  11  16
ENDBRANCH   9  12
ENDBRANCH   8   9
ENDBRANCH   6   8
ENDBRANCH   4   7
ENDBRANCH   3   4
ENDBRANCH   2   3
BRANCH   1  25
ATOM     25  C   UNL     1     -34.788 -41.237  49.138  0.00  0.00    +0.000 C 
BRANCH  25  26
ATOM     26  C   UNL     1     -33.529 -41.107  49.420  0.00  0.00    +0.000 C 
ATOM     27  C   UNL     1     -32.713 -40.058  48.725  0.00  0.00    +0.000 C 
BRANCH  26  29
ATOM     28  C   UNL     1     -32.380 -42.773  51.076  0.00  0.00    +0.000 C 
ATOM     29  C   UNL     1     -32.908 -42.007  50.317  0.00  0.00    +0.000 C 
BRANCH  28  30
ATOM     30  C   UNL     1     -31.706 -43.754  52.044  0.00  0.00    +0.000 C 
BRANCH  30  31
ATOM     31  C   UNL     1     -31.142 -44.589  52.859  0.00  0.00    +0.000 C 
ATOM     32  C   UNL     1     -30.202 -44.086  53.913  0.00  0.00    +0.000 C 
BRANCH  31  34
ATOM     33  C   UNL     1     -31.885 -47.101  52.864  0.00  0.00    +0.000 C 
ATOM     34  C   UNL     1     -31.535 -45.950  52.854  0.00  0.00    +0.000 C 
BRANCH  33  38
ATOM     35  O   UNL     1     -35.425 -50.458  53.336  0.00  0.00    +0.000 OA
ATOM     36  C   UNL     1     -31.243 -49.578  52.672  0.00  0.00    +0.000 C 
ATOM     37  C   UNL     1     -31.960 -50.840  52.749  0.00  0.00    +0.000 C 
ATOM     38  C   UNL     1     -32.320 -48.484  52.891  0.00  0.00    +0.000 C 
ATOM     39  C   UNL     1     -33.266 -51.277  52.954  0.00  0.00    +0.000 C 
ATOM     40  C   UNL     1     -30.622 -49.403  51.266  0.00  0.00    +0.000 C 
ATOM     41  C   UNL     1     -30.188 -49.495  53.797  0.00  0.00    +0.000 C 
ATOM     42  C   UNL     1     -33.638 -48.774  53.098  0.00  0.00    +0.000 C 
ATOM     43  C   UNL     1     -34.245 -50.186  53.151  0.00  0.00    +0.000 C 
ATOM     44  C   UNL     1     -34.626 -47.616  53.288  0.00  0.00    +0.000 C 
BRANCH  39  45
ATOM     45  O   UNL     1     -33.617 -52.599  52.966  0.00  0.00    +0.000 OA
ATOM     46  H   UNL     1     -33.030 -53.108  53.562  0.00  0.00    +0.000 HD
ENDBRANCH  39  45
ENDBRANCH  33  38
ENDBRANCH  31  34
ENDBRANCH  30  31
ENDBRANCH  28  30
ENDBRANCH  26  29
ENDBRANCH  25  26
ENDBRANCH   1  25
TORSDOF 16
ENDMDL
MODEL 6
REMARK VINA RESULT:      -6.3     36.929     43.939
REMARK  Name = 5281224_Astaxanthin.pdbqt.pdb
REMARK  16 active torsions:
REMARK  status: ('A' for Active; 'I' for Inactive)
REMARK    1  A    between atoms: C_1  and  C_5
REMARK    2  A    between atoms: C_2  and  C_27
REMARK    3  A    between atoms: C_3  and  C_5
REMARK    4  A    between atoms: C_3  and  C_7
REMARK    5  A    between atoms: C_6  and  C_10
REMARK    6  A    between atoms: C_8  and  C_10
REMARK    7  A    between atoms: C_8  and  C_12
REMARK    8  A    between atoms: C_11  and  C_16
REMARK    9  A    between atoms: C_17  and  O_23
REMARK   10  A    between atoms: C_25  and  C_27
REMARK   11  A    between atoms: C_25  and  C_29
REMARK   12  A    between atoms: C_28  and  C_32
REMARK   13  A    between atoms: C_30  and  C_32
REMARK   14  A    between atoms: C_30  and  C_34
REMARK   15  A    between atoms: C_33  and  C_38
REMARK   16  A    between atoms: C_39  and  O_45
REMARK                            x       y       z     vdW  Elec       q    Type
REMARK                         _______ _______ _______ _____ _____    ______ ____
ROOT
ATOM      1  C   UNL     1     -35.052 -74.028  62.081  0.00  0.00    +0.000 C 
ATOM      2  C   UNL     1     -34.202 -73.205  62.280  0.00  0.00    +0.000 C 
ENDROOT
BRANCH   2   3
ATOM      3  C   UNL     1     -33.111 -72.155  62.526  0.00  0.00    +0.000 C 
BRANCH   3   4
ATOM      4  C   UNL     1     -32.188 -71.268  62.728  0.00  0.00    +0.000 C 
ATOM      5  C   UNL     1     -30.760 -71.697  62.882  0.00  0.00    +0.000 C 
BRANCH   4   7
ATOM      6  C   UNL     1     -32.834 -68.750  63.018  0.00  0.00    +0.000 C 
ATOM      7  C   UNL     1     -32.539 -69.905  62.883  0.00  0.00    +0.000 C 
BRANCH   6   8
ATOM      8  C   UNL     1     -33.210 -67.274  63.193  0.00  0.00    +0.000 C 
BRANCH   8   9
ATOM      9  C   UNL     1     -33.530 -66.024  63.334  0.00  0.00    +0.000 C 
ATOM     10  C   UNL     1     -33.484 -65.103  62.153  0.00  0.00    +0.000 C 
BRANCH   9  12
ATOM     11  C   UNL     1     -34.542 -65.178  65.598  0.00  0.00    +0.000 C 
ATOM     12  C   UNL     1     -34.068 -65.571  64.564  0.00  0.00    +0.000 C 
BRANCH  11  16
ATOM     13  O   UNL     1     -37.643 -62.236  67.995  0.00  0.00    +0.000 OA
ATOM     14  C   UNL     1     -34.631 -65.335  68.158  0.00  0.00    +0.000 C 
ATOM     15  C   UNL     1     -35.381 -64.667  69.208  0.00  0.00    +0.000 C 
ATOM     16  C   UNL     1     -35.126 -64.697  66.834  0.00  0.00    +0.000 C 
ATOM     17  C   UNL     1     -36.353 -63.677  69.315  0.00  0.00    +0.000 C 
ATOM     18  C   UNL     1     -34.961 -66.846  68.146  0.00  0.00    +0.000 C 
ATOM     19  C   UNL     1     -33.120 -65.063  68.327  0.00  0.00    +0.000 C 
ATOM     20  C   UNL     1     -36.079 -63.720  66.796  0.00  0.00    +0.000 C 
ATOM     21  C   UNL     1     -36.787 -63.111  68.018  0.00  0.00    +0.000 C 
ATOM     22  C   UNL     1     -36.511 -63.165  65.431  0.00  0.00    +0.000 C 
BRANCH  17  23
ATOM     23  O   UNL     1     -36.872 -63.265  70.513  0.00  0.00    +0.000 OA
ATOM     24  H   UNL     1     -37.803 -63.550  70.604  0.00  0.00    +0.000 HD
ENDBRANCH  17  23
ENDBRANCH  11  16
ENDBRANCH   9  12
ENDBRANCH   8   9
ENDBRANCH   6   8
ENDBRANCH   4   7
ENDBRANCH   3   4
ENDBRANCH   2   3
BRANCH   1  25
ATOM     25  C   UNL     1     -36.135 -75.082  61.818  0.00  0.00    +0.000 C 
BRANCH  25  26
ATOM     26  C   UNL     1     -37.046 -75.976  61.595  0.00  0.00    +0.000 C 
ATOM     27  C   UNL     1     -36.747 -77.137  60.695  0.00  0.00    +0.000 C 
BRANCH  26  29
ATOM     28  C   UNL     1     -39.448 -75.671  62.585  0.00  0.00    +0.000 C 
ATOM     29  C   UNL     1     -38.345 -75.811  62.129  0.00  0.00    +0.000 C 
BRANCH  28  30
ATOM     30  C   UNL     1     -40.855 -75.494  63.170  0.00  0.00    +0.000 C 
BRANCH  30  31
ATOM     31  C   UNL     1     -42.042 -75.351  63.670  0.00  0.00    +0.000 C 
ATOM     32  C   UNL     1     -42.268 -74.389  64.796  0.00  0.00    +0.000 C 
BRANCH  31  34
ATOM     33  C   UNL     1     -44.074 -76.540  62.520  0.00  0.00    +0.000 C 
ATOM     34  C   UNL     1     -43.147 -75.984  63.048  0.00  0.00    +0.000 C 
BRANCH  33  38
ATOM     35  O   UNL     1     -48.756 -77.989  62.483  0.00  0.00    +0.000 OA
ATOM     36  C   UNL     1     -44.914 -77.882  60.500  0.00  0.00    +0.000 C 
ATOM     37  C   UNL     1     -46.180 -78.480  60.112  0.00  0.00    +0.000 C 
ATOM     38  C   UNL     1     -45.180 -77.225  61.879  0.00  0.00    +0.000 C 
ATOM     39  C   UNL     1     -47.468 -78.600  60.626  0.00  0.00    +0.000 C 
ATOM     40  C   UNL     1     -44.509 -76.786  59.487  0.00  0.00    +0.000 C 
ATOM     41  C   UNL     1     -43.833 -78.975  60.651  0.00  0.00    +0.000 C 
ATOM     42  C   UNL     1     -46.398 -77.263  62.494  0.00  0.00    +0.000 C 
ATOM     43  C   UNL     1     -47.659 -77.948  61.940  0.00  0.00    +0.000 C 
ATOM     44  C   UNL     1     -46.560 -76.567  63.852  0.00  0.00    +0.000 C 
BRANCH  39  45
ATOM     45  O   UNL     1     -48.474 -79.258  59.973  0.00  0.00    +0.000 OA
ATOM     46  H   UNL     1     -49.314 -78.756  60.034  0.00  0.00    +0.000 HD
ENDBRANCH  39  45
ENDBRANCH  33  38
ENDBRANCH  31  34
ENDBRANCH  30  31
ENDBRANCH  28  30
ENDBRANCH  26  29
ENDBRANCH  25  26
ENDBRANCH   1  25
TORSDOF 16
ENDMDL
MODEL 7
REMARK VINA RESULT:      -6.3     28.527     35.791
REMARK  Name = 5281224_Astaxanthin.pdbqt.pdb
REMARK  16 active torsions:
REMARK  status: ('A' for Active; 'I' for Inactive)
REMARK    1  A    between atoms: C_1  and  C_5
REMARK    2  A    between atoms: C_2  and  C_27
REMARK    3  A    between atoms: C_3  and  C_5
REMARK    4  A    between atoms: C_3  and  C_7
REMARK    5  A    between atoms: C_6  and  C_10
REMARK    6  A    between atoms: C_8  and  C_10
REMARK    7  A    between atoms: C_8  and  C_12
REMARK    8  A    between atoms: C_11  and  C_16
REMARK    9  A    between atoms: C_17  and  O_23
REMARK   10  A    between atoms: C_25  and  C_27
REMARK   11  A    between atoms: C_25  and  C_29
REMARK   12  A    between atoms: C_28  and  C_32
REMARK   13  A    between atoms: C_30  and  C_32
REMARK   14  A    between atoms: C_30  and  C_34
REMARK   15  A    between atoms: C_33  and  C_38
REMARK   16  A    between atoms: C_39  and  O_45
REMARK                            x       y       z     vdW  Elec       q    Type
REMARK                         _______ _______ _______ _____ _____    ______ ____
ROOT
ATOM      1  C   UNL     1     -42.551 -76.339  53.749  0.00  0.00    +0.000 C 
ATOM      2  C   UNL     1     -42.876 -76.814  54.802  0.00  0.00    +0.000 C 
ENDROOT
BRANCH   2   3
ATOM      3  C   UNL     1     -43.291 -77.412  56.152  0.00  0.00    +0.000 C 
BRANCH   3   4
ATOM      4  C   UNL     1     -43.636 -77.919  57.294  0.00  0.00    +0.000 C 
ATOM      5  C   UNL     1     -44.524 -79.126  57.339  0.00  0.00    +0.000 C 
BRANCH   4   7
ATOM      6  C   UNL     1     -42.907 -76.753  59.519  0.00  0.00    +0.000 C 
ATOM      7  C   UNL     1     -43.241 -77.286  58.497  0.00  0.00    +0.000 C 
BRANCH   6   8
ATOM      8  C   UNL     1     -42.481 -76.074  60.826  0.00  0.00    +0.000 C 
BRANCH   8   9
ATOM      9  C   UNL     1     -42.124 -75.493  61.930  0.00  0.00    +0.000 C 
ATOM     10  C   UNL     1     -40.903 -74.625  61.955  0.00  0.00    +0.000 C 
BRANCH   9  12
ATOM     11  C   UNL     1     -43.696 -75.593  64.023  0.00  0.00    +0.000 C 
ATOM     12  C   UNL     1     -42.970 -75.558  63.064  0.00  0.00    +0.000 C 
BRANCH  11  16
ATOM     13  O   UNL     1     -45.111 -73.795  68.357  0.00  0.00    +0.000 OA
ATOM     14  C   UNL     1     -45.689 -76.698  65.204  0.00  0.00    +0.000 C 
ATOM     15  C   UNL     1     -46.399 -76.481  66.453  0.00  0.00    +0.000 C 
ATOM     16  C   UNL     1     -44.576 -75.619  65.174  0.00  0.00    +0.000 C 
ATOM     17  C   UNL     1     -46.334 -75.617  67.542  0.00  0.00    +0.000 C 
ATOM     18  C   UNL     1     -46.640 -76.476  64.005  0.00  0.00    +0.000 C 
ATOM     19  C   UNL     1     -45.045 -78.102  65.193  0.00  0.00    +0.000 C 
ATOM     20  C   UNL     1     -44.405 -74.706  66.176  0.00  0.00    +0.000 C 
ATOM     21  C   UNL     1     -45.255 -74.609  67.454  0.00  0.00    +0.000 C 
ATOM     22  C   UNL     1     -43.281 -73.669  66.043  0.00  0.00    +0.000 C 
BRANCH  17  23
ATOM     23  O   UNL     1     -47.197 -75.687  68.603  0.00  0.00    +0.000 OA
ATOM     24  H   UNL     1     -48.048 -76.089  68.333  0.00  0.00    +0.000 HD
ENDBRANCH  17  23
ENDBRANCH  11  16
ENDBRANCH   9  12
ENDBRANCH   8   9
ENDBRANCH   6   8
ENDBRANCH   4   7
ENDBRANCH   3   4
ENDBRANCH   2   3
BRANCH   1  25
ATOM     25  C   UNL     1     -42.136 -75.723  52.408  0.00  0.00    +0.000 C 
BRANCH  25  26
ATOM     26  C   UNL     1     -41.790 -75.205  51.272  0.00  0.00    +0.000 C 
ATOM     27  C   UNL     1     -40.388 -74.711  51.073  0.00  0.00    +0.000 C 
BRANCH  26  29
ATOM     28  C   UNL     1     -43.570 -74.871  49.385  0.00  0.00    +0.000 C 
ATOM     29  C   UNL     1     -42.754 -75.025  50.252  0.00  0.00    +0.000 C 
BRANCH  28  30
ATOM     30  C   UNL     1     -44.612 -74.672  48.277  0.00  0.00    +0.000 C 
BRANCH  30  31
ATOM     31  C   UNL     1     -45.490 -74.511  47.337  0.00  0.00    +0.000 C 
ATOM     32  C   UNL     1     -46.352 -73.286  47.321  0.00  0.00    +0.000 C 
BRANCH  31  34
ATOM     33  C   UNL     1     -45.572 -76.185  45.324  0.00  0.00    +0.000 C 
ATOM     34  C   UNL     1     -45.523 -75.413  46.245  0.00  0.00    +0.000 C 
BRANCH  33  38
ATOM     35  O   UNL     1     -43.662 -78.173  41.271  0.00  0.00    +0.000 OA
ATOM     36  C   UNL     1     -46.896 -78.037  44.139  0.00  0.00    +0.000 C 
ATOM     37  C   UNL     1     -46.694 -78.856  42.955  0.00  0.00    +0.000 C 
ATOM     38  C   UNL     1     -45.646 -77.124  44.221  0.00  0.00    +0.000 C 
ATOM     39  C   UNL     1     -45.736 -79.012  41.957  0.00  0.00    +0.000 C 
ATOM     40  C   UNL     1     -46.953 -78.930  45.401  0.00  0.00    +0.000 C 
ATOM     41  C   UNL     1     -48.160 -77.166  43.975  0.00  0.00    +0.000 C 
ATOM     42  C   UNL     1     -44.630 -77.177  43.310  0.00  0.00    +0.000 C 
ATOM     43  C   UNL     1     -44.567 -78.116  42.094  0.00  0.00    +0.000 C 
ATOM     44  C   UNL     1     -43.428 -76.240  43.491  0.00  0.00    +0.000 C 
BRANCH  39  45
ATOM     45  O   UNL     1     -45.860 -79.918  40.939  0.00  0.00    +0.000 OA
ATOM     46  H   UNL     1     -45.533 -80.799  41.218  0.00  0.00    +0.000 HD
ENDBRANCH  39  45
ENDBRANCH  33  38
ENDBRANCH  31  34
ENDBRANCH  30  31
ENDBRANCH  28  30
ENDBRANCH  26  29
ENDBRANCH  25  26
ENDBRANCH   1  25
TORSDOF 16
ENDMDL
MODEL 8
REMARK VINA RESULT:      -6.2     33.370     38.984
REMARK  Name = 5281224_Astaxanthin.pdbqt.pdb
REMARK  16 active torsions:
REMARK  status: ('A' for Active; 'I' for Inactive)
REMARK    1  A    between atoms: C_1  and  C_5
REMARK    2  A    between atoms: C_2  and  C_27
REMARK    3  A    between atoms: C_3  and  C_5
REMARK    4  A    between atoms: C_3  and  C_7
REMARK    5  A    between atoms: C_6  and  C_10
REMARK    6  A    between atoms: C_8  and  C_10
REMARK    7  A    between atoms: C_8  and  C_12
REMARK    8  A    between atoms: C_11  and  C_16
REMARK    9  A    between atoms: C_17  and  O_23
REMARK   10  A    between atoms: C_25  and  C_27
REMARK   11  A    between atoms: C_25  and  C_29
REMARK   12  A    between atoms: C_28  and  C_32
REMARK   13  A    between atoms: C_30  and  C_32
REMARK   14  A    between atoms: C_30  and  C_34
REMARK   15  A    between atoms: C_33  and  C_38
REMARK   16  A    between atoms: C_39  and  O_45
REMARK                            x       y       z     vdW  Elec       q    Type
REMARK                         _______ _______ _______ _____ _____    ______ ____
ROOT
ATOM      1  C   UNL     1     -42.392 -76.315  52.843  0.00  0.00    +0.000 C 
ATOM      2  C   UNL     1     -42.176 -76.919  53.857  0.00  0.00    +0.000 C 
ENDROOT
BRANCH   2   3
ATOM      3  C   UNL     1     -41.905 -77.686  55.158  0.00  0.00    +0.000 C 
BRANCH   3   4
ATOM      4  C   UNL     1     -41.678 -78.328  56.260  0.00  0.00    +0.000 C 
ATOM      5  C   UNL     1     -40.557 -79.321  56.329  0.00  0.00    +0.000 C 
BRANCH   4   7
ATOM      6  C   UNL     1     -43.261 -78.003  58.317  0.00  0.00    +0.000 C 
ATOM      7  C   UNL     1     -42.535 -78.151  57.372  0.00  0.00    +0.000 C 
BRANCH   6   8
ATOM      8  C   UNL     1     -44.184 -77.816  59.526  0.00  0.00    +0.000 C 
BRANCH   8   9
ATOM      9  C   UNL     1     -44.961 -77.663  60.554  0.00  0.00    +0.000 C 
ATOM     10  C   UNL     1     -46.322 -78.290  60.561  0.00  0.00    +0.000 C 
BRANCH   9  12
ATOM     11  C   UNL     1     -44.029 -76.491  62.703  0.00  0.00    +0.000 C 
ATOM     12  C   UNL     1     -44.465 -77.035  61.723  0.00  0.00    +0.000 C 
BRANCH  11  16
ATOM     13  O   UNL     1     -44.621 -74.573  67.175  0.00  0.00    +0.000 OA
ATOM     14  C   UNL     1     -41.979 -75.486  63.876  0.00  0.00    +0.000 C 
ATOM     15  C   UNL     1     -41.733 -74.841  65.154  0.00  0.00    +0.000 C 
ATOM     16  C   UNL     1     -43.491 -75.828  63.875  0.00  0.00    +0.000 C 
ATOM     17  C   UNL     1     -42.456 -74.482  66.287  0.00  0.00    +0.000 C 
ATOM     18  C   UNL     1     -41.164 -76.797  63.773  0.00  0.00    +0.000 C 
ATOM     19  C   UNL     1     -41.672 -74.510  62.718  0.00  0.00    +0.000 C 
ATOM     20  C   UNL     1     -44.315 -75.536  64.924  0.00  0.00    +0.000 C 
ATOM     21  C   UNL     1     -43.892 -74.838  66.228  0.00  0.00    +0.000 C 
ATOM     22  C   UNL     1     -45.795 -75.931  64.831  0.00  0.00    +0.000 C 
BRANCH  17  23
ATOM     23  O   UNL     1     -41.892 -73.859  67.367  0.00  0.00    +0.000 OA
ATOM     24  H   UNL     1     -42.579 -73.593  68.012  0.00  0.00    +0.000 HD
ENDBRANCH  17  23
ENDBRANCH  11  16
ENDBRANCH   9  12
ENDBRANCH   8   9
ENDBRANCH   6   8
ENDBRANCH   4   7
ENDBRANCH   3   4
ENDBRANCH   2   3
BRANCH   1  25
ATOM     25  C   UNL     1     -42.672 -75.536  51.553  0.00  0.00    +0.000 C 
BRANCH  25  26
ATOM     26  C   UNL     1     -42.905 -74.880  50.459  0.00  0.00    +0.000 C 
ATOM     27  C   UNL     1     -44.285 -74.873  49.873  0.00  0.00    +0.000 C 
BRANCH  26  29
ATOM     28  C   UNL     1     -40.941 -73.707  49.191  0.00  0.00    +0.000 C 
ATOM     29  C   UNL     1     -41.843 -74.244  49.775  0.00  0.00    +0.000 C 
BRANCH  28  30
ATOM     30  C   UNL     1     -39.789 -73.023  48.444  0.00  0.00    +0.000 C 
BRANCH  30  31
ATOM     31  C   UNL     1     -38.810 -72.451  47.816  0.00  0.00    +0.000 C 
ATOM     32  C   UNL     1     -38.925 -72.173  46.348  0.00  0.00    +0.000 C 
BRANCH  31  34
ATOM     33  C   UNL     1     -36.753 -71.524  49.147  0.00  0.00    +0.000 C 
ATOM     34  C   UNL     1     -37.704 -71.950  48.546  0.00  0.00    +0.000 C 
BRANCH  33  38
ATOM     35  O   UNL     1     -34.274 -70.801  53.313  0.00  0.00    +0.000 OA
ATOM     36  C   UNL     1     -34.488 -70.324  49.020  0.00  0.00    +0.000 C 
ATOM     37  C   UNL     1     -33.475 -69.925  49.983  0.00  0.00    +0.000 C 
ATOM     38  C   UNL     1     -35.595 -71.015  49.857  0.00  0.00    +0.000 C 
ATOM     39  C   UNL     1     -33.267 -70.002  51.357  0.00  0.00    +0.000 C 
ATOM     40  C   UNL     1     -33.899 -71.346  48.019  0.00  0.00    +0.000 C 
ATOM     41  C   UNL     1     -35.074 -69.080  48.317  0.00  0.00    +0.000 C 
ATOM     42  C   UNL     1     -35.516 -71.161  51.212  0.00  0.00    +0.000 C 
ATOM     43  C   UNL     1     -34.356 -70.675  52.098  0.00  0.00    +0.000 C 
ATOM     44  C   UNL     1     -36.660 -71.874  51.945  0.00  0.00    +0.000 C 
BRANCH  39  45
ATOM     45  O   UNL     1     -32.151 -69.504  51.972  0.00  0.00    +0.000 OA
ATOM     46  H   UNL     1     -32.119 -68.528  51.894  0.00  0.00    +0.000 HD
ENDBRANCH  39  45
ENDBRANCH  33  38
ENDBRANCH  31  34
ENDBRANCH  30  31
ENDBRANCH  28  30
ENDBRANCH  26  29
ENDBRANCH  25  26
ENDBRANCH   1  25
TORSDOF 16
ENDMDL
MODEL 9
REMARK VINA RESULT:      -6.0     38.337     44.137
REMARK  Name = 5281224_Astaxanthin.pdbqt.pdb
REMARK  16 active torsions:
REMARK  status: ('A' for Active; 'I' for Inactive)
REMARK    1  A    between atoms: C_1  and  C_5
REMARK    2  A    between atoms: C_2  and  C_27
REMARK    3  A    between atoms: C_3  and  C_5
REMARK    4  A    between atoms: C_3  and  C_7
REMARK    5  A    between atoms: C_6  and  C_10
REMARK    6  A    between atoms: C_8  and  C_10
REMARK    7  A    between atoms: C_8  and  C_12
REMARK    8  A    between atoms: C_11  and  C_16
REMARK    9  A    between atoms: C_17  and  O_23
REMARK   10  A    between atoms: C_25  and  C_27
REMARK   11  A    between atoms: C_25  and  C_29
REMARK   12  A    between atoms: C_28  and  C_32
REMARK   13  A    between atoms: C_30  and  C_32
REMARK   14  A    between atoms: C_30  and  C_34
REMARK   15  A    between atoms: C_33  and  C_38
REMARK   16  A    between atoms: C_39  and  O_45
REMARK                            x       y       z     vdW  Elec       q    Type
REMARK                         _______ _______ _______ _____ _____    ______ ____
ROOT
ATOM      1  C   UNL     1     -35.254 -74.118  60.044  0.00  0.00    +0.000 C 
ATOM      2  C   UNL     1     -34.506 -73.439  60.691  0.00  0.00    +0.000 C 
ENDROOT
BRANCH   2   3
ATOM      3  C   UNL     1     -33.543 -72.571  61.511  0.00  0.00    +0.000 C 
BRANCH   3   4
ATOM      4  C   UNL     1     -32.726 -71.841  62.203  0.00  0.00    +0.000 C 
ATOM      5  C   UNL     1     -31.643 -72.492  63.010  0.00  0.00    +0.000 C 
BRANCH   4   7
ATOM      6  C   UNL     1     -33.059 -69.249  62.306  0.00  0.00    +0.000 C 
ATOM      7  C   UNL     1     -32.905 -70.438  62.260  0.00  0.00    +0.000 C 
BRANCH   6   8
ATOM      8  C   UNL     1     -33.260 -67.730  62.363  0.00  0.00    +0.000 C 
BRANCH   8   9
ATOM      9  C   UNL     1     -33.429 -66.445  62.420  0.00  0.00    +0.000 C 
ATOM     10  C   UNL     1     -33.349 -65.625  61.169  0.00  0.00    +0.000 C 
BRANCH   9  12
ATOM     11  C   UNL     1     -34.207 -65.336  64.662  0.00  0.00    +0.000 C 
ATOM     12  C   UNL     1     -33.838 -65.843  63.635  0.00  0.00    +0.000 C 
BRANCH  11  16
ATOM     13  O   UNL     1     -34.990 -65.540  69.496  0.00  0.00    +0.000 OA
ATOM     14  C   UNL     1     -35.220 -63.280  65.817  0.00  0.00    +0.000 C 
ATOM     15  C   UNL     1     -35.597 -62.941  67.179  0.00  0.00    +0.000 C 
ATOM     16  C   UNL     1     -34.668 -64.727  65.894  0.00  0.00    +0.000 C 
ATOM     17  C   UNL     1     -35.589 -63.542  68.433  0.00  0.00    +0.000 C 
ATOM     18  C   UNL     1     -34.097 -62.337  65.324  0.00  0.00    +0.000 C 
ATOM     19  C   UNL     1     -36.460 -63.250  64.897  0.00  0.00    +0.000 C 
ATOM     20  C   UNL     1     -34.600 -65.430  67.063  0.00  0.00    +0.000 C 
ATOM     21  C   UNL     1     -35.048 -64.920  68.443  0.00  0.00    +0.000 C 
ATOM     22  C   UNL     1     -34.022 -66.852  67.034  0.00  0.00    +0.000 C 
BRANCH  17  23
ATOM     23  O   UNL     1     -36.036 -62.915  69.566  0.00  0.00    +0.000 OA
ATOM     24  H   UNL     1     -36.887 -63.298  69.861  0.00  0.00    +0.000 HD
ENDBRANCH  17  23
ENDBRANCH  11  16
ENDBRANCH   9  12
ENDBRANCH   8   9
ENDBRANCH   6   8
ENDBRANCH   4   7
ENDBRANCH   3   4
ENDBRANCH   2   3
BRANCH   1  25
ATOM     25  C   UNL     1     -36.204 -74.985  59.209  0.00  0.00    +0.000 C 
BRANCH  25  26
ATOM     26  C   UNL     1     -37.011 -75.713  58.504  0.00  0.00    +0.000 C 
ATOM     27  C   UNL     1     -36.509 -76.406  57.272  0.00  0.00    +0.000 C 
BRANCH  26  29
ATOM     28  C   UNL     1     -39.545 -75.849  59.138  0.00  0.00    +0.000 C 
ATOM     29  C   UNL     1     -38.382 -75.785  58.846  0.00  0.00    +0.000 C 
BRANCH  28  30
ATOM     30  C   UNL     1     -41.031 -75.934  59.510  0.00  0.00    +0.000 C 
BRANCH  30  31
ATOM     31  C   UNL     1     -42.284 -76.007  59.834  0.00  0.00    +0.000 C 
ATOM     32  C   UNL     1     -43.303 -76.379  58.800  0.00  0.00    +0.000 C 
BRANCH  31  34
ATOM     33  C   UNL     1     -42.974 -75.778  62.351  0.00  0.00    +0.000 C 
ATOM     34  C   UNL     1     -42.667 -75.889  61.193  0.00  0.00    +0.000 C 
BRANCH  33  38
ATOM     35  O   UNL     1     -46.129 -76.421  66.046  0.00  0.00    +0.000 OA
ATOM     36  C   UNL     1     -42.288 -74.970  64.688  0.00  0.00    +0.000 C 
ATOM     37  C   UNL     1     -42.907 -74.968  66.003  0.00  0.00    +0.000 C 
ATOM     38  C   UNL     1     -43.327 -75.637  63.750  0.00  0.00    +0.000 C 
ATOM     39  C   UNL     1     -44.102 -75.382  66.584  0.00  0.00    +0.000 C 
ATOM     40  C   UNL     1     -41.000 -75.825  64.707  0.00  0.00    +0.000 C 
ATOM     41  C   UNL     1     -42.028 -73.521  64.219  0.00  0.00    +0.000 C 
ATOM     42  C   UNL     1     -44.536 -76.094  64.191  0.00  0.00    +0.000 C 
ATOM     43  C   UNL     1     -45.048 -76.015  65.639  0.00  0.00    +0.000 C 
ATOM     44  C   UNL     1     -45.486 -76.754  63.183  0.00  0.00    +0.000 C 
BRANCH  39  45
ATOM     45  O   UNL     1     -44.379 -75.224  67.915  0.00  0.00    +0.000 OA
ATOM     46  H   UNL     1     -44.332 -76.083  68.383  0.00  0.00    +0.000 HD
ENDBRANCH  39  45
ENDBRANCH  33  38
ENDBRANCH  31  34
ENDBRANCH  30  31
ENDBRANCH  28  30
ENDBRANCH  26  29
ENDBRANCH  25  26
ENDBRANCH   1  25
TORSDOF 16
ENDMDL
