MODEL 1
REMARK VINA RESULT:      -8.4      0.000      0.000
REMARK  Name = 5281698_sexangularetin.pdbqt.pdb
REMARK  6 active torsions:
REMARK  status: ('A' for Active; 'I' for Inactive)
REMARK    1  A    between atoms: C_5  and  C_12
REMARK    2  A    between atoms: C_6  and  O_20
REMARK    3  A    between atoms: C_8  and  O_22
REMARK    4  A    between atoms: C_9  and  O_24
REMARK    5  A    between atoms: C_10  and  O_26
REMARK    6  A    between atoms: C_17  and  O_18
REMARK                            x       y       z     vdW  Elec       q    Type
REMARK                         _______ _______ _______ _____ _____    ______ ____
ROOT
ATOM      1  O   UNL     1     -59.035 -62.991  41.582  0.00  0.00    +0.000 OA
ATOM      2  O   UNL     1     -61.108 -61.084  44.494  0.00  0.00    +0.000 OA
ATOM      3  C   UNL     1     -61.044 -62.839  42.926  0.00  0.00    +0.000 A 
ATOM      4  C   UNL     1     -60.284 -63.442  41.925  0.00  0.00    +0.000 A 
ATOM      5  C   UNL     1     -58.516 -61.860  42.201  0.00  0.00    +0.000 A 
ATOM      6  C   UNL     1     -60.793 -64.562  41.253  0.00  0.00    +0.000 A 
ATOM      7  C   UNL     1     -60.493 -61.662  43.601  0.00  0.00    +0.000 A 
ATOM      8  C   UNL     1     -59.157 -61.188  43.176  0.00  0.00    +0.000 A 
ATOM      9  C   UNL     1     -62.295 -63.358  43.276  0.00  0.00    +0.000 A 
ATOM     10  C   UNL     1     -62.028 -65.099  41.637  0.00  0.00    +0.000 A 
ATOM     11  C   UNL     1     -62.784 -64.493  42.637  0.00  0.00    +0.000 A 
ENDROOT
BRANCH   5  12
ATOM     12  C   UNL     1     -57.180 -61.487  41.691  0.00  0.00    +0.000 A 
ATOM     13  C   UNL     1     -57.042 -61.045  40.370  0.00  0.00    +0.000 A 
ATOM     14  C   UNL     1     -56.045 -61.496  42.508  0.00  0.00    +0.000 A 
ATOM     15  C   UNL     1     -55.805 -60.645  39.869  0.00  0.00    +0.000 A 
ATOM     16  C   UNL     1     -54.802 -61.100  42.019  0.00  0.00    +0.000 A 
ATOM     17  C   UNL     1     -54.692 -60.677  40.701  0.00  0.00    +0.000 A 
BRANCH  17  18
ATOM     18  O   UNL     1     -53.467 -60.292  40.241  0.00  0.00    +0.000 OA
ATOM     19  H   UNL     1     -53.285 -60.778  39.418  0.00  0.00    +0.000 HD
ENDBRANCH  17  18
ENDBRANCH   5  12
BRANCH   6  20
ATOM     20  O   UNL     1     -60.064 -65.205  40.282  0.00  0.00    +0.000 OA
ATOM     21  C   UNL     1     -59.441 -66.359  40.796  0.00  0.00    +0.000 C 
ENDBRANCH   6  20
BRANCH   8  22
ATOM     22  O   UNL     1     -58.645 -60.085  43.833  0.00  0.00    +0.000 OA
ATOM     23  H   UNL     1     -58.878 -59.313  43.277  0.00  0.00    +0.000 HD
ENDBRANCH   8  22
BRANCH   9  24
ATOM     24  O   UNL     1     -63.088 -62.815  44.249  0.00  0.00    +0.000 OA
ATOM     25  H   UNL     1     -62.796 -63.156  45.125  0.00  0.00    +0.000 HD
ENDBRANCH   9  24
BRANCH  10  26
ATOM     26  O   UNL     1     -62.491 -66.237  41.039  0.00  0.00    +0.000 OA
ATOM     27  H   UNL     1     -61.779 -66.904  41.044  0.00  0.00    +0.000 HD
ENDBRANCH  10  26
TORSDOF 6
ENDMDL
MODEL 2
REMARK VINA RESULT:      -7.8      2.344      3.359
REMARK  Name = 5281698_sexangularetin.pdbqt.pdb
REMARK  6 active torsions:
REMARK  status: ('A' for Active; 'I' for Inactive)
REMARK    1  A    between atoms: C_5  and  C_12
REMARK    2  A    between atoms: C_6  and  O_20
REMARK    3  A    between atoms: C_8  and  O_22
REMARK    4  A    between atoms: C_9  and  O_24
REMARK    5  A    between atoms: C_10  and  O_26
REMARK    6  A    between atoms: C_17  and  O_18
REMARK                            x       y       z     vdW  Elec       q    Type
REMARK                         _______ _______ _______ _____ _____    ______ ____
ROOT
ATOM      1  O   UNL     1     -60.193 -64.726  41.189  0.00  0.00    +0.000 OA
ATOM      2  O   UNL     1     -63.343 -62.899  39.413  0.00  0.00    +0.000 OA
ATOM      3  C   UNL     1     -62.409 -64.901  40.227  0.00  0.00    +0.000 A 
ATOM      4  C   UNL     1     -61.289 -65.470  40.830  0.00  0.00    +0.000 A 
ATOM      5  C   UNL     1     -60.156 -63.368  40.897  0.00  0.00    +0.000 A 
ATOM      6  C   UNL     1     -61.276 -66.845  41.104  0.00  0.00    +0.000 A 
ATOM      7  C   UNL     1     -62.388 -63.465  39.940  0.00  0.00    +0.000 A 
ATOM      8  C   UNL     1     -61.173 -62.707  40.311  0.00  0.00    +0.000 A 
ATOM      9  C   UNL     1     -63.524 -65.688  39.918  0.00  0.00    +0.000 A 
ATOM     10  C   UNL     1     -62.411 -67.617  40.829  0.00  0.00    +0.000 A 
ATOM     11  C   UNL     1     -63.528 -67.045  40.226  0.00  0.00    +0.000 A 
ENDROOT
BRANCH   5  12
ATOM     12  C   UNL     1     -58.894 -62.724  41.315  0.00  0.00    +0.000 A 
ATOM     13  C   UNL     1     -57.697 -63.064  40.671  0.00  0.00    +0.000 A 
ATOM     14  C   UNL     1     -58.858 -61.728  42.295  0.00  0.00    +0.000 A 
ATOM     15  C   UNL     1     -56.496 -62.445  41.010  0.00  0.00    +0.000 A 
ATOM     16  C   UNL     1     -57.663 -61.103  42.645  0.00  0.00    +0.000 A 
ATOM     17  C   UNL     1     -56.489 -61.468  41.998  0.00  0.00    +0.000 A 
BRANCH  17  18
ATOM     18  O   UNL     1     -55.329 -60.843  42.354  0.00  0.00    +0.000 OA
ATOM     19  H   UNL     1     -55.239 -60.901  43.322  0.00  0.00    +0.000 HD
ENDBRANCH  17  18
ENDBRANCH   5  12
BRANCH   6  20
ATOM     20  O   UNL     1     -60.205 -67.439  41.726  0.00  0.00    +0.000 OA
ATOM     21  C   UNL     1     -59.247 -67.868  40.786  0.00  0.00    +0.000 C 
ENDBRANCH   6  20
BRANCH   8  22
ATOM     22  O   UNL     1     -61.175 -61.351  40.047  0.00  0.00    +0.000 OA
ATOM     23  H   UNL     1     -60.271 -61.140  39.731  0.00  0.00    +0.000 HD
ENDBRANCH   8  22
BRANCH   9  24
ATOM     24  O   UNL     1     -64.654 -65.191  39.329  0.00  0.00    +0.000 OA
ATOM     25  H   UNL     1     -65.440 -65.624  39.731  0.00  0.00    +0.000 HD
ENDBRANCH   9  24
BRANCH  10  26
ATOM     26  O   UNL     1     -62.433 -68.940  41.168  0.00  0.00    +0.000 OA
ATOM     27  H   UNL     1     -62.898 -69.434  40.467  0.00  0.00    +0.000 HD
ENDBRANCH  10  26
TORSDOF 6
ENDMDL
MODEL 3
REMARK VINA RESULT:      -7.3      2.545      4.839
REMARK  Name = 5281698_sexangularetin.pdbqt.pdb
REMARK  6 active torsions:
REMARK  status: ('A' for Active; 'I' for Inactive)
REMARK    1  A    between atoms: C_5  and  C_12
REMARK    2  A    between atoms: C_6  and  O_20
REMARK    3  A    between atoms: C_8  and  O_22
REMARK    4  A    between atoms: C_9  and  O_24
REMARK    5  A    between atoms: C_10  and  O_26
REMARK    6  A    between atoms: C_17  and  O_18
REMARK                            x       y       z     vdW  Elec       q    Type
REMARK                         _______ _______ _______ _____ _____    ______ ____
ROOT
ATOM      1  O   UNL     1     -60.518 -65.330  40.997  0.00  0.00    +0.000 OA
ATOM      2  O   UNL     1     -63.382 -64.489  38.258  0.00  0.00    +0.000 OA
ATOM      3  C   UNL     1     -62.089 -66.133  39.337  0.00  0.00    +0.000 A 
ATOM      4  C   UNL     1     -61.091 -66.354  40.285  0.00  0.00    +0.000 A 
ATOM      5  C   UNL     1     -60.891 -64.016  40.738  0.00  0.00    +0.000 A 
ATOM      6  C   UNL     1     -60.663 -67.663  40.544  0.00  0.00    +0.000 A 
ATOM      7  C   UNL     1     -62.505 -64.754  39.077  0.00  0.00    +0.000 A 
ATOM      8  C   UNL     1     -61.838 -63.677  39.842  0.00  0.00    +0.000 A 
ATOM      9  C   UNL     1     -62.678 -67.210  38.666  0.00  0.00    +0.000 A 
ATOM     10  C   UNL     1     -61.285 -68.736  39.897  0.00  0.00    +0.000 A 
ATOM     11  C   UNL     1     -62.282 -68.512  38.951  0.00  0.00    +0.000 A 
ENDROOT
BRANCH   5  12
ATOM     12  C   UNL     1     -60.155 -63.037  41.562  0.00  0.00    +0.000 A 
ATOM     13  C   UNL     1     -60.684 -62.630  42.793  0.00  0.00    +0.000 A 
ATOM     14  C   UNL     1     -58.901 -62.545  41.187  0.00  0.00    +0.000 A 
ATOM     15  C   UNL     1     -59.995 -61.741  43.616  0.00  0.00    +0.000 A 
ATOM     16  C   UNL     1     -58.202 -61.654  41.999  0.00  0.00    +0.000 A 
ATOM     17  C   UNL     1     -58.757 -61.259  43.209  0.00  0.00    +0.000 A 
BRANCH  17  18
ATOM     18  O   UNL     1     -58.057 -60.387  43.991  0.00  0.00    +0.000 OA
ATOM     19  H   UNL     1     -57.416 -60.898  44.517  0.00  0.00    +0.000 HD
ENDBRANCH  17  18
ENDBRANCH   5  12
BRANCH   6  20
ATOM     20  O   UNL     1     -59.704 -67.926  41.492  0.00  0.00    +0.000 OA
ATOM     21  C   UNL     1     -58.419 -67.970  40.916  0.00  0.00    +0.000 C 
ENDBRANCH   6  20
BRANCH   8  22
ATOM     22  O   UNL     1     -62.253 -62.383  39.596  0.00  0.00    +0.000 OA
ATOM     23  H   UNL     1     -61.433 -61.857  39.484  0.00  0.00    +0.000 HD
ENDBRANCH   8  22
BRANCH   9  24
ATOM     24  O   UNL     1     -63.663 -67.061  37.728  0.00  0.00    +0.000 OA
ATOM     25  H   UNL     1     -63.248 -66.861  36.858  0.00  0.00    +0.000 HD
ENDBRANCH   9  24
BRANCH  10  26
ATOM     26  O   UNL     1     -60.927 -70.018  40.205  0.00  0.00    +0.000 OA
ATOM     27  H   UNL     1     -59.985 -70.027  40.458  0.00  0.00    +0.000 HD
ENDBRANCH  10  26
TORSDOF 6
ENDMDL
MODEL 4
REMARK VINA RESULT:      -7.2      4.226      8.765
REMARK  Name = 5281698_sexangularetin.pdbqt.pdb
REMARK  6 active torsions:
REMARK  status: ('A' for Active; 'I' for Inactive)
REMARK    1  A    between atoms: C_5  and  C_12
REMARK    2  A    between atoms: C_6  and  O_20
REMARK    3  A    between atoms: C_8  and  O_22
REMARK    4  A    between atoms: C_9  and  O_24
REMARK    5  A    between atoms: C_10  and  O_26
REMARK    6  A    between atoms: C_17  and  O_18
REMARK                            x       y       z     vdW  Elec       q    Type
REMARK                         _______ _______ _______ _____ _____    ______ ____
ROOT
ATOM      1  O   UNL     1     -63.270 -66.931  40.808  0.00  0.00    +0.000 OA
ATOM      2  O   UNL     1     -63.659 -63.014  39.848  0.00  0.00    +0.000 OA
ATOM      3  C   UNL     1     -62.212 -64.796  40.370  0.00  0.00    +0.000 A 
ATOM      4  C   UNL     1     -62.148 -66.147  40.708  0.00  0.00    +0.000 A 
ATOM      5  C   UNL     1     -64.526 -66.363  40.626  0.00  0.00    +0.000 A 
ATOM      6  C   UNL     1     -60.900 -66.743  40.937  0.00  0.00    +0.000 A 
ATOM      7  C   UNL     1     -63.530 -64.197  40.152  0.00  0.00    +0.000 A 
ATOM      8  C   UNL     1     -64.716 -65.070  40.303  0.00  0.00    +0.000 A 
ATOM      9  C   UNL     1     -61.040 -64.043  40.235  0.00  0.00    +0.000 A 
ATOM     10  C   UNL     1     -59.732 -65.992  40.760  0.00  0.00    +0.000 A 
ATOM     11  C   UNL     1     -59.799 -64.644  40.423  0.00  0.00    +0.000 A 
ENDROOT
BRANCH   5  12
ATOM     12  C   UNL     1     -65.626 -67.333  40.804  0.00  0.00    +0.000 A 
ATOM     13  C   UNL     1     -66.068 -68.088  39.711  0.00  0.00    +0.000 A 
ATOM     14  C   UNL     1     -66.204 -67.578  42.054  0.00  0.00    +0.000 A 
ATOM     15  C   UNL     1     -67.073 -69.043  39.853  0.00  0.00    +0.000 A 
ATOM     16  C   UNL     1     -67.212 -68.528  42.209  0.00  0.00    +0.000 A 
ATOM     17  C   UNL     1     -67.638 -69.254  41.104  0.00  0.00    +0.000 A 
BRANCH  17  18
ATOM     18  O   UNL     1     -68.624 -70.181  41.277  0.00  0.00    +0.000 OA
ATOM     19  H   UNL     1     -69.273 -69.820  41.907  0.00  0.00    +0.000 HD
ENDBRANCH  17  18
ENDBRANCH   5  12
BRANCH   6  20
ATOM     20  O   UNL     1     -60.792 -68.078  41.241  0.00  0.00    +0.000 OA
ATOM     21  C   UNL     1     -60.902 -68.873  40.084  0.00  0.00    +0.000 C 
ENDBRANCH   6  20
BRANCH   8  22
ATOM     22  O   UNL     1     -65.952 -64.493  40.079  0.00  0.00    +0.000 OA
ATOM     23  H   UNL     1     -66.089 -64.527  39.108  0.00  0.00    +0.000 HD
ENDBRANCH   8  22
BRANCH   9  24
ATOM     24  O   UNL     1     -61.035 -62.717  39.903  0.00  0.00    +0.000 OA
ATOM     25  H   UNL     1     -60.199 -62.310  40.227  0.00  0.00    +0.000 HD
ENDBRANCH   9  24
BRANCH  10  26
ATOM     26  O   UNL     1     -58.511 -66.590  40.903  0.00  0.00    +0.000 OA
ATOM     27  H   UNL     1     -57.985 -66.419  40.100  0.00  0.00    +0.000 HD
ENDBRANCH  10  26
TORSDOF 6
ENDMDL
MODEL 5
REMARK VINA RESULT:      -6.3     11.879     16.018
REMARK  Name = 5281698_sexangularetin.pdbqt.pdb
REMARK  6 active torsions:
REMARK  status: ('A' for Active; 'I' for Inactive)
REMARK    1  A    between atoms: C_5  and  C_12
REMARK    2  A    between atoms: C_6  and  O_20
REMARK    3  A    between atoms: C_8  and  O_22
REMARK    4  A    between atoms: C_9  and  O_24
REMARK    5  A    between atoms: C_10  and  O_26
REMARK    6  A    between atoms: C_17  and  O_18
REMARK                            x       y       z     vdW  Elec       q    Type
REMARK                         _______ _______ _______ _____ _____    ______ ____
ROOT
ATOM      1  O   UNL     1     -44.552 -64.950  41.271  0.00  0.00    +0.000 OA
ATOM      2  O   UNL     1     -42.351 -62.510  38.901  0.00  0.00    +0.000 OA
ATOM      3  C   UNL     1     -42.879 -64.715  39.535  0.00  0.00    +0.000 A 
ATOM      4  C   UNL     1     -43.657 -65.497  40.386  0.00  0.00    +0.000 A 
ATOM      5  C   UNL     1     -44.659 -63.568  41.376  0.00  0.00    +0.000 A 
ATOM      6  C   UNL     1     -43.546 -66.894  40.334  0.00  0.00    +0.000 A 
ATOM      7  C   UNL     1     -43.004 -63.259  39.623  0.00  0.00    +0.000 A 
ATOM      8  C   UNL     1     -43.956 -62.709  40.614  0.00  0.00    +0.000 A 
ATOM      9  C   UNL     1     -42.010 -65.316  38.617  0.00  0.00    +0.000 A 
ATOM     10  C   UNL     1     -42.706 -67.487  39.385  0.00  0.00    +0.000 A 
ATOM     11  C   UNL     1     -41.929 -66.702  38.536  0.00  0.00    +0.000 A 
ENDROOT
BRANCH   5  12
ATOM     12  C   UNL     1     -45.638 -63.144  42.398  0.00  0.00    +0.000 A 
ATOM     13  C   UNL     1     -45.240 -63.035  43.736  0.00  0.00    +0.000 A 
ATOM     14  C   UNL     1     -46.946 -62.778  42.065  0.00  0.00    +0.000 A 
ATOM     15  C   UNL     1     -46.126 -62.598  44.718  0.00  0.00    +0.000 A 
ATOM     16  C   UNL     1     -47.843 -62.340  43.038  0.00  0.00    +0.000 A 
ATOM     17  C   UNL     1     -47.424 -62.254  44.360  0.00  0.00    +0.000 A 
BRANCH  17  18
ATOM     18  O   UNL     1     -48.316 -61.821  45.297  0.00  0.00    +0.000 OA
ATOM     19  H   UNL     1     -48.613 -60.929  45.044  0.00  0.00    +0.000 HD
ENDBRANCH  17  18
ENDBRANCH   5  12
BRANCH   6  20
ATOM     20  O   UNL     1     -44.318 -67.702  41.133  0.00  0.00    +0.000 OA
ATOM     21  C   UNL     1     -43.595 -68.142  42.259  0.00  0.00    +0.000 C 
ENDBRANCH   6  20
BRANCH   8  22
ATOM     22  O   UNL     1     -44.074 -61.333  40.674  0.00  0.00    +0.000 OA
ATOM     23  H   UNL     1     -43.568 -60.990  39.907  0.00  0.00    +0.000 HD
ENDBRANCH   8  22
BRANCH   9  24
ATOM     24  O   UNL     1     -41.223 -64.605  37.754  0.00  0.00    +0.000 OA
ATOM     25  H   UNL     1     -41.638 -64.614  36.862  0.00  0.00    +0.000 HD
ENDBRANCH   9  24
BRANCH  10  26
ATOM     26  O   UNL     1     -42.655 -68.848  39.275  0.00  0.00    +0.000 OA
ATOM     27  H   UNL     1     -42.563 -69.082  38.333  0.00  0.00    +0.000 HD
ENDBRANCH  10  26
TORSDOF 6
ENDMDL
MODEL 6
REMARK VINA RESULT:      -6.1     12.249     14.608
REMARK  Name = 5281698_sexangularetin.pdbqt.pdb
REMARK  6 active torsions:
REMARK  status: ('A' for Active; 'I' for Inactive)
REMARK    1  A    between atoms: C_5  and  C_12
REMARK    2  A    between atoms: C_6  and  O_20
REMARK    3  A    between atoms: C_8  and  O_22
REMARK    4  A    between atoms: C_9  and  O_24
REMARK    5  A    between atoms: C_10  and  O_26
REMARK    6  A    between atoms: C_17  and  O_18
REMARK                            x       y       z     vdW  Elec       q    Type
REMARK                         _______ _______ _______ _____ _____    ______ ____
ROOT
ATOM      1  O   UNL     1     -46.029 -65.030  40.205  0.00  0.00    +0.000 OA
ATOM      2  O   UNL     1     -43.957 -62.954  37.410  0.00  0.00    +0.000 OA
ATOM      3  C   UNL     1     -45.010 -64.973  38.008  0.00  0.00    +0.000 A 
ATOM      4  C   UNL     1     -45.710 -65.635  39.015  0.00  0.00    +0.000 A 
ATOM      5  C   UNL     1     -45.598 -63.733  40.456  0.00  0.00    +0.000 A 
ATOM      6  C   UNL     1     -46.126 -66.958  38.811  0.00  0.00    +0.000 A 
ATOM      7  C   UNL     1     -44.575 -63.597  38.255  0.00  0.00    +0.000 A 
ATOM      8  C   UNL     1     -44.910 -62.994  39.565  0.00  0.00    +0.000 A 
ATOM      9  C   UNL     1     -44.744 -65.612  36.792  0.00  0.00    +0.000 A 
ATOM     10  C   UNL     1     -45.891 -67.576  37.577  0.00  0.00    +0.000 A 
ATOM     11  C   UNL     1     -45.191 -66.911  36.573  0.00  0.00    +0.000 A 
ENDROOT
BRANCH   5  12
ATOM     12  C   UNL     1     -45.992 -63.245  41.793  0.00  0.00    +0.000 A 
ATOM     13  C   UNL     1     -47.295 -62.776  42.003  0.00  0.00    +0.000 A 
ATOM     14  C   UNL     1     -45.124 -63.299  42.888  0.00  0.00    +0.000 A 
ATOM     15  C   UNL     1     -47.713 -62.349  43.262  0.00  0.00    +0.000 A 
ATOM     16  C   UNL     1     -45.529 -62.873  44.152  0.00  0.00    +0.000 A 
ATOM     17  C   UNL     1     -46.823 -62.401  44.328  0.00  0.00    +0.000 A 
BRANCH  17  18
ATOM     18  O   UNL     1     -47.202 -61.991  45.573  0.00  0.00    +0.000 OA
ATOM     19  H   UNL     1     -47.019 -61.038  45.647  0.00  0.00    +0.000 HD
ENDBRANCH  17  18
ENDBRANCH   5  12
BRANCH   6  20
ATOM     20  O   UNL     1     -46.844 -67.636  39.765  0.00  0.00    +0.000 OA
ATOM     21  C   UNL     1     -46.029 -68.549  40.462  0.00  0.00    +0.000 C 
ENDBRANCH   6  20
BRANCH   8  22
ATOM     22  O   UNL     1     -44.505 -61.690  39.776  0.00  0.00    +0.000 OA
ATOM     23  H   UNL     1     -44.961 -61.156  39.092  0.00  0.00    +0.000 HD
ENDBRANCH   8  22
BRANCH   9  24
ATOM     24  O   UNL     1     -44.065 -65.017  35.764  0.00  0.00    +0.000 OA
ATOM     25  H   UNL     1     -43.106 -65.214  35.859  0.00  0.00    +0.000 HD
ENDBRANCH   9  24
BRANCH  10  26
ATOM     26  O   UNL     1     -46.365 -68.836  37.345  0.00  0.00    +0.000 OA
ATOM     27  H   UNL     1     -46.497 -68.948  36.385  0.00  0.00    +0.000 HD
ENDBRANCH  10  26
TORSDOF 6
ENDMDL
MODEL 7
REMARK VINA RESULT:      -6.1      4.952      9.667
REMARK  Name = 5281698_sexangularetin.pdbqt.pdb
REMARK  6 active torsions:
REMARK  status: ('A' for Active; 'I' for Inactive)
REMARK    1  A    between atoms: C_5  and  C_12
REMARK    2  A    between atoms: C_6  and  O_20
REMARK    3  A    between atoms: C_8  and  O_22
REMARK    4  A    between atoms: C_9  and  O_24
REMARK    5  A    between atoms: C_10  and  O_26
REMARK    6  A    between atoms: C_17  and  O_18
REMARK                            x       y       z     vdW  Elec       q    Type
REMARK                         _______ _______ _______ _____ _____    ______ ____
ROOT
ATOM      1  O   UNL     1     -63.897 -67.174  40.500  0.00  0.00    +0.000 OA
ATOM      2  O   UNL     1     -60.948 -69.399  42.164  0.00  0.00    +0.000 OA
ATOM      3  C   UNL     1     -61.540 -67.448  40.987  0.00  0.00    +0.000 A 
ATOM      4  C   UNL     1     -62.599 -66.736  40.426  0.00  0.00    +0.000 A 
ATOM      5  C   UNL     1     -64.179 -68.395  41.102  0.00  0.00    +0.000 A 
ATOM      6  C   UNL     1     -62.345 -65.519  39.777  0.00  0.00    +0.000 A 
ATOM      7  C   UNL     1     -61.833 -68.723  41.645  0.00  0.00    +0.000 A 
ATOM      8  C   UNL     1     -63.242 -69.175  41.673  0.00  0.00    +0.000 A 
ATOM      9  C   UNL     1     -60.236 -66.943  40.927  0.00  0.00    +0.000 A 
ATOM     10  C   UNL     1     -61.044 -65.003  39.757  0.00  0.00    +0.000 A 
ATOM     11  C   UNL     1     -59.989 -65.717  40.319  0.00  0.00    +0.000 A 
ENDROOT
BRANCH   5  12
ATOM     12  C   UNL     1     -65.617 -68.734  41.065  0.00  0.00    +0.000 A 
ATOM     13  C   UNL     1     -66.180 -69.236  39.886  0.00  0.00    +0.000 A 
ATOM     14  C   UNL     1     -66.431 -68.637  42.198  0.00  0.00    +0.000 A 
ATOM     15  C   UNL     1     -67.522 -69.607  39.828  0.00  0.00    +0.000 A 
ATOM     16  C   UNL     1     -67.775 -69.002  42.154  0.00  0.00    +0.000 A 
ATOM     17  C   UNL     1     -68.310 -69.485  40.966  0.00  0.00    +0.000 A 
BRANCH  17  18
ATOM     18  O   UNL     1     -69.628 -69.839  40.944  0.00  0.00    +0.000 OA
ATOM     19  H   UNL     1     -69.744 -70.613  41.524  0.00  0.00    +0.000 HD
ENDBRANCH  17  18
ENDBRANCH   5  12
BRANCH   6  20
ATOM     20  O   UNL     1     -63.364 -64.772  39.238  0.00  0.00    +0.000 OA
ATOM     21  C   UNL     1     -63.547 -65.072  37.874  0.00  0.00    +0.000 C 
ENDBRANCH   6  20
BRANCH   8  22
ATOM     22  O   UNL     1     -63.504 -70.372  42.311  0.00  0.00    +0.000 OA
ATOM     23  H   UNL     1     -62.987 -70.348  43.144  0.00  0.00    +0.000 HD
ENDBRANCH   8  22
BRANCH   9  24
ATOM     24  O   UNL     1     -59.156 -67.591  41.460  0.00  0.00    +0.000 OA
ATOM     25  H   UNL     1     -58.679 -68.062  40.740  0.00  0.00    +0.000 HD
ENDBRANCH   9  24
BRANCH  10  26
ATOM     26  O   UNL     1     -60.806 -63.780  39.197  0.00  0.00    +0.000 OA
ATOM     27  H   UNL     1     -59.865 -63.729  38.947  0.00  0.00    +0.000 HD
ENDBRANCH  10  26
TORSDOF 6
ENDMDL
MODEL 8
REMARK VINA RESULT:      -6.0     20.592     21.632
REMARK  Name = 5281698_sexangularetin.pdbqt.pdb
REMARK  6 active torsions:
REMARK  status: ('A' for Active; 'I' for Inactive)
REMARK    1  A    between atoms: C_5  and  C_12
REMARK    2  A    between atoms: C_6  and  O_20
REMARK    3  A    between atoms: C_8  and  O_22
REMARK    4  A    between atoms: C_9  and  O_24
REMARK    5  A    between atoms: C_10  and  O_26
REMARK    6  A    between atoms: C_17  and  O_18
REMARK                            x       y       z     vdW  Elec       q    Type
REMARK                         _______ _______ _______ _____ _____    ______ ____
ROOT
ATOM      1  O   UNL     1     -42.061 -53.524  32.786  0.00  0.00    +0.000 OA
ATOM      2  O   UNL     1     -44.185 -51.101  35.243  0.00  0.00    +0.000 OA
ATOM      3  C   UNL     1     -43.781 -51.837  33.044  0.00  0.00    +0.000 A 
ATOM      4  C   UNL     1     -43.008 -52.686  32.253  0.00  0.00    +0.000 A 
ATOM      5  C   UNL     1     -41.809 -53.497  34.153  0.00  0.00    +0.000 A 
ATOM      6  C   UNL     1     -43.210 -52.710  30.865  0.00  0.00    +0.000 A 
ATOM      7  C   UNL     1     -43.538 -51.823  34.487  0.00  0.00    +0.000 A 
ATOM      8  C   UNL     1     -42.484 -52.716  35.017  0.00  0.00    +0.000 A 
ATOM      9  C   UNL     1     -44.767 -51.032  32.464  0.00  0.00    +0.000 A 
ATOM     10  C   UNL     1     -44.225 -51.931  30.300  0.00  0.00    +0.000 A 
ATOM     11  C   UNL     1     -44.995 -51.084  31.093  0.00  0.00    +0.000 A 
ENDROOT
BRANCH   5  12
ATOM     12  C   UNL     1     -40.737 -54.430  34.557  0.00  0.00    +0.000 A 
ATOM     13  C   UNL     1     -39.475 -53.930  34.899  0.00  0.00    +0.000 A 
ATOM     14  C   UNL     1     -40.957 -55.806  34.676  0.00  0.00    +0.000 A 
ATOM     15  C   UNL     1     -38.455 -54.777  35.326  0.00  0.00    +0.000 A 
ATOM     16  C   UNL     1     -39.944 -56.665  35.100  0.00  0.00    +0.000 A 
ATOM     17  C   UNL     1     -38.699 -56.141  35.422  0.00  0.00    +0.000 A 
BRANCH  17  18
ATOM     18  O   UNL     1     -37.721 -56.998  35.836  0.00  0.00    +0.000 OA
ATOM     19  H   UNL     1     -36.922 -56.476  36.027  0.00  0.00    +0.000 HD
ENDBRANCH  17  18
ENDBRANCH   5  12
BRANCH   6  20
ATOM     20  O   UNL     1     -42.491 -53.554  30.054  0.00  0.00    +0.000 OA
ATOM     21  C   UNL     1     -41.321 -52.929  29.580  0.00  0.00    +0.000 C 
ENDBRANCH   6  20
BRANCH   8  22
ATOM     22  O   UNL     1     -42.278 -52.702  36.383  0.00  0.00    +0.000 OA
ATOM     23  H   UNL     1     -43.115 -52.376  36.775  0.00  0.00    +0.000 HD
ENDBRANCH   8  22
BRANCH   9  24
ATOM     24  O   UNL     1     -45.559 -50.181  33.184  0.00  0.00    +0.000 OA
ATOM     25  H   UNL     1     -45.374 -50.307  34.142  0.00  0.00    +0.000 HD
ENDBRANCH   9  24
BRANCH  10  26
ATOM     26  O   UNL     1     -44.478 -52.011  28.959  0.00  0.00    +0.000 OA
ATOM     27  H   UNL     1     -43.769 -51.545  28.479  0.00  0.00    +0.000 HD
ENDBRANCH  10  26
TORSDOF 6
ENDMDL
MODEL 9
REMARK VINA RESULT:      -6.0     20.143     21.598
REMARK  Name = 5281698_sexangularetin.pdbqt.pdb
REMARK  6 active torsions:
REMARK  status: ('A' for Active; 'I' for Inactive)
REMARK    1  A    between atoms: C_5  and  C_12
REMARK    2  A    between atoms: C_6  and  O_20
REMARK    3  A    between atoms: C_8  and  O_22
REMARK    4  A    between atoms: C_9  and  O_24
REMARK    5  A    between atoms: C_10  and  O_26
REMARK    6  A    between atoms: C_17  and  O_18
REMARK                            x       y       z     vdW  Elec       q    Type
REMARK                         _______ _______ _______ _____ _____    ______ ____
ROOT
ATOM      1  O   UNL     1     -42.977 -53.017  32.218  0.00  0.00    +0.000 OA
ATOM      2  O   UNL     1     -41.769 -52.853  36.082  0.00  0.00    +0.000 OA
ATOM      3  C   UNL     1     -41.528 -53.859  33.967  0.00  0.00    +0.000 A 
ATOM      4  C   UNL     1     -41.997 -53.873  32.654  0.00  0.00    +0.000 A 
ATOM      5  C   UNL     1     -43.576 -52.140  33.115  0.00  0.00    +0.000 A 
ATOM      6  C   UNL     1     -41.442 -54.772  31.733  0.00  0.00    +0.000 A 
ATOM      7  C   UNL     1     -42.137 -52.920  34.911  0.00  0.00    +0.000 A 
ATOM      8  C   UNL     1     -43.214 -52.039  34.408  0.00  0.00    +0.000 A 
ATOM      9  C   UNL     1     -40.495 -54.718  34.359  0.00  0.00    +0.000 A 
ATOM     10  C   UNL     1     -40.382 -55.598  32.124  0.00  0.00    +0.000 A 
ATOM     11  C   UNL     1     -39.917 -55.582  33.436  0.00  0.00    +0.000 A 
ENDROOT
BRANCH   5  12
ATOM     12  C   UNL     1     -44.635 -51.318  32.494  0.00  0.00    +0.000 A 
ATOM     13  C   UNL     1     -44.352 -50.584  31.335  0.00  0.00    +0.000 A 
ATOM     14  C   UNL     1     -45.944 -51.299  32.986  0.00  0.00    +0.000 A 
ATOM     15  C   UNL     1     -45.338 -49.834  30.699  0.00  0.00    +0.000 A 
ATOM     16  C   UNL     1     -46.939 -50.550  32.361  0.00  0.00    +0.000 A 
ATOM     17  C   UNL     1     -46.627 -49.822  31.220  0.00  0.00    +0.000 A 
BRANCH  17  18
ATOM     18  O   UNL     1     -47.615 -49.097  30.621  0.00  0.00    +0.000 OA
ATOM     19  H   UNL     1     -47.244 -48.679  29.824  0.00  0.00    +0.000 HD
ENDBRANCH  17  18
ENDBRANCH   5  12
BRANCH   6  20
ATOM     20  O   UNL     1     -41.854 -54.795  30.423  0.00  0.00    +0.000 OA
ATOM     21  C   UNL     1     -42.901 -55.719  30.236  0.00  0.00    +0.000 C 
ENDBRANCH   6  20
BRANCH   8  22
ATOM     22  O   UNL     1     -43.768 -51.148  35.308  0.00  0.00    +0.000 OA
ATOM     23  H   UNL     1     -44.026 -51.684  36.087  0.00  0.00    +0.000 HD
ENDBRANCH   8  22
BRANCH   9  24
ATOM     24  O   UNL     1     -39.990 -54.751  35.630  0.00  0.00    +0.000 OA
ATOM     25  H   UNL     1     -39.617 -55.646  35.801  0.00  0.00    +0.000 HD
ENDBRANCH   9  24
BRANCH  10  26
ATOM     26  O   UNL     1     -39.785 -56.418  31.208  0.00  0.00    +0.000 OA
ATOM     27  H   UNL     1     -38.870 -56.592  31.496  0.00  0.00    +0.000 HD
ENDBRANCH  10  26
TORSDOF 6
ENDMDL
