MODEL 1
REMARK VINA RESULT:      -7.0      0.000      0.000
REMARK  Name = 5289155_Peridinin.pdbqt.pdb
REMARK  13 active torsions:
REMARK  status: ('A' for Active; 'I' for Inactive)
REMARK    1  A    between atoms: C_1  and  C_3
REMARK    2  A    between atoms: C_3  and  C_25
REMARK    3  A    between atoms: C_6  and  C_12
REMARK    4  A    between atoms: C_11  and  C_14
REMARK    5  A    between atoms: C_19  and  O_23
REMARK    6  A    between atoms: C_26  and  C_28
REMARK    7  A    between atoms: C_27  and  C_31
REMARK    8  A    between atoms: C_29  and  C_31
REMARK    9  A    between atoms: C_29  and  C_42
REMARK   10  A    between atoms: C_33  and  O_43
REMARK   11  A    between atoms: C_35  and  O_45
REMARK   12  A    between atoms: C_37  and  C_41
REMARK   13  A    between atoms: O_45  and  C_47
REMARK                            x       y       z     vdW  Elec       q    Type
REMARK                         _______ _______ _______ _____ _____    ______ ____
ROOT
ATOM      1  C   UNL     1     -44.541 -65.723  22.425  0.00  0.00    +0.000 C 
ENDROOT
BRANCH   1   2
ATOM      2  C   UNL     1     -44.684 -66.582  23.384  0.00  0.00    +0.000 C 
ATOM      3  C   UNL     1     -44.640 -68.051  23.092  0.00  0.00    +0.000 C 
ATOM      4  O   UNL     1     -45.566 -64.492  26.185  0.00  0.00    +0.000 OA
ATOM      5  O   UNL     1     -46.451 -63.678  28.166  0.00  0.00    +0.000 OA
ATOM      6  C   UNL     1     -45.571 -65.923  28.019  0.00  0.00    +0.000 C 
ATOM      7  C   UNL     1     -45.037 -66.569  27.047  0.00  0.00    +0.000 C 
ATOM      8  C   UNL     1     -45.926 -64.571  27.526  0.00  0.00    +0.000 C 
ATOM      9  C   UNL     1     -44.986 -65.733  25.935  0.00  0.00    +0.000 C 
ATOM     10  C   UNL     1     -44.843 -66.137  24.715  0.00  0.00    +0.000 C 
BRANCH   6  12
ATOM     11  C   UNL     1     -45.965 -66.904  30.404  0.00  0.00    +0.000 C 
ATOM     12  C   UNL     1     -45.779 -66.456  29.305  0.00  0.00    +0.000 C 
BRANCH  11  14
ATOM     13  O   UNL     1     -47.476 -66.967  32.246  0.00  0.00    +0.000 OA
ATOM     14  C   UNL     1     -46.194 -67.438  31.737  0.00  0.00    +0.000 C 
ATOM     15  C   UNL     1     -47.402 -68.366  31.983  0.00  0.00    +0.000 C 
ATOM     16  C   UNL     1     -45.009 -67.484  32.764  0.00  0.00    +0.000 C 
ATOM     17  C   UNL     1     -47.397 -69.142  33.182  0.00  0.00    +0.000 C 
ATOM     18  C   UNL     1     -45.439 -68.334  33.878  0.00  0.00    +0.000 C 
ATOM     19  C   UNL     1     -46.482 -69.205  34.247  0.00  0.00    +0.000 C 
ATOM     20  C   UNL     1     -48.349 -68.832  30.873  0.00  0.00    +0.000 C 
ATOM     21  C   UNL     1     -43.823 -68.135  32.004  0.00  0.00    +0.000 C 
ATOM     22  C   UNL     1     -44.725 -66.024  33.176  0.00  0.00    +0.000 C 
BRANCH  19  23
ATOM     23  O   UNL     1     -46.238 -70.352  34.940  0.00  0.00    +0.000 OA
ATOM     24  H   UNL     1     -45.606 -70.935  34.483  0.00  0.00    +0.000 HD
ENDBRANCH  19  23
ENDBRANCH  11  14
ENDBRANCH   6  12
ENDBRANCH   1   2
BRANCH   1  25
ATOM     25  C   UNL     1     -44.374 -64.706  21.289  0.00  0.00    +0.000 C 
ATOM     26  C   UNL     1     -44.248 -63.910  20.400  0.00  0.00    +0.000 C 
BRANCH  26  28
ATOM     27  C   UNL     1     -43.971 -62.098  18.375  0.00  0.00    +0.000 C 
ATOM     28  C   UNL     1     -44.095 -62.892  19.266  0.00  0.00    +0.000 C 
BRANCH  27  29
ATOM     29  C   UNL     1     -43.806 -61.086  17.235  0.00  0.00    +0.000 C 
BRANCH  29  30
ATOM     30  C   UNL     1     -43.664 -60.223  16.280  0.00  0.00    +0.000 C 
ATOM     31  C   UNL     1     -43.005 -60.619  14.993  0.00  0.00    +0.000 C 
BRANCH  30  33
ATOM     32  C   UNL     1     -44.437 -57.744  16.632  0.00  0.00    +0.000 C 
ATOM     33  C   UNL     1     -44.084 -58.882  16.470  0.00  0.00    +0.000 C 
BRANCH  32  39
ATOM     34  C   UNL     1     -44.594 -55.407  15.738  0.00  0.00    +0.000 C 
ATOM     35  C   UNL     1     -45.470 -56.046  18.103  0.00  0.00    +0.000 C 
ATOM     36  C   UNL     1     -45.377 -54.200  16.035  0.00  0.00    +0.000 C 
ATOM     37  C   UNL     1     -46.209 -53.690  17.053  0.00  0.00    +0.000 C 
ATOM     38  C   UNL     1     -46.133 -54.752  17.977  0.00  0.00    +0.000 C 
ATOM     39  C   UNL     1     -44.823 -56.495  16.803  0.00  0.00    +0.000 C 
ATOM     40  C   UNL     1     -45.053 -55.948  14.349  0.00  0.00    +0.000 C 
ATOM     41  C   UNL     1     -43.082 -55.061  15.699  0.00  0.00    +0.000 C 
ATOM     42  C   UNL     1     -44.454 -56.043  19.249  0.00  0.00    +0.000 C 
BRANCH  35  43
ATOM     43  O   UNL     1     -46.447 -56.990  18.485  0.00  0.00    +0.000 OA
ATOM     44  H   UNL     1     -46.434 -57.599  17.723  0.00  0.00    +0.000 HD
ENDBRANCH  35  43
BRANCH  37  45
ATOM     45  O   UNL     1     -46.035 -52.378  17.474  0.00  0.00    +0.000 OA
BRANCH  45  47
ATOM     46  O   UNL     1     -47.728 -51.283  18.674  0.00  0.00    +0.000 OA
ATOM     47  C   UNL     1     -47.242 -51.796  17.683  0.00  0.00    +0.000 C 
ATOM     48  C   UNL     1     -48.133 -51.797  16.491  0.00  0.00    +0.000 C 
ENDBRANCH  45  47
ENDBRANCH  37  45
ENDBRANCH  32  39
ENDBRANCH  30  33
ENDBRANCH  29  30
ENDBRANCH  27  29
ENDBRANCH  26  28
ENDBRANCH   1  25
TORSDOF 13
ENDMDL
MODEL 2
REMARK VINA RESULT:      -6.8     15.596     24.463
REMARK  Name = 5289155_Peridinin.pdbqt.pdb
REMARK  13 active torsions:
REMARK  status: ('A' for Active; 'I' for Inactive)
REMARK    1  A    between atoms: C_1  and  C_3
REMARK    2  A    between atoms: C_3  and  C_25
REMARK    3  A    between atoms: C_6  and  C_12
REMARK    4  A    between atoms: C_11  and  C_14
REMARK    5  A    between atoms: C_19  and  O_23
REMARK    6  A    between atoms: C_26  and  C_28
REMARK    7  A    between atoms: C_27  and  C_31
REMARK    8  A    between atoms: C_29  and  C_31
REMARK    9  A    between atoms: C_29  and  C_42
REMARK   10  A    between atoms: C_33  and  O_43
REMARK   11  A    between atoms: C_35  and  O_45
REMARK   12  A    between atoms: C_37  and  C_41
REMARK   13  A    between atoms: O_45  and  C_47
REMARK                            x       y       z     vdW  Elec       q    Type
REMARK                         _______ _______ _______ _____ _____    ______ ____
ROOT
ATOM      1  C   UNL     1     -37.032 -56.694  35.916  0.00  0.00    +0.000 C 
ENDROOT
BRANCH   1   2
ATOM      2  C   UNL     1     -37.401 -55.881  34.976  0.00  0.00    +0.000 C 
ATOM      3  C   UNL     1     -36.379 -55.245  34.086  0.00  0.00    +0.000 C 
ATOM      4  O   UNL     1     -40.923 -55.474  35.630  0.00  0.00    +0.000 OA
ATOM      5  O   UNL     1     -43.077 -54.634  35.791  0.00  0.00    +0.000 OA
ATOM      6  C   UNL     1     -41.727 -54.246  33.826  0.00  0.00    +0.000 C 
ATOM      7  C   UNL     1     -40.536 -54.614  33.522  0.00  0.00    +0.000 C 
ATOM      8  C   UNL     1     -42.038 -54.779  35.173  0.00  0.00    +0.000 C 
ATOM      9  C   UNL     1     -40.029 -55.381  34.568  0.00  0.00    +0.000 C 
ATOM     10  C   UNL     1     -38.774 -55.620  34.765  0.00  0.00    +0.000 C 
BRANCH   6  12
ATOM     11  C   UNL     1     -43.243 -52.786  32.284  0.00  0.00    +0.000 C 
ATOM     12  C   UNL     1     -42.548 -53.458  32.998  0.00  0.00    +0.000 C 
BRANCH  11  14
ATOM     13  O   UNL     1     -45.407 -52.552  31.312  0.00  0.00    +0.000 OA
ATOM     14  C   UNL     1     -44.075 -51.970  31.414  0.00  0.00    +0.000 C 
ATOM     15  C   UNL     1     -45.340 -51.299  31.989  0.00  0.00    +0.000 C 
ATOM     16  C   UNL     1     -43.465 -51.383  30.094  0.00  0.00    +0.000 C 
ATOM     17  C   UNL     1     -45.923 -50.242  31.226  0.00  0.00    +0.000 C 
ATOM     18  C   UNL     1     -44.407 -50.375  29.597  0.00  0.00    +0.000 C 
ATOM     19  C   UNL     1     -45.573 -49.688  29.982  0.00  0.00    +0.000 C 
ATOM     20  C   UNL     1     -45.742 -51.377  33.465  0.00  0.00    +0.000 C 
ATOM     21  C   UNL     1     -42.124 -50.722  30.509  0.00  0.00    +0.000 C 
ATOM     22  C   UNL     1     -43.271 -52.574  29.130  0.00  0.00    +0.000 C 
BRANCH  19  23
ATOM     23  O   UNL     1     -45.752 -48.370  29.688  0.00  0.00    +0.000 OA
ATOM     24  H   UNL     1     -46.404 -47.944  30.273  0.00  0.00    +0.000 HD
ENDBRANCH  19  23
ENDBRANCH  11  14
ENDBRANCH   6  12
ENDBRANCH   1   2
BRANCH   1  25
ATOM     25  C   UNL     1     -36.596 -57.656  37.026  0.00  0.00    +0.000 C 
ATOM     26  C   UNL     1     -36.252 -58.412  37.892  0.00  0.00    +0.000 C 
BRANCH  26  28
ATOM     27  C   UNL     1     -35.463 -60.137  39.857  0.00  0.00    +0.000 C 
ATOM     28  C   UNL     1     -35.807 -59.381  38.992  0.00  0.00    +0.000 C 
BRANCH  27  29
ATOM     29  C   UNL     1     -35.025 -61.100  40.968  0.00  0.00    +0.000 C 
BRANCH  29  30
ATOM     30  C   UNL     1     -34.659 -61.921  41.901  0.00  0.00    +0.000 C 
ATOM     31  C   UNL     1     -34.984 -63.380  41.795  0.00  0.00    +0.000 C 
BRANCH  30  33
ATOM     32  C   UNL     1     -33.430 -61.015  44.030  0.00  0.00    +0.000 C 
ATOM     33  C   UNL     1     -33.995 -61.431  43.054  0.00  0.00    +0.000 C 
BRANCH  32  39
ATOM     34  C   UNL     1     -31.306 -60.774  45.338  0.00  0.00    +0.000 C 
ATOM     35  C   UNL     1     -33.571 -59.820  46.191  0.00  0.00    +0.000 C 
ATOM     36  C   UNL     1     -30.808 -59.913  46.420  0.00  0.00    +0.000 C 
ATOM     37  C   UNL     1     -31.306 -59.005  47.377  0.00  0.00    +0.000 C 
ATOM     38  C   UNL     1     -32.685 -59.094  47.095  0.00  0.00    +0.000 C 
ATOM     39  C   UNL     1     -32.810 -60.554  45.098  0.00  0.00    +0.000 C 
ATOM     40  C   UNL     1     -30.523 -60.414  44.038  0.00  0.00    +0.000 C 
ATOM     41  C   UNL     1     -31.075 -62.265  45.701  0.00  0.00    +0.000 C 
ATOM     42  C   UNL     1     -34.488 -60.777  46.958  0.00  0.00    +0.000 C 
BRANCH  35  43
ATOM     43  O   UNL     1     -34.439 -58.879  45.599  0.00  0.00    +0.000 OA
ATOM     44  H   UNL     1     -35.303 -59.319  45.708  0.00  0.00    +0.000 HD
ENDBRANCH  35  43
BRANCH  37  45
ATOM     45  O   UNL     1     -30.850 -59.086  48.686  0.00  0.00    +0.000 OA
BRANCH  45  47
ATOM     46  O   UNL     1     -29.762 -57.021  48.447  0.00  0.00    +0.000 OA
ATOM     47  C   UNL     1     -29.903 -58.140  48.905  0.00  0.00    +0.000 C 
ATOM     48  C   UNL     1     -28.844 -58.548  49.867  0.00  0.00    +0.000 C 
ENDBRANCH  45  47
ENDBRANCH  37  45
ENDBRANCH  32  39
ENDBRANCH  30  33
ENDBRANCH  29  30
ENDBRANCH  27  29
ENDBRANCH  26  28
ENDBRANCH   1  25
TORSDOF 13
ENDMDL
MODEL 3
REMARK VINA RESULT:      -6.7     14.817     27.986
REMARK  Name = 5289155_Peridinin.pdbqt.pdb
REMARK  13 active torsions:
REMARK  status: ('A' for Active; 'I' for Inactive)
REMARK    1  A    between atoms: C_1  and  C_3
REMARK    2  A    between atoms: C_3  and  C_25
REMARK    3  A    between atoms: C_6  and  C_12
REMARK    4  A    between atoms: C_11  and  C_14
REMARK    5  A    between atoms: C_19  and  O_23
REMARK    6  A    between atoms: C_26  and  C_28
REMARK    7  A    between atoms: C_27  and  C_31
REMARK    8  A    between atoms: C_29  and  C_31
REMARK    9  A    between atoms: C_29  and  C_42
REMARK   10  A    between atoms: C_33  and  O_43
REMARK   11  A    between atoms: C_35  and  O_45
REMARK   12  A    between atoms: C_37  and  C_41
REMARK   13  A    between atoms: O_45  and  C_47
REMARK                            x       y       z     vdW  Elec       q    Type
REMARK                         _______ _______ _______ _____ _____    ______ ____
ROOT
ATOM      1  C   UNL     1     -40.176 -69.132  41.687  0.00  0.00    +0.000 C 
ENDROOT
BRANCH   1   2
ATOM      2  C   UNL     1     -40.430 -68.492  40.589  0.00  0.00    +0.000 C 
ATOM      3  C   UNL     1     -39.583 -68.716  39.375  0.00  0.00    +0.000 C 
ATOM      4  O   UNL     1     -42.983 -66.163  41.612  0.00  0.00    +0.000 OA
ATOM      5  O   UNL     1     -44.362 -64.309  41.802  0.00  0.00    +0.000 OA
ATOM      6  C   UNL     1     -43.699 -65.158  39.639  0.00  0.00    +0.000 C 
ATOM      7  C   UNL     1     -42.964 -66.154  39.302  0.00  0.00    +0.000 C 
ATOM      8  C   UNL     1     -43.757 -65.117  41.120  0.00  0.00    +0.000 C 
ATOM      9  C   UNL     1     -42.540 -66.803  40.459  0.00  0.00    +0.000 C 
ATOM     10  C   UNL     1     -41.531 -67.610  40.523  0.00  0.00    +0.000 C 
BRANCH   6  12
ATOM     11  C   UNL     1     -44.832 -63.531  37.944  0.00  0.00    +0.000 C 
ATOM     12  C   UNL     1     -44.307 -64.277  38.726  0.00  0.00    +0.000 C 
BRANCH  11  14
ATOM     13  O   UNL     1     -46.516 -63.349  36.267  0.00  0.00    +0.000 OA
ATOM     14  C   UNL     1     -45.473 -62.637  36.994  0.00  0.00    +0.000 C 
ATOM     15  C   UNL     1     -46.978 -62.325  37.144  0.00  0.00    +0.000 C 
ATOM     16  C   UNL     1     -44.595 -61.641  36.158  0.00  0.00    +0.000 C 
ATOM     17  C   UNL     1     -47.485 -61.195  36.434  0.00  0.00    +0.000 C 
ATOM     18  C   UNL     1     -45.510 -60.678  35.538  0.00  0.00    +0.000 C 
ATOM     19  C   UNL     1     -46.862 -60.287  35.559  0.00  0.00    +0.000 C 
ATOM     20  C   UNL     1     -47.837 -62.847  38.299  0.00  0.00    +0.000 C 
ATOM     21  C   UNL     1     -43.671 -60.934  37.186  0.00  0.00    +0.000 C 
ATOM     22  C   UNL     1     -43.811 -62.493  35.138  0.00  0.00    +0.000 C 
BRANCH  19  23
ATOM     23  O   UNL     1     -47.225 -58.976  35.480  0.00  0.00    +0.000 OA
ATOM     24  H   UNL     1     -47.932 -58.748  36.109  0.00  0.00    +0.000 HD
ENDBRANCH  19  23
ENDBRANCH  11  14
ENDBRANCH   6  12
ENDBRANCH   1   2
BRANCH   1  25
ATOM     25  C   UNL     1     -39.875 -69.889  42.986  0.00  0.00    +0.000 C 
ATOM     26  C   UNL     1     -39.636 -70.477  44.004  0.00  0.00    +0.000 C 
BRANCH  26  28
ATOM     27  C   UNL     1     -39.078 -71.805  46.325  0.00  0.00    +0.000 C 
ATOM     28  C   UNL     1     -39.326 -71.223  45.306  0.00  0.00    +0.000 C 
BRANCH  27  29
ATOM     29  C   UNL     1     -38.753 -72.551  47.625  0.00  0.00    +0.000 C 
BRANCH  29  30
ATOM     30  C   UNL     1     -38.468 -73.179  48.722  0.00  0.00    +0.000 C 
ATOM     31  C   UNL     1     -39.160 -74.464  49.061  0.00  0.00    +0.000 C 
BRANCH  30  33
ATOM     32  C   UNL     1     -36.749 -72.144  50.407  0.00  0.00    +0.000 C 
ATOM     33  C   UNL     1     -37.537 -72.620  49.634  0.00  0.00    +0.000 C 
BRANCH  32  39
ATOM     34  C   UNL     1     -34.900 -70.513  50.855  0.00  0.00    +0.000 C 
ATOM     35  C   UNL     1     -35.792 -72.129  52.688  0.00  0.00    +0.000 C 
ATOM     36  C   UNL     1     -34.280 -69.897  52.037  0.00  0.00    +0.000 C 
ATOM     37  C   UNL     1     -34.243 -70.070  53.436  0.00  0.00    +0.000 C 
ATOM     38  C   UNL     1     -35.056 -71.216  53.555  0.00  0.00    +0.000 C 
ATOM     39  C   UNL     1     -35.890 -71.620  51.258  0.00  0.00    +0.000 C 
ATOM     40  C   UNL     1     -35.667 -69.399  50.079  0.00  0.00    +0.000 C 
ATOM     41  C   UNL     1     -33.805 -71.134  49.947  0.00  0.00    +0.000 C 
ATOM     42  C   UNL     1     -35.194 -73.539  52.727  0.00  0.00    +0.000 C 
BRANCH  35  43
ATOM     43  O   UNL     1     -37.091 -72.269  53.220  0.00  0.00    +0.000 OA
ATOM     44  H   UNL     1     -37.606 -71.693  52.625  0.00  0.00    +0.000 HD
ENDBRANCH  35  43
BRANCH  37  45
ATOM     45  O   UNL     1     -33.020 -70.004  54.092  0.00  0.00    +0.000 OA
BRANCH  45  47
ATOM     46  O   UNL     1     -33.019 -69.927  56.436  0.00  0.00    +0.000 OA
ATOM     47  C   UNL     1     -33.186 -69.463  55.324  0.00  0.00    +0.000 C 
ATOM     48  C   UNL     1     -33.670 -68.056  55.310  0.00  0.00    +0.000 C 
ENDBRANCH  45  47
ENDBRANCH  37  45
ENDBRANCH  32  39
ENDBRANCH  30  33
ENDBRANCH  29  30
ENDBRANCH  27  29
ENDBRANCH  26  28
ENDBRANCH   1  25
TORSDOF 13
ENDMDL
MODEL 4
REMARK VINA RESULT:      -6.6     23.309     34.648
REMARK  Name = 5289155_Peridinin.pdbqt.pdb
REMARK  13 active torsions:
REMARK  status: ('A' for Active; 'I' for Inactive)
REMARK    1  A    between atoms: C_1  and  C_3
REMARK    2  A    between atoms: C_3  and  C_25
REMARK    3  A    between atoms: C_6  and  C_12
REMARK    4  A    between atoms: C_11  and  C_14
REMARK    5  A    between atoms: C_19  and  O_23
REMARK    6  A    between atoms: C_26  and  C_28
REMARK    7  A    between atoms: C_27  and  C_31
REMARK    8  A    between atoms: C_29  and  C_31
REMARK    9  A    between atoms: C_29  and  C_42
REMARK   10  A    between atoms: C_33  and  O_43
REMARK   11  A    between atoms: C_35  and  O_45
REMARK   12  A    between atoms: C_37  and  C_41
REMARK   13  A    between atoms: O_45  and  C_47
REMARK                            x       y       z     vdW  Elec       q    Type
REMARK                         _______ _______ _______ _____ _____    ______ ____
ROOT
ATOM      1  C   UNL     1     -44.552 -74.717  48.905  0.00  0.00    +0.000 C 
ENDROOT
BRANCH   1   2
ATOM      2  C   UNL     1     -45.335 -74.378  47.930  0.00  0.00    +0.000 C 
ATOM      3  C   UNL     1     -46.022 -73.047  47.944  0.00  0.00    +0.000 C 
ATOM      4  O   UNL     1     -45.543 -77.414  45.998  0.00  0.00    +0.000 OA
ATOM      5  O   UNL     1     -46.259 -79.131  44.615  0.00  0.00    +0.000 OA
ATOM      6  C   UNL     1     -46.709 -76.819  44.075  0.00  0.00    +0.000 C 
ATOM      7  C   UNL     1     -46.408 -75.728  44.678  0.00  0.00    +0.000 C 
ATOM      8  C   UNL     1     -46.169 -77.944  44.875  0.00  0.00    +0.000 C 
ATOM      9  C   UNL     1     -45.679 -76.040  45.823  0.00  0.00    +0.000 C 
ATOM     10  C   UNL     1     -45.515 -75.248  46.831  0.00  0.00    +0.000 C 
BRANCH   6  12
ATOM     11  C   UNL     1     -48.072 -76.935  41.854  0.00  0.00    +0.000 C 
ATOM     12  C   UNL     1     -47.441 -76.886  42.876  0.00  0.00    +0.000 C 
BRANCH  11  14
ATOM     13  O   UNL     1     -47.949 -77.127  39.481  0.00  0.00    +0.000 OA
ATOM     14  C   UNL     1     -48.844 -76.988  40.623  0.00  0.00    +0.000 C 
ATOM     15  C   UNL     1     -48.780 -78.255  39.744  0.00  0.00    +0.000 C 
ATOM     16  C   UNL     1     -50.069 -76.026  40.438  0.00  0.00    +0.000 C 
ATOM     17  C   UNL     1     -49.798 -78.417  38.756  0.00  0.00    +0.000 C 
ATOM     18  C   UNL     1     -50.822 -76.507  39.276  0.00  0.00    +0.000 C 
ATOM     19  C   UNL     1     -50.878 -77.597  38.387  0.00  0.00    +0.000 C 
ATOM     20  C   UNL     1     -47.999 -79.514  40.133  0.00  0.00    +0.000 C 
ATOM     21  C   UNL     1     -50.911 -76.166  41.734  0.00  0.00    +0.000 C 
ATOM     22  C   UNL     1     -49.490 -74.606  40.253  0.00  0.00    +0.000 C 
BRANCH  19  23
ATOM     23  O   UNL     1     -52.068 -78.099  37.953  0.00  0.00    +0.000 OA
ATOM     24  H   UNL     1     -52.712 -77.399  37.743  0.00  0.00    +0.000 HD
ENDBRANCH  19  23
ENDBRANCH  11  14
ENDBRANCH   6  12
ENDBRANCH   1   2
BRANCH   1  25
ATOM     25  C   UNL     1     -43.625 -75.118  50.058  0.00  0.00    +0.000 C 
ATOM     26  C   UNL     1     -42.900 -75.427  50.963  0.00  0.00    +0.000 C 
BRANCH  26  28
ATOM     27  C   UNL     1     -41.256 -76.115  53.033  0.00  0.00    +0.000 C 
ATOM     28  C   UNL     1     -41.976 -75.814  52.122  0.00  0.00    +0.000 C 
BRANCH  27  29
ATOM     29  C   UNL     1     -40.339 -76.495  54.202  0.00  0.00    +0.000 C 
BRANCH  29  30
ATOM     30  C   UNL     1     -39.556 -76.813  55.184  0.00  0.00    +0.000 C 
ATOM     31  C   UNL     1     -38.242 -77.483  54.918  0.00  0.00    +0.000 C 
BRANCH  30  33
ATOM     32  C   UNL     1     -40.316 -76.378  57.654  0.00  0.00    +0.000 C 
ATOM     33  C   UNL     1     -39.967 -76.576  56.521  0.00  0.00    +0.000 C 
BRANCH  32  39
ATOM     34  C   UNL     1     -39.738 -75.627  59.974  0.00  0.00    +0.000 C 
ATOM     35  C   UNL     1     -42.108 -76.502  59.354  0.00  0.00    +0.000 C 
ATOM     36  C   UNL     1     -40.472 -75.194  61.172  0.00  0.00    +0.000 C 
ATOM     37  C   UNL     1     -41.786 -75.205  61.681  0.00  0.00    +0.000 C 
ATOM     38  C   UNL     1     -42.441 -75.885  60.634  0.00  0.00    +0.000 C 
ATOM     39  C   UNL     1     -40.697 -76.166  58.898  0.00  0.00    +0.000 C 
ATOM     40  C   UNL     1     -38.974 -74.392  59.405  0.00  0.00    +0.000 C 
ATOM     41  C   UNL     1     -38.731 -76.747  60.347  0.00  0.00    +0.000 C 
ATOM     42  C   UNL     1     -42.325 -78.018  59.392  0.00  0.00    +0.000 C 
BRANCH  35  43
ATOM     43  O   UNL     1     -43.030 -76.026  58.398  0.00  0.00    +0.000 OA
ATOM     44  H   UNL     1     -43.802 -75.823  58.959  0.00  0.00    +0.000 HD
ENDBRANCH  35  43
BRANCH  37  45
ATOM     45  O   UNL     1     -41.996 -75.579  63.002  0.00  0.00    +0.000 OA
BRANCH  45  47
ATOM     46  O   UNL     1     -42.564 -74.333  64.906  0.00  0.00    +0.000 OA
ATOM     47  C   UNL     1     -42.129 -74.476  63.779  0.00  0.00    +0.000 C 
ATOM     48  C   UNL     1     -41.673 -73.217  63.131  0.00  0.00    +0.000 C 
ENDBRANCH  45  47
ENDBRANCH  37  45
ENDBRANCH  32  39
ENDBRANCH  30  33
ENDBRANCH  29  30
ENDBRANCH  27  29
ENDBRANCH  26  28
ENDBRANCH   1  25
TORSDOF 13
ENDMDL
MODEL 5
REMARK VINA RESULT:      -6.6     11.666     26.280
REMARK  Name = 5289155_Peridinin.pdbqt.pdb
REMARK  13 active torsions:
REMARK  status: ('A' for Active; 'I' for Inactive)
REMARK    1  A    between atoms: C_1  and  C_3
REMARK    2  A    between atoms: C_3  and  C_25
REMARK    3  A    between atoms: C_6  and  C_12
REMARK    4  A    between atoms: C_11  and  C_14
REMARK    5  A    between atoms: C_19  and  O_23
REMARK    6  A    between atoms: C_26  and  C_28
REMARK    7  A    between atoms: C_27  and  C_31
REMARK    8  A    between atoms: C_29  and  C_31
REMARK    9  A    between atoms: C_29  and  C_42
REMARK   10  A    between atoms: C_33  and  O_43
REMARK   11  A    between atoms: C_35  and  O_45
REMARK   12  A    between atoms: C_37  and  C_41
REMARK   13  A    between atoms: O_45  and  C_47
REMARK                            x       y       z     vdW  Elec       q    Type
REMARK                         _______ _______ _______ _____ _____    ______ ____
ROOT
ATOM      1  C   UNL     1     -43.541 -67.760  40.553  0.00  0.00    +0.000 C 
ENDROOT
BRANCH   1   2
ATOM      2  C   UNL     1     -44.302 -67.183  39.677  0.00  0.00    +0.000 C 
ATOM      3  C   UNL     1     -45.277 -66.129  40.105  0.00  0.00    +0.000 C 
ATOM      4  O   UNL     1     -43.649 -69.092  36.691  0.00  0.00    +0.000 OA
ATOM      5  O   UNL     1     -43.837 -70.154  34.639  0.00  0.00    +0.000 OA
ATOM      6  C   UNL     1     -44.766 -67.953  34.998  0.00  0.00    +0.000 C 
ATOM      7  C   UNL     1     -44.774 -67.188  36.027  0.00  0.00    +0.000 C 
ATOM      8  C   UNL     1     -44.045 -69.196  35.361  0.00  0.00    +0.000 C 
ATOM      9  C   UNL     1     -44.085 -67.823  37.057  0.00  0.00    +0.000 C 
ATOM     10  C   UNL     1     -44.188 -67.519  38.310  0.00  0.00    +0.000 C 
BRANCH   6  12
ATOM     11  C   UNL     1     -45.882 -67.367  32.714  0.00  0.00    +0.000 C 
ATOM     12  C   UNL     1     -45.366 -67.632  33.767  0.00  0.00    +0.000 C 
BRANCH  11  14
ATOM     13  O   UNL     1     -47.438 -65.950  31.596  0.00  0.00    +0.000 OA
ATOM     14  C   UNL     1     -46.506 -67.058  31.437  0.00  0.00    +0.000 C 
ATOM     15  C   UNL     1     -46.286 -65.667  30.806  0.00  0.00    +0.000 C 
ATOM     16  C   UNL     1     -46.964 -68.228  30.499  0.00  0.00    +0.000 C 
ATOM     17  C   UNL     1     -46.604 -65.521  29.421  0.00  0.00    +0.000 C 
ATOM     18  C   UNL     1     -47.258 -67.639  29.189  0.00  0.00    +0.000 C 
ATOM     19  C   UNL     1     -47.132 -66.427  28.485  0.00  0.00    +0.000 C 
ATOM     20  C   UNL     1     -45.373 -64.598  31.413  0.00  0.00    +0.000 C 
ATOM     21  C   UNL     1     -45.751 -69.191  30.408  0.00  0.00    +0.000 C 
ATOM     22  C   UNL     1     -48.193 -68.878  31.173  0.00  0.00    +0.000 C 
BRANCH  19  23
ATOM     23  O   UNL     1     -46.793 -66.403  27.166  0.00  0.00    +0.000 OA
ATOM     24  H   UNL     1     -47.571 -66.335  26.584  0.00  0.00    +0.000 HD
ENDBRANCH  19  23
ENDBRANCH  11  14
ENDBRANCH   6  12
ENDBRANCH   1   2
BRANCH   1  25
ATOM     25  C   UNL     1     -42.640 -68.443  41.588  0.00  0.00    +0.000 C 
ATOM     26  C   UNL     1     -41.930 -68.977  42.395  0.00  0.00    +0.000 C 
BRANCH  26  28
ATOM     27  C   UNL     1     -40.306 -70.188  44.227  0.00  0.00    +0.000 C 
ATOM     28  C   UNL     1     -41.018 -69.658  43.420  0.00  0.00    +0.000 C 
BRANCH  27  29
ATOM     29  C   UNL     1     -39.395 -70.859  45.262  0.00  0.00    +0.000 C 
BRANCH  29  30
ATOM     30  C   UNL     1     -38.622 -71.416  46.140  0.00  0.00    +0.000 C 
ATOM     31  C   UNL     1     -37.144 -71.165  46.116  0.00  0.00    +0.000 C 
BRANCH  30  33
ATOM     32  C   UNL     1     -39.627 -73.071  47.906  0.00  0.00    +0.000 C 
ATOM     33  C   UNL     1     -39.167 -72.311  47.096  0.00  0.00    +0.000 C 
BRANCH  32  39
ATOM     34  C   UNL     1     -39.294 -74.458  49.966  0.00  0.00    +0.000 C 
ATOM     35  C   UNL     1     -41.558 -74.404  48.687  0.00  0.00    +0.000 C 
ATOM     36  C   UNL     1     -40.151 -75.101  50.973  0.00  0.00    +0.000 C 
ATOM     37  C   UNL     1     -41.504 -75.449  51.158  0.00  0.00    +0.000 C 
ATOM     38  C   UNL     1     -42.032 -75.016  49.924  0.00  0.00    +0.000 C 
ATOM     39  C   UNL     1     -40.128 -73.901  48.799  0.00  0.00    +0.000 C 
ATOM     40  C   UNL     1     -38.536 -73.284  50.659  0.00  0.00    +0.000 C 
ATOM     41  C   UNL     1     -38.277 -75.487  49.403  0.00  0.00    +0.000 C 
ATOM     42  C   UNL     1     -41.712 -75.358  47.498  0.00  0.00    +0.000 C 
BRANCH  35  43
ATOM     43  O   UNL     1     -42.409 -73.318  48.395  0.00  0.00    +0.000 OA
ATOM     44  H   UNL     1     -43.266 -73.770  48.280  0.00  0.00    +0.000 HD
ENDBRANCH  35  43
BRANCH  37  45
ATOM     45  O   UNL     1     -41.816 -76.710  51.651  0.00  0.00    +0.000 OA
BRANCH  45  47
ATOM     46  O   UNL     1     -42.285 -76.378  53.926  0.00  0.00    +0.000 OA
ATOM     47  C   UNL     1     -42.580 -76.593  52.765  0.00  0.00    +0.000 C 
ATOM     48  C   UNL     1     -44.038 -76.772  52.524  0.00  0.00    +0.000 C 
ENDBRANCH  45  47
ENDBRANCH  37  45
ENDBRANCH  32  39
ENDBRANCH  30  33
ENDBRANCH  29  30
ENDBRANCH  27  29
ENDBRANCH  26  28
ENDBRANCH   1  25
TORSDOF 13
ENDMDL
MODEL 6
REMARK VINA RESULT:      -6.5     26.908     38.431
REMARK  Name = 5289155_Peridinin.pdbqt.pdb
REMARK  13 active torsions:
REMARK  status: ('A' for Active; 'I' for Inactive)
REMARK    1  A    between atoms: C_1  and  C_3
REMARK    2  A    between atoms: C_3  and  C_25
REMARK    3  A    between atoms: C_6  and  C_12
REMARK    4  A    between atoms: C_11  and  C_14
REMARK    5  A    between atoms: C_19  and  O_23
REMARK    6  A    between atoms: C_26  and  C_28
REMARK    7  A    between atoms: C_27  and  C_31
REMARK    8  A    between atoms: C_29  and  C_31
REMARK    9  A    between atoms: C_29  and  C_42
REMARK   10  A    between atoms: C_33  and  O_43
REMARK   11  A    between atoms: C_35  and  O_45
REMARK   12  A    between atoms: C_37  and  C_41
REMARK   13  A    between atoms: O_45  and  C_47
REMARK                            x       y       z     vdW  Elec       q    Type
REMARK                         _______ _______ _______ _____ _____    ______ ____
ROOT
ATOM      1  C   UNL     1     -32.702 -67.172  54.334  0.00  0.00    +0.000 C 
ENDROOT
BRANCH   1   2
ATOM      2  C   UNL     1     -32.975 -67.276  53.072  0.00  0.00    +0.000 C 
ATOM      3  C   UNL     1     -32.460 -66.256  52.104  0.00  0.00    +0.000 C 
ATOM      4  O   UNL     1     -35.335 -70.000  53.000  0.00  0.00    +0.000 OA
ATOM      5  O   UNL     1     -37.072 -71.430  52.442  0.00  0.00    +0.000 OA
ATOM      6  C   UNL     1     -35.671 -70.439  50.741  0.00  0.00    +0.000 C 
ATOM      7  C   UNL     1     -34.668 -69.643  50.818  0.00  0.00    +0.000 C 
ATOM      8  C   UNL     1     -36.140 -70.715  52.120  0.00  0.00    +0.000 C 
ATOM      9  C   UNL     1     -34.414 -69.379  52.162  0.00  0.00    +0.000 C 
ATOM     10  C   UNL     1     -33.728 -68.374  52.598  0.00  0.00    +0.000 C 
BRANCH   6  12
ATOM     11  C   UNL     1     -36.659 -71.348  48.504  0.00  0.00    +0.000 C 
ATOM     12  C   UNL     1     -36.206 -70.925  49.534  0.00  0.00    +0.000 C 
BRANCH  11  14
ATOM     13  O   UNL     1     -36.968 -70.915  46.181  0.00  0.00    +0.000 OA
ATOM     14  C   UNL     1     -37.199 -71.868  47.258  0.00  0.00    +0.000 C 
ATOM     15  C   UNL     1     -36.245 -72.139  46.075  0.00  0.00    +0.000 C 
ATOM     16  C   UNL     1     -38.590 -72.593  47.263  0.00  0.00    +0.000 C 
ATOM     17  C   UNL     1     -36.734 -72.966  45.018  0.00  0.00    +0.000 C 
ATOM     18  C   UNL     1     -38.727 -73.269  45.970  0.00  0.00    +0.000 C 
ATOM     19  C   UNL     1     -37.981 -73.582  44.818  0.00  0.00    +0.000 C 
ATOM     20  C   UNL     1     -34.726 -71.965  46.158  0.00  0.00    +0.000 C 
ATOM     21  C   UNL     1     -38.518 -73.628  48.417  0.00  0.00    +0.000 C 
ATOM     22  C   UNL     1     -39.655 -71.502  47.506  0.00  0.00    +0.000 C 
BRANCH  19  23
ATOM     23  O   UNL     1     -38.115 -74.784  44.190  0.00  0.00    +0.000 OA
ATOM     24  H   UNL     1     -38.853 -75.309  44.548  0.00  0.00    +0.000 HD
ENDBRANCH  19  23
ENDBRANCH  11  14
ENDBRANCH   6  12
ENDBRANCH   1   2
BRANCH   1  25
ATOM     25  C   UNL     1     -32.381 -67.049  55.828  0.00  0.00    +0.000 C 
ATOM     26  C   UNL     1     -32.134 -66.955  56.999  0.00  0.00    +0.000 C 
BRANCH  26  28
ATOM     27  C   UNL     1     -31.580 -66.749  59.665  0.00  0.00    +0.000 C 
ATOM     28  C   UNL     1     -31.826 -66.838  58.495  0.00  0.00    +0.000 C 
BRANCH  27  29
ATOM     29  C   UNL     1     -31.260 -66.640  61.162  0.00  0.00    +0.000 C 
BRANCH  29  30
ATOM     30  C   UNL     1     -30.996 -66.539  62.426  0.00  0.00    +0.000 C 
ATOM     31  C   UNL     1     -29.650 -66.939  62.952  0.00  0.00    +0.000 C 
BRANCH  30  33
ATOM     32  C   UNL     1     -32.854 -65.731  64.087  0.00  0.00    +0.000 C 
ATOM     33  C   UNL     1     -32.000 -66.101  63.325  0.00  0.00    +0.000 C 
BRANCH  32  39
ATOM     34  C   UNL     1     -33.897 -65.870  66.362  0.00  0.00    +0.000 C 
ATOM     35  C   UNL     1     -34.863 -64.346  64.488  0.00  0.00    +0.000 C 
ATOM     36  C   UNL     1     -34.813 -65.053  67.169  0.00  0.00    +0.000 C 
ATOM     37  C   UNL     1     -35.704 -63.973  67.009  0.00  0.00    +0.000 C 
ATOM     38  C   UNL     1     -35.580 -63.767  65.619  0.00  0.00    +0.000 C 
ATOM     39  C   UNL     1     -33.790 -65.331  64.924  0.00  0.00    +0.000 C 
ATOM     40  C   UNL     1     -32.489 -65.819  67.032  0.00  0.00    +0.000 C 
ATOM     41  C   UNL     1     -34.404 -67.336  66.306  0.00  0.00    +0.000 C 
ATOM     42  C   UNL     1     -35.828 -64.993  63.489  0.00  0.00    +0.000 C 
BRANCH  35  43
ATOM     43  O   UNL     1     -34.259 -63.288  63.778  0.00  0.00    +0.000 OA
ATOM     44  H   UNL     1     -33.878 -63.761  63.015  0.00  0.00    +0.000 HD
ENDBRANCH  35  43
BRANCH  37  45
ATOM     45  O   UNL     1     -36.959 -64.039  67.600  0.00  0.00    +0.000 OA
BRANCH  45  47
ATOM     46  O   UNL     1     -37.797 -61.879  67.966  0.00  0.00    +0.000 OA
ATOM     47  C   UNL     1     -37.208 -62.895  68.284  0.00  0.00    +0.000 C 
ATOM     48  C   UNL     1     -36.650 -62.876  69.663  0.00  0.00    +0.000 C 
ENDBRANCH  45  47
ENDBRANCH  37  45
ENDBRANCH  32  39
ENDBRANCH  30  33
ENDBRANCH  29  30
ENDBRANCH  27  29
ENDBRANCH  26  28
ENDBRANCH   1  25
TORSDOF 13
ENDMDL
MODEL 7
REMARK VINA RESULT:      -6.5      4.472     17.958
REMARK  Name = 5289155_Peridinin.pdbqt.pdb
REMARK  13 active torsions:
REMARK  status: ('A' for Active; 'I' for Inactive)
REMARK    1  A    between atoms: C_1  and  C_3
REMARK    2  A    between atoms: C_3  and  C_25
REMARK    3  A    between atoms: C_6  and  C_12
REMARK    4  A    between atoms: C_11  and  C_14
REMARK    5  A    between atoms: C_19  and  O_23
REMARK    6  A    between atoms: C_26  and  C_28
REMARK    7  A    between atoms: C_27  and  C_31
REMARK    8  A    between atoms: C_29  and  C_31
REMARK    9  A    between atoms: C_29  and  C_42
REMARK   10  A    between atoms: C_33  and  O_43
REMARK   11  A    between atoms: C_35  and  O_45
REMARK   12  A    between atoms: C_37  and  C_41
REMARK   13  A    between atoms: O_45  and  C_47
REMARK                            x       y       z     vdW  Elec       q    Type
REMARK                         _______ _______ _______ _____ _____    ______ ____
ROOT
ATOM      1  C   UNL     1     -44.928 -67.031  23.465  0.00  0.00    +0.000 C 
ENDROOT
BRANCH   1   2
ATOM      2  C   UNL     1     -44.503 -66.890  22.249  0.00  0.00    +0.000 C 
ATOM      3  C   UNL     1     -44.204 -68.095  21.411  0.00  0.00    +0.000 C 
ATOM      4  O   UNL     1     -43.951 -63.336  22.019  0.00  0.00    +0.000 OA
ATOM      5  O   UNL     1     -43.144 -61.238  21.454  0.00  0.00    +0.000 OA
ATOM      6  C   UNL     1     -43.449 -62.953  19.780  0.00  0.00    +0.000 C 
ATOM      7  C   UNL     1     -43.880 -64.158  19.862  0.00  0.00    +0.000 C 
ATOM      8  C   UNL     1     -43.479 -62.366  21.140  0.00  0.00    +0.000 C 
ATOM      9  C   UNL     1     -44.223 -64.418  21.187  0.00  0.00    +0.000 C 
ATOM     10  C   UNL     1     -44.356 -65.598  21.696  0.00  0.00    +0.000 C 
BRANCH   6  12
ATOM     11  C   UNL     1     -42.655 -61.826  17.565  0.00  0.00    +0.000 C 
ATOM     12  C   UNL     1     -43.015 -62.346  18.587  0.00  0.00    +0.000 C 
BRANCH  11  14
ATOM     13  O   UNL     1     -42.712 -59.826  16.270  0.00  0.00    +0.000 OA
ATOM     14  C   UNL     1     -42.228 -61.199  16.324  0.00  0.00    +0.000 C 
ATOM     15  C   UNL     1     -41.298 -59.969  16.379  0.00  0.00    +0.000 C 
ATOM     16  C   UNL     1     -42.291 -62.016  14.987  0.00  0.00    +0.000 C 
ATOM     17  C   UNL     1     -40.624 -59.606  15.174  0.00  0.00    +0.000 C 
ATOM     18  C   UNL     1     -41.527 -61.263  13.988  0.00  0.00    +0.000 C 
ATOM     19  C   UNL     1     -40.668 -60.153  13.880  0.00  0.00    +0.000 C 
ATOM     20  C   UNL     1     -40.722 -59.403  17.680  0.00  0.00    +0.000 C 
ATOM     21  C   UNL     1     -41.606 -63.374  15.292  0.00  0.00    +0.000 C 
ATOM     22  C   UNL     1     -43.787 -62.168  14.633  0.00  0.00    +0.000 C 
BRANCH  19  23
ATOM     23  O   UNL     1     -39.587 -60.169  13.050  0.00  0.00    +0.000 OA
ATOM     24  H   UNL     1     -39.632 -59.473  12.370  0.00  0.00    +0.000 HD
ENDBRANCH  19  23
ENDBRANCH  11  14
ENDBRANCH   6  12
ENDBRANCH   1   2
BRANCH   1  25
ATOM     25  C   UNL     1     -45.432 -67.198  24.903  0.00  0.00    +0.000 C 
ATOM     26  C   UNL     1     -45.831 -67.331  26.027  0.00  0.00    +0.000 C 
BRANCH  26  28
ATOM     27  C   UNL     1     -46.751 -67.638  28.580  0.00  0.00    +0.000 C 
ATOM     28  C   UNL     1     -46.345 -67.507  27.459  0.00  0.00    +0.000 C 
BRANCH  27  29
ATOM     29  C   UNL     1     -47.270 -67.799  30.015  0.00  0.00    +0.000 C 
BRANCH  29  30
ATOM     30  C   UNL     1     -47.703 -67.926  31.229  0.00  0.00    +0.000 C 
ATOM     31  C   UNL     1     -49.176 -67.974  31.506  0.00  0.00    +0.000 C 
BRANCH  30  33
ATOM     32  C   UNL     1     -46.006 -67.994  33.224  0.00  0.00    +0.000 C 
ATOM     33  C   UNL     1     -46.784 -67.964  32.307  0.00  0.00    +0.000 C 
BRANCH  32  39
ATOM     34  C   UNL     1     -44.345 -66.801  34.672  0.00  0.00    +0.000 C 
ATOM     35  C   UNL     1     -44.890 -69.325  34.984  0.00  0.00    +0.000 C 
ATOM     36  C   UNL     1     -43.720 -67.018  35.984  0.00  0.00    +0.000 C 
ATOM     37  C   UNL     1     -43.556 -68.049  36.932  0.00  0.00    +0.000 C 
ATOM     38  C   UNL     1     -44.210 -69.099  36.255  0.00  0.00    +0.000 C 
ATOM     39  C   UNL     1     -45.157 -68.032  34.231  0.00  0.00    +0.000 C 
ATOM     40  C   UNL     1     -45.300 -65.574  34.792  0.00  0.00    +0.000 C 
ATOM     41  C   UNL     1     -43.252 -66.520  33.606  0.00  0.00    +0.000 C 
ATOM     42  C   UNL     1     -44.120 -70.319  34.109  0.00  0.00    +0.000 C 
BRANCH  35  43
ATOM     43  O   UNL     1     -46.118 -69.960  35.264  0.00  0.00    +0.000 OA
ATOM     44  H   UNL     1     -45.855 -70.591  35.961  0.00  0.00    +0.000 HD
ENDBRANCH  35  43
BRANCH  37  45
ATOM     45  O   UNL     1     -42.306 -68.250  37.502  0.00  0.00    +0.000 OA
BRANCH  45  47
ATOM     46  O   UNL     1     -42.808 -68.445  39.785  0.00  0.00    +0.000 OA
ATOM     47  C   UNL     1     -42.332 -67.894  38.810  0.00  0.00    +0.000 C 
ATOM     48  C   UNL     1     -41.673 -66.592  39.100  0.00  0.00    +0.000 C 
ENDBRANCH  45  47
ENDBRANCH  37  45
ENDBRANCH  32  39
ENDBRANCH  30  33
ENDBRANCH  29  30
ENDBRANCH  27  29
ENDBRANCH  26  28
ENDBRANCH   1  25
TORSDOF 13
ENDMDL
MODEL 8
REMARK VINA RESULT:      -6.5      5.098      7.662
REMARK  Name = 5289155_Peridinin.pdbqt.pdb
REMARK  13 active torsions:
REMARK  status: ('A' for Active; 'I' for Inactive)
REMARK    1  A    between atoms: C_1  and  C_3
REMARK    2  A    between atoms: C_3  and  C_25
REMARK    3  A    between atoms: C_6  and  C_12
REMARK    4  A    between atoms: C_11  and  C_14
REMARK    5  A    between atoms: C_19  and  O_23
REMARK    6  A    between atoms: C_26  and  C_28
REMARK    7  A    between atoms: C_27  and  C_31
REMARK    8  A    between atoms: C_29  and  C_31
REMARK    9  A    between atoms: C_29  and  C_42
REMARK   10  A    between atoms: C_33  and  O_43
REMARK   11  A    between atoms: C_35  and  O_45
REMARK   12  A    between atoms: C_37  and  C_41
REMARK   13  A    between atoms: O_45  and  C_47
REMARK                            x       y       z     vdW  Elec       q    Type
REMARK                         _______ _______ _______ _____ _____    ______ ____
ROOT
ATOM      1  C   UNL     1     -44.994 -59.186  23.629  0.00  0.00    +0.000 C 
ENDROOT
BRANCH   1   2
ATOM      2  C   UNL     1     -44.856 -60.418  24.009  0.00  0.00    +0.000 C 
ATOM      3  C   UNL     1     -44.218 -61.420  23.096  0.00  0.00    +0.000 C 
ATOM      4  O   UNL     1     -46.686 -60.492  27.113  0.00  0.00    +0.000 OA
ATOM      5  O   UNL     1     -47.959 -61.151  28.934  0.00  0.00    +0.000 OA
ATOM      6  C   UNL     1     -46.260 -62.597  28.007  0.00  0.00    +0.000 C 
ATOM      7  C   UNL     1     -45.447 -62.439  27.027  0.00  0.00    +0.000 C 
ATOM      8  C   UNL     1     -47.081 -61.368  28.119  0.00  0.00    +0.000 C 
ATOM      9  C   UNL     1     -45.650 -61.174  26.482  0.00  0.00    +0.000 C 
ATOM     10  C   UNL     1     -45.272 -60.811  25.300  0.00  0.00    +0.000 C 
BRANCH   6  12
ATOM     11  C   UNL     1     -46.394 -64.747  29.479  0.00  0.00    +0.000 C 
ATOM     12  C   UNL     1     -46.333 -63.759  28.796  0.00  0.00    +0.000 C 
BRANCH  11  14
ATOM     13  O   UNL     1     -45.870 -65.664  31.615  0.00  0.00    +0.000 OA
ATOM     14  C   UNL     1     -46.461 -65.936  30.312  0.00  0.00    +0.000 C 
ATOM     15  C   UNL     1     -47.276 -65.897  31.623  0.00  0.00    +0.000 C 
ATOM     16  C   UNL     1     -46.148 -67.338  29.682  0.00  0.00    +0.000 C 
ATOM     17  C   UNL     1     -47.612 -67.149  32.220  0.00  0.00    +0.000 C 
ATOM     18  C   UNL     1     -46.590 -68.350  30.645  0.00  0.00    +0.000 C 
ATOM     19  C   UNL     1     -47.306 -68.470  31.851  0.00  0.00    +0.000 C 
ATOM     20  C   UNL     1     -48.097 -64.684  32.071  0.00  0.00    +0.000 C 
ATOM     21  C   UNL     1     -46.995 -67.412  28.383  0.00  0.00    +0.000 C 
ATOM     22  C   UNL     1     -44.629 -67.369  29.407  0.00  0.00    +0.000 C 
BRANCH  19  23
ATOM     23  O   UNL     1     -48.157 -69.511  32.072  0.00  0.00    +0.000 OA
ATOM     24  H   UNL     1     -48.075 -70.207  31.396  0.00  0.00    +0.000 HD
ENDBRANCH  19  23
ENDBRANCH  11  14
ENDBRANCH   6  12
ENDBRANCH   1   2
BRANCH   1  25
ATOM     25  C   UNL     1     -45.158 -57.730  23.179  0.00  0.00    +0.000 C 
ATOM     26  C   UNL     1     -45.281 -56.590  22.825  0.00  0.00    +0.000 C 
BRANCH  26  28
ATOM     27  C   UNL     1     -45.550 -53.997  22.011  0.00  0.00    +0.000 C 
ATOM     28  C   UNL     1     -45.430 -55.135  22.372  0.00  0.00    +0.000 C 
BRANCH  27  29
ATOM     29  C   UNL     1     -45.701 -52.544  21.543  0.00  0.00    +0.000 C 
BRANCH  29  30
ATOM     30  C   UNL     1     -45.821 -51.319  21.141  0.00  0.00    +0.000 C 
ATOM     31  C   UNL     1     -44.864 -50.754  20.135  0.00  0.00    +0.000 C 
BRANCH  30  33
ATOM     32  C   UNL     1     -47.682 -49.785  22.166  0.00  0.00    +0.000 C 
ATOM     33  C   UNL     1     -46.829 -50.488  21.694  0.00  0.00    +0.000 C 
BRANCH  32  39
ATOM     34  C   UNL     1     -48.467 -47.479  22.757  0.00  0.00    +0.000 C 
ATOM     35  C   UNL     1     -49.873 -49.600  23.299  0.00  0.00    +0.000 C 
ATOM     36  C   UNL     1     -49.747 -46.837  23.087  0.00  0.00    +0.000 C 
ATOM     37  C   UNL     1     -51.060 -47.198  23.451  0.00  0.00    +0.000 C 
ATOM     38  C   UNL     1     -50.918 -48.601  23.495  0.00  0.00    +0.000 C 
ATOM     39  C   UNL     1     -48.613 -49.010  22.684  0.00  0.00    +0.000 C 
ATOM     40  C   UNL     1     -48.004 -46.943  21.368  0.00  0.00    +0.000 C 
ATOM     41  C   UNL     1     -47.408 -47.133  23.838  0.00  0.00    +0.000 C 
ATOM     42  C   UNL     1     -49.553 -50.336  24.603  0.00  0.00    +0.000 C 
BRANCH  35  43
ATOM     43  O   UNL     1     -50.387 -50.592  22.437  0.00  0.00    +0.000 OA
ATOM     44  H   UNL     1     -50.273 -51.395  22.978  0.00  0.00    +0.000 HD
ENDBRANCH  35  43
BRANCH  37  45
ATOM     45  O   UNL     1     -51.682 -46.523  24.493  0.00  0.00    +0.000 OA
BRANCH  45  47
ATOM     46  O   UNL     1     -52.621 -44.388  24.241  0.00  0.00    +0.000 OA
ATOM     47  C   UNL     1     -52.516 -45.575  23.997  0.00  0.00    +0.000 C 
ATOM     48  C   UNL     1     -53.478 -46.083  22.982  0.00  0.00    +0.000 C 
ENDBRANCH  45  47
ENDBRANCH  37  45
ENDBRANCH  32  39
ENDBRANCH  30  33
ENDBRANCH  29  30
ENDBRANCH  27  29
ENDBRANCH  26  28
ENDBRANCH   1  25
TORSDOF 13
ENDMDL
MODEL 9
REMARK VINA RESULT:      -6.4     15.920     19.051
REMARK  Name = 5289155_Peridinin.pdbqt.pdb
REMARK  13 active torsions:
REMARK  status: ('A' for Active; 'I' for Inactive)
REMARK    1  A    between atoms: C_1  and  C_3
REMARK    2  A    between atoms: C_3  and  C_25
REMARK    3  A    between atoms: C_6  and  C_12
REMARK    4  A    between atoms: C_11  and  C_14
REMARK    5  A    between atoms: C_19  and  O_23
REMARK    6  A    between atoms: C_26  and  C_28
REMARK    7  A    between atoms: C_27  and  C_31
REMARK    8  A    between atoms: C_29  and  C_31
REMARK    9  A    between atoms: C_29  and  C_42
REMARK   10  A    between atoms: C_33  and  O_43
REMARK   11  A    between atoms: C_35  and  O_45
REMARK   12  A    between atoms: C_37  and  C_41
REMARK   13  A    between atoms: O_45  and  C_47
REMARK                            x       y       z     vdW  Elec       q    Type
REMARK                         _______ _______ _______ _____ _____    ______ ____
ROOT
ATOM      1  C   UNL     1     -45.761 -50.675  32.440  0.00  0.00    +0.000 C 
ENDROOT
BRANCH   1   2
ATOM      2  C   UNL     1     -45.407 -51.918  32.344  0.00  0.00    +0.000 C 
ATOM      3  C   UNL     1     -46.216 -52.869  31.518  0.00  0.00    +0.000 C 
ATOM      4  O   UNL     1     -42.714 -52.154  34.729  0.00  0.00    +0.000 OA
ATOM      5  O   UNL     1     -41.195 -52.912  36.307  0.00  0.00    +0.000 OA
ATOM      6  C   UNL     1     -41.833 -54.285  34.425  0.00  0.00    +0.000 C 
ATOM      7  C   UNL     1     -42.633 -54.072  33.445  0.00  0.00    +0.000 C 
ATOM      8  C   UNL     1     -41.835 -53.078  35.284  0.00  0.00    +0.000 C 
ATOM      9  C   UNL     1     -43.160 -52.790  33.574  0.00  0.00    +0.000 C 
ATOM     10  C   UNL     1     -44.234 -52.372  32.988  0.00  0.00    +0.000 C 
BRANCH   6  12
ATOM     11  C   UNL     1     -40.497 -56.499  34.772  0.00  0.00    +0.000 C 
ATOM     12  C   UNL     1     -41.115 -55.480  34.616  0.00  0.00    +0.000 C 
BRANCH  11  14
ATOM     13  O   UNL     1     -38.582 -57.733  34.073  0.00  0.00    +0.000 OA
ATOM     14  C   UNL     1     -39.745 -57.730  34.950  0.00  0.00    +0.000 C 
ATOM     15  C   UNL     1     -38.292 -57.662  35.467  0.00  0.00    +0.000 C 
ATOM     16  C   UNL     1     -40.514 -59.090  35.095  0.00  0.00    +0.000 C 
ATOM     17  C   UNL     1     -37.717 -58.872  35.961  0.00  0.00    +0.000 C 
ATOM     18  C   UNL     1     -39.545 -60.084  35.565  0.00  0.00    +0.000 C 
ATOM     19  C   UNL     1     -38.225 -60.180  36.044  0.00  0.00    +0.000 C 
ATOM     20  C   UNL     1     -37.605 -56.359  35.885  0.00  0.00    +0.000 C 
ATOM     21  C   UNL     1     -41.607 -58.840  36.169  0.00  0.00    +0.000 C 
ATOM     22  C   UNL     1     -41.106 -59.412  33.706  0.00  0.00    +0.000 C 
BRANCH  19  23
ATOM     23  O   UNL     1     -37.895 -61.034  37.053  0.00  0.00    +0.000 OA
ATOM     24  H   UNL     1     -37.707 -61.934  36.730  0.00  0.00    +0.000 HD
ENDBRANCH  19  23
ENDBRANCH  11  14
ENDBRANCH   6  12
ENDBRANCH   1   2
BRANCH   1  25
ATOM     25  C   UNL     1     -46.178 -49.204  32.554  0.00  0.00    +0.000 C 
ATOM     26  C   UNL     1     -46.503 -48.052  32.639  0.00  0.00    +0.000 C 
BRANCH  26  28
ATOM     27  C   UNL     1     -47.240 -45.428  32.811  0.00  0.00    +0.000 C 
ATOM     28  C   UNL     1     -46.915 -46.580  32.739  0.00  0.00    +0.000 C 
BRANCH  27  29
ATOM     29  C   UNL     1     -47.655 -43.954  32.897  0.00  0.00    +0.000 C 
BRANCH  29  30
ATOM     30  C   UNL     1     -48.015 -42.711  32.966  0.00  0.00    +0.000 C 
ATOM     31  C   UNL     1     -47.002 -41.619  32.807  0.00  0.00    +0.000 C 
BRANCH  30  33
ATOM     32  C   UNL     1     -50.509 -42.101  33.488  0.00  0.00    +0.000 C 
ATOM     33  C   UNL     1     -49.366 -42.382  33.247  0.00  0.00    +0.000 C 
BRANCH  32  39
ATOM     34  C   UNL     1     -52.663 -41.062  32.736  0.00  0.00    +0.000 C 
ATOM     35  C   UNL     1     -52.374 -42.077  35.113  0.00  0.00    +0.000 C 
ATOM     36  C   UNL     1     -54.073 -41.107  33.148  0.00  0.00    +0.000 C 
ATOM     37  C   UNL     1     -54.852 -41.532  34.242  0.00  0.00    +0.000 C 
ATOM     38  C   UNL     1     -53.830 -41.985  35.101  0.00  0.00    +0.000 C 
ATOM     39  C   UNL     1     -51.762 -41.787  33.752  0.00  0.00    +0.000 C 
ATOM     40  C   UNL     1     -52.544 -41.770  31.351  0.00  0.00    +0.000 C 
ATOM     41  C   UNL     1     -52.192 -39.587  32.619  0.00  0.00    +0.000 C 
ATOM     42  C   UNL     1     -51.767 -41.172  36.190  0.00  0.00    +0.000 C 
BRANCH  35  43
ATOM     43  O   UNL     1     -52.032 -43.388  35.505  0.00  0.00    +0.000 OA
ATOM     44  H   UNL     1     -51.375 -43.215  36.205  0.00  0.00    +0.000 HD
ENDBRANCH  35  43
BRANCH  37  45
ATOM     45  O   UNL     1     -55.855 -40.699  34.722  0.00  0.00    +0.000 OA
BRANCH  45  47
ATOM     46  O   UNL     1     -57.140 -41.900  36.273  0.00  0.00    +0.000 OA
ATOM     47  C   UNL     1     -56.896 -41.441  35.173  0.00  0.00    +0.000 C 
ATOM     48  C   UNL     1     -57.912 -41.760  34.134  0.00  0.00    +0.000 C 
ENDBRANCH  45  47
ENDBRANCH  37  45
ENDBRANCH  32  39
ENDBRANCH  30  33
ENDBRANCH  29  30
ENDBRANCH  27  29
ENDBRANCH  26  28
ENDBRANCH   1  25
TORSDOF 13
ENDMDL
