MODEL 1
REMARK VINA RESULT:      -7.2      0.000      0.000
REMARK  Name = 5318517_Andrographolide.pdbqt.pdb
REMARK  6 active torsions:
REMARK  status: ('A' for Active; 'I' for Inactive)
REMARK    1  A    between atoms: C_3  and  C_16
REMARK    2  A    between atoms: C_4  and  C_19
REMARK    3  A    between atoms: C_6  and  O_14
REMARK    4  A    between atoms: C_16  and  O_17
REMARK    5  A    between atoms: C_22  and  C_23
REMARK    6  A    between atoms: C_24  and  O_27
REMARK                            x       y       z     vdW  Elec       q    Type
REMARK                         _______ _______ _______ _____ _____    ______ ____
ROOT
ATOM      1  C   UNL     1     -61.891 -66.748  40.702  0.00  0.00    +0.000 C 
ATOM      2  C   UNL     1     -62.632 -68.023  41.207  0.00  0.00    +0.000 C 
ATOM      3  C   UNL     1     -64.070 -67.984  41.752  0.00  0.00    +0.000 C 
ATOM      4  C   UNL     1     -60.342 -66.735  40.835  0.00  0.00    +0.000 C 
ATOM      5  C   UNL     1     -62.467 -65.655  41.480  0.00  0.00    +0.000 C 
ATOM      6  C   UNL     1     -64.572 -66.629  42.337  0.00  0.00    +0.000 C 
ATOM      7  C   UNL     1     -61.835 -69.202  41.157  0.00  0.00    +0.000 C 
ATOM      8  C   UNL     1     -63.722 -65.510  42.272  0.00  0.00    +0.000 C 
ATOM      9  C   UNL     1     -62.235 -66.585  39.190  0.00  0.00    +0.000 C 
ATOM     10  C   UNL     1     -60.356 -69.169  40.943  0.00  0.00    +0.000 C 
ATOM     11  C   UNL     1     -59.589 -67.996  40.787  0.00  0.00    +0.000 C 
ATOM     12  C   UNL     1     -64.163 -69.013  42.937  0.00  0.00    +0.000 C 
ATOM     13  C   UNL     1     -58.261 -68.106  40.843  0.00  0.00    +0.000 C 
ENDROOT
BRANCH   6  14
ATOM     14  O   UNL     1     -65.891 -66.470  42.725  0.00  0.00    +0.000 OA
ATOM     15  H   UNL     1     -66.176 -67.156  43.355  0.00  0.00    +0.000 HD
ENDBRANCH   6  14
BRANCH   4  16
ATOM     16  C   UNL     1     -59.630 -65.488  40.877  0.00  0.00    +0.000 C 
ATOM     17  C   UNL     1     -58.869 -64.160  40.911  0.00  0.00    +0.000 C 
BRANCH  17  20
ATOM     18  O   UNL     1     -57.813 -60.798  41.428  0.00  0.00    +0.000 OA
ATOM     19  O   UNL     1     -59.991 -61.549  41.792  0.00  0.00    +0.000 OA
ATOM     20  C   UNL     1     -58.232 -63.032  40.934  0.00  0.00    +0.000 C 
ATOM     21  C   UNL     1     -56.849 -62.794  40.604  0.00  0.00    +0.000 C 
ATOM     22  C   UNL     1     -58.839 -61.739  41.441  0.00  0.00    +0.000 C 
ATOM     23  C   UNL     1     -56.756 -61.449  40.967  0.00  0.00    +0.000 C 
BRANCH  21  24
ATOM     24  O   UNL     1     -55.902 -63.739  40.882  0.00  0.00    +0.000 OA
ATOM     25  H   UNL     1     -56.200 -64.357  41.571  0.00  0.00    +0.000 HD
ENDBRANCH  21  24
ENDBRANCH  17  20
ENDBRANCH   4  16
BRANCH   3  26
ATOM     26  C   UNL     1     -64.984 -68.389  40.646  0.00  0.00    +0.000 C 
BRANCH  26  27
ATOM     27  O   UNL     1     -65.812 -68.748  39.661  0.00  0.00    +0.000 OA
ATOM     28  H   UNL     1     -65.874 -68.044  38.991  0.00  0.00    +0.000 HD
ENDBRANCH  26  27
ENDBRANCH   3  26
TORSDOF 6
ENDMDL
MODEL 2
REMARK VINA RESULT:      -7.0      3.201      5.858
REMARK  Name = 5318517_Andrographolide.pdbqt.pdb
REMARK  6 active torsions:
REMARK  status: ('A' for Active; 'I' for Inactive)
REMARK    1  A    between atoms: C_3  and  C_16
REMARK    2  A    between atoms: C_4  and  C_19
REMARK    3  A    between atoms: C_6  and  O_14
REMARK    4  A    between atoms: C_16  and  O_17
REMARK    5  A    between atoms: C_22  and  C_23
REMARK    6  A    between atoms: C_24  and  O_27
REMARK                            x       y       z     vdW  Elec       q    Type
REMARK                         _______ _______ _______ _____ _____    ______ ____
ROOT
ATOM      1  C   UNL     1     -61.507 -66.602  40.769  0.00  0.00    +0.000 C 
ATOM      2  C   UNL     1     -62.580 -65.790  41.556  0.00  0.00    +0.000 C 
ATOM      3  C   UNL     1     -62.474 -64.270  41.773  0.00  0.00    +0.000 C 
ATOM      4  C   UNL     1     -61.314 -68.091  41.172  0.00  0.00    +0.000 C 
ATOM      5  C   UNL     1     -60.263 -65.865  40.974  0.00  0.00    +0.000 C 
ATOM      6  C   UNL     1     -61.048 -63.643  41.721  0.00  0.00    +0.000 C 
ATOM      7  C   UNL     1     -63.628 -66.595  42.087  0.00  0.00    +0.000 C 
ATOM      8  C   UNL     1     -59.956 -64.473  41.412  0.00  0.00    +0.000 C 
ATOM      9  C   UNL     1     -61.919 -66.571  39.265  0.00  0.00    +0.000 C 
ATOM     10  C   UNL     1     -63.545 -68.086  42.154  0.00  0.00    +0.000 C 
ATOM     11  C   UNL     1     -62.442 -68.854  41.726  0.00  0.00    +0.000 C 
ATOM     12  C   UNL     1     -63.022 -63.952  43.212  0.00  0.00    +0.000 C 
ATOM     13  C   UNL     1     -62.410 -70.144  42.064  0.00  0.00    +0.000 C 
ENDROOT
BRANCH   6  14
ATOM     14  O   UNL     1     -60.876 -62.270  41.773  0.00  0.00    +0.000 OA
ATOM     15  H   UNL     1     -61.313 -61.815  41.032  0.00  0.00    +0.000 HD
ENDBRANCH   6  14
BRANCH   4  16
ATOM     16  C   UNL     1     -60.077 -68.763  40.889  0.00  0.00    +0.000 C 
ATOM     17  C   UNL     1     -58.759 -69.486  40.597  0.00  0.00    +0.000 C 
BRANCH  17  20
ATOM     18  O   UNL     1     -56.209 -71.896  39.987  0.00  0.00    +0.000 OA
ATOM     19  O   UNL     1     -58.303 -72.413  40.874  0.00  0.00    +0.000 OA
ATOM     20  C   UNL     1     -57.649 -70.106  40.347  0.00  0.00    +0.000 C 
ATOM     21  C   UNL     1     -56.424 -69.546  39.834  0.00  0.00    +0.000 C 
ATOM     22  C   UNL     1     -57.487 -71.609  40.458  0.00  0.00    +0.000 C 
ATOM     23  C   UNL     1     -55.692 -70.722  39.656  0.00  0.00    +0.000 C 
BRANCH  21  24
ATOM     24  O   UNL     1     -56.460 -68.514  38.939  0.00  0.00    +0.000 OA
ATOM     25  H   UNL     1     -55.701 -68.537  38.330  0.00  0.00    +0.000 HD
ENDBRANCH  21  24
ENDBRANCH  17  20
ENDBRANCH   4  16
BRANCH   3  26
ATOM     26  C   UNL     1     -63.321 -63.607  40.741  0.00  0.00    +0.000 C 
BRANCH  26  27
ATOM     27  O   UNL     1     -64.088 -63.010  39.825  0.00  0.00    +0.000 OA
ATOM     28  H   UNL     1     -64.364 -63.647  39.141  0.00  0.00    +0.000 HD
ENDBRANCH  26  27
ENDBRANCH   3  26
TORSDOF 6
ENDMDL
MODEL 3
REMARK VINA RESULT:      -6.8      3.173      4.293
REMARK  Name = 5318517_Andrographolide.pdbqt.pdb
REMARK  6 active torsions:
REMARK  status: ('A' for Active; 'I' for Inactive)
REMARK    1  A    between atoms: C_3  and  C_16
REMARK    2  A    between atoms: C_4  and  C_19
REMARK    3  A    between atoms: C_6  and  O_14
REMARK    4  A    between atoms: C_16  and  O_17
REMARK    5  A    between atoms: C_22  and  C_23
REMARK    6  A    between atoms: C_24  and  O_27
REMARK                            x       y       z     vdW  Elec       q    Type
REMARK                         _______ _______ _______ _____ _____    ______ ____
ROOT
ATOM      1  C   UNL     1     -64.573 -66.691  40.831  0.00  0.00    +0.000 C 
ATOM      2  C   UNL     1     -64.570 -68.010  40.000  0.00  0.00    +0.000 C 
ATOM      3  C   UNL     1     -65.173 -69.323  40.530  0.00  0.00    +0.000 C 
ATOM      4  C   UNL     1     -63.413 -65.689  40.565  0.00  0.00    +0.000 C 
ATOM      5  C   UNL     1     -64.541 -67.131  42.223  0.00  0.00    +0.000 C 
ATOM      6  C   UNL     1     -65.260 -69.493  42.077  0.00  0.00    +0.000 C 
ATOM      7  C   UNL     1     -63.919 -67.889  38.740  0.00  0.00    +0.000 C 
ATOM      8  C   UNL     1     -64.854 -68.424  42.897  0.00  0.00    +0.000 C 
ATOM      9  C   UNL     1     -65.912 -65.955  40.520  0.00  0.00    +0.000 C 
ATOM     10  C   UNL     1     -63.058 -66.719  38.385  0.00  0.00    +0.000 C 
ATOM     11  C   UNL     1     -62.781 -65.632  39.239  0.00  0.00    +0.000 C 
ATOM     12  C   UNL     1     -64.267 -70.505  40.027  0.00  0.00    +0.000 C 
ATOM     13  C   UNL     1     -61.814 -64.786  38.880  0.00  0.00    +0.000 C 
ENDROOT
BRANCH   6  14
ATOM     14  O   UNL     1     -65.908 -70.581  42.635  0.00  0.00    +0.000 OA
ATOM     15  H   UNL     1     -65.828 -71.380  42.085  0.00  0.00    +0.000 HD
ENDBRANCH   6  14
BRANCH   4  16
ATOM     16  C   UNL     1     -63.041 -64.731  41.568  0.00  0.00    +0.000 C 
ATOM     17  C   UNL     1     -62.650 -63.716  42.645  0.00  0.00    +0.000 C 
BRANCH  17  20
ATOM     18  O   UNL     1     -61.044 -61.235  44.634  0.00  0.00    +0.000 OA
ATOM     19  O   UNL     1     -60.020 -62.340  42.853  0.00  0.00    +0.000 OA
ATOM     20  C   UNL     1     -62.313 -62.863  43.561  0.00  0.00    +0.000 C 
ATOM     21  C   UNL     1     -63.131 -62.350  44.631  0.00  0.00    +0.000 C 
ATOM     22  C   UNL     1     -60.973 -62.153  43.589  0.00  0.00    +0.000 C 
ATOM     23  C   UNL     1     -62.254 -61.394  45.150  0.00  0.00    +0.000 C 
BRANCH  21  24
ATOM     24  O   UNL     1     -64.468 -62.150  44.440  0.00  0.00    +0.000 OA
ATOM     25  H   UNL     1     -64.648 -61.303  43.995  0.00  0.00    +0.000 HD
ENDBRANCH  21  24
ENDBRANCH  17  20
ENDBRANCH   4  16
BRANCH   3  26
ATOM     26  C   UNL     1     -66.546 -69.450  39.963  0.00  0.00    +0.000 C 
BRANCH  26  27
ATOM     27  O   UNL     1     -67.780 -69.571  39.464  0.00  0.00    +0.000 OA
ATOM     28  H   UNL     1     -67.764 -70.075  38.630  0.00  0.00    +0.000 HD
ENDBRANCH  26  27
ENDBRANCH   3  26
TORSDOF 6
ENDMDL
MODEL 4
REMARK VINA RESULT:      -6.6     14.066     15.809
REMARK  Name = 5318517_Andrographolide.pdbqt.pdb
REMARK  6 active torsions:
REMARK  status: ('A' for Active; 'I' for Inactive)
REMARK    1  A    between atoms: C_3  and  C_16
REMARK    2  A    between atoms: C_4  and  C_19
REMARK    3  A    between atoms: C_6  and  O_14
REMARK    4  A    between atoms: C_16  and  O_17
REMARK    5  A    between atoms: C_22  and  C_23
REMARK    6  A    between atoms: C_24  and  O_27
REMARK                            x       y       z     vdW  Elec       q    Type
REMARK                         _______ _______ _______ _____ _____    ______ ____
ROOT
ATOM      1  C   UNL     1     -46.286 -62.480  37.591  0.00  0.00    +0.000 C 
ATOM      2  C   UNL     1     -46.489 -63.006  36.138  0.00  0.00    +0.000 C 
ATOM      3  C   UNL     1     -47.196 -62.179  35.049  0.00  0.00    +0.000 C 
ATOM      4  C   UNL     1     -46.225 -63.545  38.722  0.00  0.00    +0.000 C 
ATOM      5  C   UNL     1     -47.411 -61.577  37.817  0.00  0.00    +0.000 C 
ATOM      6  C   UNL     1     -48.204 -61.089  35.527  0.00  0.00    +0.000 C 
ATOM      7  C   UNL     1     -46.004 -64.329  35.937  0.00  0.00    +0.000 C 
ATOM      8  C   UNL     1     -48.360 -60.873  36.908  0.00  0.00    +0.000 C 
ATOM      9  C   UNL     1     -44.940 -61.694  37.612  0.00  0.00    +0.000 C 
ATOM     10  C   UNL     1     -45.627 -65.232  37.067  0.00  0.00    +0.000 C 
ATOM     11  C   UNL     1     -45.722 -64.896  38.434  0.00  0.00    +0.000 C 
ATOM     12  C   UNL     1     -48.036 -63.169  34.163  0.00  0.00    +0.000 C 
ATOM     13  C   UNL     1     -45.580 -65.875  39.329  0.00  0.00    +0.000 C 
ENDROOT
BRANCH   6  14
ATOM     14  O   UNL     1     -48.781 -60.214  34.623  0.00  0.00    +0.000 OA
ATOM     15  H   UNL     1     -49.454 -59.645  35.039  0.00  0.00    +0.000 HD
ENDBRANCH   6  14
BRANCH   4  16
ATOM     16  C   UNL     1     -46.536 -63.181  40.076  0.00  0.00    +0.000 C 
ATOM     17  C   UNL     1     -46.873 -62.803  41.522  0.00  0.00    +0.000 C 
BRANCH  17  20
ATOM     18  O   UNL     1     -46.814 -62.191  45.030  0.00  0.00    +0.000 OA
ATOM     19  O   UNL     1     -45.200 -63.439  43.899  0.00  0.00    +0.000 OA
ATOM     20  C   UNL     1     -47.150 -62.489  42.748  0.00  0.00    +0.000 C 
ATOM     21  C   UNL     1     -48.275 -61.726  43.229  0.00  0.00    +0.000 C 
ATOM     22  C   UNL     1     -46.235 -62.795  43.917  0.00  0.00    +0.000 C 
ATOM     23  C   UNL     1     -47.919 -61.620  44.575  0.00  0.00    +0.000 C 
BRANCH  21  24
ATOM     24  O   UNL     1     -48.785 -60.704  42.480  0.00  0.00    +0.000 OA
ATOM     25  H   UNL     1     -48.884 -59.888  43.001  0.00  0.00    +0.000 HD
ENDBRANCH  21  24
ENDBRANCH  17  20
ENDBRANCH   4  16
BRANCH   3  26
ATOM     26  C   UNL     1     -46.142 -61.519  34.227  0.00  0.00    +0.000 C 
BRANCH  26  27
ATOM     27  O   UNL     1     -45.206 -60.923  33.483  0.00  0.00    +0.000 OA
ATOM     28  H   UNL     1     -44.919 -61.508  32.759  0.00  0.00    +0.000 HD
ENDBRANCH  26  27
ENDBRANCH   3  26
TORSDOF 6
ENDMDL
MODEL 5
REMARK VINA RESULT:      -6.5      3.468      6.319
REMARK  Name = 5318517_Andrographolide.pdbqt.pdb
REMARK  6 active torsions:
REMARK  status: ('A' for Active; 'I' for Inactive)
REMARK    1  A    between atoms: C_3  and  C_16
REMARK    2  A    between atoms: C_4  and  C_19
REMARK    3  A    between atoms: C_6  and  O_14
REMARK    4  A    between atoms: C_16  and  O_17
REMARK    5  A    between atoms: C_22  and  C_23
REMARK    6  A    between atoms: C_24  and  O_27
REMARK                            x       y       z     vdW  Elec       q    Type
REMARK                         _______ _______ _______ _____ _____    ______ ____
ROOT
ATOM      1  C   UNL     1     -62.306 -67.598  39.970  0.00  0.00    +0.000 C 
ATOM      2  C   UNL     1     -63.390 -66.481  39.912  0.00  0.00    +0.000 C 
ATOM      3  C   UNL     1     -63.091 -65.062  39.396  0.00  0.00    +0.000 C 
ATOM      4  C   UNL     1     -62.470 -68.682  41.074  0.00  0.00    +0.000 C 
ATOM      5  C   UNL     1     -61.048 -66.882  40.160  0.00  0.00    +0.000 C 
ATOM      6  C   UNL     1     -61.613 -64.573  39.478  0.00  0.00    +0.000 C 
ATOM      7  C   UNL     1     -64.656 -66.887  40.422  0.00  0.00    +0.000 C 
ATOM      8  C   UNL     1     -60.632 -65.466  39.947  0.00  0.00    +0.000 C 
ATOM      9  C   UNL     1     -62.319 -68.326  38.591  0.00  0.00    +0.000 C 
ATOM     10  C   UNL     1     -64.843 -68.140  41.215  0.00  0.00    +0.000 C 
ATOM     11  C   UNL     1     -63.811 -69.039  41.559  0.00  0.00    +0.000 C 
ATOM     12  C   UNL     1     -63.918 -64.049  40.267  0.00  0.00    +0.000 C 
ATOM     13  C   UNL     1     -64.079 -69.981  42.465  0.00  0.00    +0.000 C 
ENDROOT
BRANCH   6  14
ATOM     14  O   UNL     1     -61.233 -63.367  38.916  0.00  0.00    +0.000 OA
ATOM     15  H   UNL     1     -60.289 -63.177  39.054  0.00  0.00    +0.000 HD
ENDBRANCH   6  14
BRANCH   4  16
ATOM     16  C   UNL     1     -61.331 -69.427  41.531  0.00  0.00    +0.000 C 
ATOM     17  C   UNL     1     -60.110 -70.215  42.012  0.00  0.00    +0.000 C 
BRANCH  17  20
ATOM     18  O   UNL     1     -56.829 -71.425  42.690  0.00  0.00    +0.000 OA
ATOM     19  O   UNL     1     -57.323 -69.861  41.032  0.00  0.00    +0.000 OA
ATOM     20  C   UNL     1     -59.073 -70.875  42.424  0.00  0.00    +0.000 C 
ATOM     21  C   UNL     1     -59.018 -71.868  43.468  0.00  0.00    +0.000 C 
ATOM     22  C   UNL     1     -57.666 -70.618  41.923  0.00  0.00    +0.000 C 
ATOM     23  C   UNL     1     -57.638 -72.071  43.517  0.00  0.00    +0.000 C 
BRANCH  21  24
ATOM     24  O   UNL     1     -59.824 -71.759  44.565  0.00  0.00    +0.000 OA
ATOM     25  H   UNL     1     -59.380 -72.074  45.372  0.00  0.00    +0.000 HD
ENDBRANCH  21  24
ENDBRANCH  17  20
ENDBRANCH   4  16
BRANCH   3  26
ATOM     26  C   UNL     1     -63.531 -64.997  37.973  0.00  0.00    +0.000 C 
BRANCH  26  27
ATOM     27  O   UNL     1     -63.936 -64.933  36.701  0.00  0.00    +0.000 OA
ATOM     28  H   UNL     1     -64.600 -65.622  36.518  0.00  0.00    +0.000 HD
ENDBRANCH  26  27
ENDBRANCH   3  26
TORSDOF 6
ENDMDL
MODEL 6
REMARK VINA RESULT:      -6.4     31.981     33.831
REMARK  Name = 5318517_Andrographolide.pdbqt.pdb
REMARK  6 active torsions:
REMARK  status: ('A' for Active; 'I' for Inactive)
REMARK    1  A    between atoms: C_3  and  C_16
REMARK    2  A    between atoms: C_4  and  C_19
REMARK    3  A    between atoms: C_6  and  O_14
REMARK    4  A    between atoms: C_16  and  O_17
REMARK    5  A    between atoms: C_22  and  C_23
REMARK    6  A    between atoms: C_24  and  O_27
REMARK                            x       y       z     vdW  Elec       q    Type
REMARK                         _______ _______ _______ _____ _____    ______ ____
ROOT
ATOM      1  C   UNL     1     -40.330 -40.706  49.440  0.00  0.00    +0.000 C 
ATOM      2  C   UNL     1     -41.783 -40.468  48.928  0.00  0.00    +0.000 C 
ATOM      3  C   UNL     1     -42.821 -39.658  49.725  0.00  0.00    +0.000 C 
ATOM      4  C   UNL     1     -39.628 -42.015  48.982  0.00  0.00    +0.000 C 
ATOM      5  C   UNL     1     -40.445 -40.685  50.895  0.00  0.00    +0.000 C 
ATOM      6  C   UNL     1     -42.620 -39.570  51.268  0.00  0.00    +0.000 C 
ATOM      7  C   UNL     1     -42.063 -41.109  47.687  0.00  0.00    +0.000 C 
ATOM      8  C   UNL     1     -41.479 -40.166  51.836  0.00  0.00    +0.000 C 
ATOM      9  C   UNL     1     -39.466 -39.508  48.942  0.00  0.00    +0.000 C 
ATOM     10  C   UNL     1     -41.167 -42.151  47.097  0.00  0.00    +0.000 C 
ATOM     11  C   UNL     1     -39.979 -42.625  47.691  0.00  0.00    +0.000 C 
ATOM     12  C   UNL     1     -44.222 -40.339  49.521  0.00  0.00    +0.000 C 
ATOM     13  C   UNL     1     -39.413 -43.716  47.173  0.00  0.00    +0.000 C 
ENDROOT
BRANCH   6  14
ATOM     14  O   UNL     1     -43.427 -38.754  52.042  0.00  0.00    +0.000 OA
ATOM     15  H   UNL     1     -43.064 -37.856  52.135  0.00  0.00    +0.000 HD
ENDBRANCH   6  14
BRANCH   4  16
ATOM     16  C   UNL     1     -38.546 -42.563  49.752  0.00  0.00    +0.000 C 
ATOM     17  C   UNL     1     -37.401 -43.153  50.579  0.00  0.00    +0.000 C 
BRANCH  17  20
ATOM     18  O   UNL     1     -35.268 -45.239  52.524  0.00  0.00    +0.000 OA
ATOM     19  O   UNL     1     -37.526 -45.681  52.142  0.00  0.00    +0.000 OA
ATOM     20  C   UNL     1     -36.433 -43.660  51.276  0.00  0.00    +0.000 C 
ATOM     21  C   UNL     1     -35.087 -43.163  51.407  0.00  0.00    +0.000 C 
ATOM     22  C   UNL     1     -36.538 -44.980  52.014  0.00  0.00    +0.000 C 
ATOM     23  C   UNL     1     -34.528 -44.208  52.145  0.00  0.00    +0.000 C 
BRANCH  21  24
ATOM     24  O   UNL     1     -34.475 -42.546  50.353  0.00  0.00    +0.000 OA
ATOM     25  H   UNL     1     -34.164 -43.187  49.690  0.00  0.00    +0.000 HD
ENDBRANCH  21  24
ENDBRANCH  17  20
ENDBRANCH   4  16
BRANCH   3  26
ATOM     26  C   UNL     1     -42.836 -38.274  49.171  0.00  0.00    +0.000 C 
BRANCH  26  27
ATOM     27  O   UNL     1     -42.842 -37.038  48.664  0.00  0.00    +0.000 OA
ATOM     28  H   UNL     1     -43.558 -36.508  49.061  0.00  0.00    +0.000 HD
ENDBRANCH  26  27
ENDBRANCH   3  26
TORSDOF 6
ENDMDL
MODEL 7
REMARK VINA RESULT:      -6.4      3.477      8.887
REMARK  Name = 5318517_Andrographolide.pdbqt.pdb
REMARK  6 active torsions:
REMARK  status: ('A' for Active; 'I' for Inactive)
REMARK    1  A    between atoms: C_3  and  C_16
REMARK    2  A    between atoms: C_4  and  C_19
REMARK    3  A    between atoms: C_6  and  O_14
REMARK    4  A    between atoms: C_16  and  O_17
REMARK    5  A    between atoms: C_22  and  C_23
REMARK    6  A    between atoms: C_24  and  O_27
REMARK                            x       y       z     vdW  Elec       q    Type
REMARK                         _______ _______ _______ _____ _____    ______ ____
ROOT
ATOM      1  C   UNL     1     -64.422 -67.585  40.846  0.00  0.00    +0.000 C 
ATOM      2  C   UNL     1     -63.045 -66.998  40.412  0.00  0.00    +0.000 C 
ATOM      3  C   UNL     1     -62.770 -65.484  40.354  0.00  0.00    +0.000 C 
ATOM      4  C   UNL     1     -64.823 -68.959  40.240  0.00  0.00    +0.000 C 
ATOM      5  C   UNL     1     -65.395 -66.567  40.460  0.00  0.00    +0.000 C 
ATOM      6  C   UNL     1     -64.000 -64.546  40.165  0.00  0.00    +0.000 C 
ATOM      7  C   UNL     1     -62.096 -67.990  40.034  0.00  0.00    +0.000 C 
ATOM      8  C   UNL     1     -65.286 -65.117  40.129  0.00  0.00    +0.000 C 
ATOM      9  C   UNL     1     -64.385 -67.746  42.396  0.00  0.00    +0.000 C 
ATOM     10  C   UNL     1     -62.474 -69.413  39.779  0.00  0.00    +0.000 C 
ATOM     11  C   UNL     1     -63.784 -69.928  39.862  0.00  0.00    +0.000 C 
ATOM     12  C   UNL     1     -61.839 -65.212  39.118  0.00  0.00    +0.000 C 
ATOM     13  C   UNL     1     -64.007 -71.151  39.379  0.00  0.00    +0.000 C 
ENDROOT
BRANCH   6  14
ATOM     14  O   UNL     1     -63.860 -63.171  40.236  0.00  0.00    +0.000 OA
ATOM     15  H   UNL     1     -64.416 -62.709  39.584  0.00  0.00    +0.000 HD
ENDBRANCH   6  14
BRANCH   4  16
ATOM     16  C   UNL     1     -66.206 -69.341  40.166  0.00  0.00    +0.000 C 
ATOM     17  C   UNL     1     -67.682 -69.744  40.097  0.00  0.00    +0.000 C 
BRANCH  17  20
ATOM     18  O   UNL     1     -71.178 -70.148  40.641  0.00  0.00    +0.000 OA
ATOM     19  O   UNL     1     -69.713 -69.235  42.210  0.00  0.00    +0.000 OA
ATOM     20  C   UNL     1     -68.933 -70.076  40.039  0.00  0.00    +0.000 C 
ATOM     21  C   UNL     1     -69.628 -70.701  38.943  0.00  0.00    +0.000 C 
ATOM     22  C   UNL     1     -69.936 -69.747  41.127  0.00  0.00    +0.000 C 
ATOM     23  C   UNL     1     -70.932 -70.651  39.441  0.00  0.00    +0.000 C 
BRANCH  21  24
ATOM     24  O   UNL     1     -69.281 -70.413  37.653  0.00  0.00    +0.000 OA
ATOM     25  H   UNL     1     -69.080 -71.219  37.145  0.00  0.00    +0.000 HD
ENDBRANCH  21  24
ENDBRANCH  17  20
ENDBRANCH   4  16
BRANCH   3  26
ATOM     26  C   UNL     1     -62.075 -65.103  41.616  0.00  0.00    +0.000 C 
BRANCH  26  27
ATOM     27  O   UNL     1     -61.440 -64.764  42.742  0.00  0.00    +0.000 OA
ATOM     28  H   UNL     1     -61.662 -63.851  42.999  0.00  0.00    +0.000 HD
ENDBRANCH  26  27
ENDBRANCH   3  26
TORSDOF 6
ENDMDL
MODEL 8
REMARK VINA RESULT:      -6.2     27.926     30.165
REMARK  Name = 5318517_Andrographolide.pdbqt.pdb
REMARK  6 active torsions:
REMARK  status: ('A' for Active; 'I' for Inactive)
REMARK    1  A    between atoms: C_3  and  C_16
REMARK    2  A    between atoms: C_4  and  C_19
REMARK    3  A    between atoms: C_6  and  O_14
REMARK    4  A    between atoms: C_16  and  O_17
REMARK    5  A    between atoms: C_22  and  C_23
REMARK    6  A    between atoms: C_24  and  O_27
REMARK                            x       y       z     vdW  Elec       q    Type
REMARK                         _______ _______ _______ _____ _____    ______ ____
ROOT
ATOM      1  C   UNL     1     -44.873 -76.543  64.285  0.00  0.00    +0.000 C 
ATOM      2  C   UNL     1     -43.509 -75.833  64.029  0.00  0.00    +0.000 C 
ATOM      3  C   UNL     1     -42.867 -74.881  65.054  0.00  0.00    +0.000 C 
ATOM      4  C   UNL     1     -45.735 -76.882  63.036  0.00  0.00    +0.000 C 
ATOM      5  C   UNL     1     -45.604 -75.633  65.163  0.00  0.00    +0.000 C 
ATOM      6  C   UNL     1     -43.821 -74.179  66.067  0.00  0.00    +0.000 C 
ATOM      7  C   UNL     1     -42.951 -76.115  62.750  0.00  0.00    +0.000 C 
ATOM      8  C   UNL     1     -45.190 -74.502  66.040  0.00  0.00    +0.000 C 
ATOM      9  C   UNL     1     -44.564 -77.883  65.020  0.00  0.00    +0.000 C 
ATOM     10  C   UNL     1     -43.732 -76.763  61.653  0.00  0.00    +0.000 C 
ATOM     11  C   UNL     1     -45.085 -77.149  61.744  0.00  0.00    +0.000 C 
ATOM     12  C   UNL     1     -42.170 -73.719  64.257  0.00  0.00    +0.000 C 
ATOM     13  C   UNL     1     -45.714 -77.493  60.620  0.00  0.00    +0.000 C 
ENDROOT
BRANCH   6  14
ATOM     14  O   UNL     1     -43.314 -73.413  67.103  0.00  0.00    +0.000 OA
ATOM     15  H   UNL     1     -43.429 -72.459  66.947  0.00  0.00    +0.000 HD
ENDBRANCH   6  14
BRANCH   4  16
ATOM     16  C   UNL     1     -47.154 -77.061  63.163  0.00  0.00    +0.000 C 
ATOM     17  C   UNL     1     -48.668 -77.247  63.309  0.00  0.00    +0.000 C 
BRANCH  17  20
ATOM     18  O   UNL     1     -51.982 -78.498  63.682  0.00  0.00    +0.000 OA
ATOM     19  O   UNL     1     -50.142 -79.826  63.140  0.00  0.00    +0.000 OA
ATOM     20  C   UNL     1     -49.949 -77.395  63.431  0.00  0.00    +0.000 C 
ATOM     21  C   UNL     1     -50.929 -76.380  63.728  0.00  0.00    +0.000 C 
ATOM     22  C   UNL     1     -50.643 -78.742  63.385  0.00  0.00    +0.000 C 
ATOM     23  C   UNL     1     -52.060 -77.188  63.865  0.00  0.00    +0.000 C 
BRANCH  21  24
ATOM     24  O   UNL     1     -50.615 -75.341  64.556  0.00  0.00    +0.000 OA
ATOM     25  H   UNL     1     -49.762 -75.481  65.005  0.00  0.00    +0.000 HD
ENDBRANCH  21  24
ENDBRANCH  17  20
ENDBRANCH   4  16
BRANCH   3  26
ATOM     26  C   UNL     1     -41.853 -75.660  65.820  0.00  0.00    +0.000 C 
BRANCH  26  27
ATOM     27  O   UNL     1     -40.936 -76.354  66.500  0.00  0.00    +0.000 OA
ATOM     28  H   UNL     1     -40.766 -77.211  66.069  0.00  0.00    +0.000 HD
ENDBRANCH  26  27
ENDBRANCH   3  26
TORSDOF 6
ENDMDL
MODEL 9
REMARK VINA RESULT:      -6.2     14.891     21.002
REMARK  Name = 5318517_Andrographolide.pdbqt.pdb
REMARK  6 active torsions:
REMARK  status: ('A' for Active; 'I' for Inactive)
REMARK    1  A    between atoms: C_3  and  C_16
REMARK    2  A    between atoms: C_4  and  C_19
REMARK    3  A    between atoms: C_6  and  O_14
REMARK    4  A    between atoms: C_16  and  O_17
REMARK    5  A    between atoms: C_22  and  C_23
REMARK    6  A    between atoms: C_24  and  O_27
REMARK                            x       y       z     vdW  Elec       q    Type
REMARK                         _______ _______ _______ _____ _____    ______ ____
ROOT
ATOM      1  C   UNL     1     -43.211 -57.049  34.516  0.00  0.00    +0.000 C 
ATOM      2  C   UNL     1     -42.627 -55.868  33.682  0.00  0.00    +0.000 C 
ATOM      3  C   UNL     1     -42.235 -54.521  34.316  0.00  0.00    +0.000 C 
ATOM      4  C   UNL     1     -44.173 -58.023  33.778  0.00  0.00    +0.000 C 
ATOM      5  C   UNL     1     -43.907 -56.406  35.627  0.00  0.00    +0.000 C 
ATOM      6  C   UNL     1     -42.944 -54.130  35.647  0.00  0.00    +0.000 C 
ATOM      7  C   UNL     1     -42.539 -56.143  32.288  0.00  0.00    +0.000 C 
ATOM      8  C   UNL     1     -43.839 -55.045  36.230  0.00  0.00    +0.000 C 
ATOM      9  C   UNL     1     -42.003 -57.886  35.038  0.00  0.00    +0.000 C 
ATOM     10  C   UNL     1     -43.221 -57.311  31.651  0.00  0.00    +0.000 C 
ATOM     11  C   UNL     1     -44.027 -58.246  32.333  0.00  0.00    +0.000 C 
ATOM     12  C   UNL     1     -42.602 -53.386  33.293  0.00  0.00    +0.000 C 
ATOM     13  C   UNL     1     -44.760 -59.089  31.603  0.00  0.00    +0.000 C 
ENDROOT
BRANCH   6  14
ATOM     14  O   UNL     1     -42.557 -53.003  36.351  0.00  0.00    +0.000 OA
ATOM     15  H   UNL     1     -42.783 -53.062  37.296  0.00  0.00    +0.000 HD
ENDBRANCH   6  14
BRANCH   4  16
ATOM     16  C   UNL     1     -45.122 -58.803  34.522  0.00  0.00    +0.000 C 
ATOM     17  C   UNL     1     -46.125 -59.643  35.317  0.00  0.00    +0.000 C 
BRANCH  17  20
ATOM     18  O   UNL     1     -47.746 -61.767  37.672  0.00  0.00    +0.000 OA
ATOM     19  O   UNL     1     -45.431 -61.607  37.442  0.00  0.00    +0.000 OA
ATOM     20  C   UNL     1     -46.970 -60.352  35.998  0.00  0.00    +0.000 C 
ATOM     21  C   UNL     1     -48.409 -60.313  35.929  0.00  0.00    +0.000 C 
ATOM     22  C   UNL     1     -46.562 -61.303  37.106  0.00  0.00    +0.000 C 
ATOM     23  C   UNL     1     -48.711 -61.177  36.984  0.00  0.00    +0.000 C 
BRANCH  21  24
ATOM     24  O   UNL     1     -49.056 -59.135  35.684  0.00  0.00    +0.000 OA
ATOM     25  H   UNL     1     -48.568 -58.580  35.049  0.00  0.00    +0.000 HD
ENDBRANCH  21  24
ENDBRANCH  17  20
ENDBRANCH   4  16
BRANCH   3  26
ATOM     26  C   UNL     1     -40.764 -54.545  34.553  0.00  0.00    +0.000 C 
BRANCH  26  27
ATOM     27  O   UNL     1     -39.446 -54.556  34.773  0.00  0.00    +0.000 OA
ATOM     28  H   UNL     1     -39.257 -54.682  35.721  0.00  0.00    +0.000 HD
ENDBRANCH  26  27
ENDBRANCH   3  26
TORSDOF 6
ENDMDL
