MODEL 1
REMARK VINA RESULT:      -7.3      0.000      0.000
REMARK  Name = 5326018_Caulerpin.pdbqt.pdb
REMARK  4 active torsions:
REMARK  status: ('A' for Active; 'I' for Inactive)
REMARK    1  A    between atoms: C_11  and  C_26
REMARK    2  A    between atoms: C_12  and  C_30
REMARK    3  A    between atoms: C_26  and  O_27
REMARK    4  A    between atoms: C_30  and  O_31
REMARK                            x       y       z     vdW  Elec       q    Type
REMARK                         _______ _______ _______ _____ _____    ______ ____
ROOT
ATOM      1  N   UNL     1     -50.673 -41.623  38.393  0.00  0.00    +0.000 N 
ATOM      2  N   UNL     1     -56.980 -41.210  36.739  0.00  0.00    +0.000 N 
ATOM      3  C   UNL     1     -52.750 -41.197  39.037  0.00  0.00    +0.000 C 
ATOM      4  C   UNL     1     -54.868 -41.239  36.065  0.00  0.00    +0.000 C 
ATOM      5  C   UNL     1     -51.922 -41.280  37.920  0.00  0.00    +0.000 C 
ATOM      6  C   UNL     1     -55.684 -41.016  37.171  0.00  0.00    +0.000 C 
ATOM      7  C   UNL     1     -51.978 -41.427  40.201  0.00  0.00    +0.000 A 
ATOM      8  C   UNL     1     -55.682 -41.506  34.937  0.00  0.00    +0.000 A 
ATOM      9  C   UNL     1     -50.678 -41.687  39.770  0.00  0.00    +0.000 A 
ATOM     10  C   UNL     1     -57.002 -41.477  35.386  0.00  0.00    +0.000 A 
ATOM     11  C   UNL     1     -52.188 -41.151  36.511  0.00  0.00    +0.000 C 
ATOM     12  C   UNL     1     -55.382 -40.727  38.549  0.00  0.00    +0.000 C 
ATOM     13  C   UNL     1     -53.440 -41.209  36.137  0.00  0.00    +0.000 C 
ATOM     14  C   UNL     1     -54.153 -40.939  38.943  0.00  0.00    +0.000 C 
ATOM     15  C   UNL     1     -52.256 -41.459  41.580  0.00  0.00    +0.000 A 
ATOM     16  C   UNL     1     -55.432 -41.786  33.581  0.00  0.00    +0.000 A 
ATOM     17  C   UNL     1     -49.631 -41.975  40.652  0.00  0.00    +0.000 A 
ATOM     18  C   UNL     1     -58.094 -41.712  34.543  0.00  0.00    +0.000 A 
ATOM     19  C   UNL     1     -51.221 -41.738  42.475  0.00  0.00    +0.000 A 
ATOM     20  C   UNL     1     -56.510 -42.017  32.725  0.00  0.00    +0.000 A 
ATOM     21  C   UNL     1     -49.933 -41.991  42.016  0.00  0.00    +0.000 A 
ATOM     22  C   UNL     1     -57.816 -41.978  33.201  0.00  0.00    +0.000 A 
ATOM     23  H   UNL     1     -49.849 -41.819  37.838  0.00  0.00    +0.000 HD
ATOM     24  H   UNL     1     -57.819 -41.180  37.305  0.00  0.00    +0.000 HD
ENDROOT
BRANCH  11  26
ATOM     25  O   UNL     1     -51.149 -39.763  34.863  0.00  0.00    +0.000 OA
ATOM     26  C   UNL     1     -51.174 -40.829  35.466  0.00  0.00    +0.000 C 
BRANCH  26  27
ATOM     27  O   UNL     1     -50.318 -41.884  35.343  0.00  0.00    +0.000 OA
ATOM     28  C   UNL     1     -50.574 -42.834  34.343  0.00  0.00    +0.000 C 
ENDBRANCH  26  27
ENDBRANCH  11  26
BRANCH  12  30
ATOM     29  O   UNL     1     -56.219 -38.916  39.872  0.00  0.00    +0.000 OA
ATOM     30  C   UNL     1     -56.315 -40.087  39.522  0.00  0.00    +0.000 C 
BRANCH  30  31
ATOM     31  O   UNL     1     -57.252 -41.004  39.901  0.00  0.00    +0.000 OA
ATOM     32  C   UNL     1     -58.212 -40.618  40.849  0.00  0.00    +0.000 C 
ENDBRANCH  30  31
ENDBRANCH  12  30
TORSDOF 4
ENDMDL
MODEL 2
REMARK VINA RESULT:      -7.3     23.242     25.881
REMARK  Name = 5326018_Caulerpin.pdbqt.pdb
REMARK  4 active torsions:
REMARK  status: ('A' for Active; 'I' for Inactive)
REMARK    1  A    between atoms: C_11  and  C_26
REMARK    2  A    between atoms: C_12  and  C_30
REMARK    3  A    between atoms: C_26  and  O_27
REMARK    4  A    between atoms: C_30  and  O_31
REMARK                            x       y       z     vdW  Elec       q    Type
REMARK                         _______ _______ _______ _____ _____    ______ ____
ROOT
ATOM      1  N   UNL     1     -45.555 -65.013  36.277  0.00  0.00    +0.000 N 
ATOM      2  N   UNL     1     -44.588 -64.324  42.702  0.00  0.00    +0.000 N 
ATOM      3  C   UNL     1     -44.551 -65.759  38.107  0.00  0.00    +0.000 C 
ATOM      4  C   UNL     1     -45.244 -63.394  40.800  0.00  0.00    +0.000 C 
ATOM      5  C   UNL     1     -45.176 -64.644  37.551  0.00  0.00    +0.000 C 
ATOM      6  C   UNL     1     -44.499 -64.443  41.330  0.00  0.00    +0.000 C 
ATOM      7  C   UNL     1     -44.495 -66.788  37.136  0.00  0.00    +0.000 A 
ATOM      8  C   UNL     1     -45.736 -62.594  41.860  0.00  0.00    +0.000 A 
ATOM      9  C   UNL     1     -45.127 -66.293  35.997  0.00  0.00    +0.000 A 
ATOM     10  C   UNL     1     -45.306 -63.197  43.042  0.00  0.00    +0.000 A 
ATOM     11  C   UNL     1     -45.504 -63.353  38.094  0.00  0.00    +0.000 C 
ATOM     12  C   UNL     1     -43.804 -65.542  40.711  0.00  0.00    +0.000 C 
ATOM     13  C   UNL     1     -45.457 -63.228  39.395  0.00  0.00    +0.000 C 
ATOM     14  C   UNL     1     -44.088 -65.792  39.459  0.00  0.00    +0.000 C 
ATOM     15  C   UNL     1     -43.986 -68.100  37.116  0.00  0.00    +0.000 A 
ATOM     16  C   UNL     1     -46.517 -61.427  41.938  0.00  0.00    +0.000 A 
ATOM     17  C   UNL     1     -45.275 -67.044  34.826  0.00  0.00    +0.000 A 
ATOM     18  C   UNL     1     -45.616 -62.687  44.308  0.00  0.00    +0.000 A 
ATOM     19  C   UNL     1     -44.120 -68.862  35.953  0.00  0.00    +0.000 A 
ATOM     20  C   UNL     1     -46.831 -60.902  43.193  0.00  0.00    +0.000 A 
ATOM     21  C   UNL     1     -44.752 -68.340  34.830  0.00  0.00    +0.000 A 
ATOM     22  C   UNL     1     -46.385 -61.523  44.355  0.00  0.00    +0.000 A 
ATOM     23  H   UNL     1     -46.083 -64.455  35.618  0.00  0.00    +0.000 HD
ATOM     24  H   UNL     1     -44.205 -64.959  43.392  0.00  0.00    +0.000 HD
ENDROOT
BRANCH  11  26
ATOM     25  O   UNL     1     -44.994 -61.168  37.261  0.00  0.00    +0.000 OA
ATOM     26  C   UNL     1     -45.765 -62.120  37.296  0.00  0.00    +0.000 C 
BRANCH  26  27
ATOM     27  O   UNL     1     -46.948 -62.268  36.632  0.00  0.00    +0.000 OA
ATOM     28  C   UNL     1     -48.049 -61.511  37.061  0.00  0.00    +0.000 C 
ENDBRANCH  26  27
ENDBRANCH  11  26
BRANCH  12  30
ATOM     29  O   UNL     1     -42.762 -66.785  42.471  0.00  0.00    +0.000 OA
ATOM     30  C   UNL     1     -42.701 -66.329  41.336  0.00  0.00    +0.000 C 
BRANCH  30  31
ATOM     31  O   UNL     1     -41.684 -66.452  40.433  0.00  0.00    +0.000 OA
ATOM     32  C   UNL     1     -41.059 -67.702  40.304  0.00  0.00    +0.000 C 
ENDBRANCH  30  31
ENDBRANCH  12  30
TORSDOF 4
ENDMDL
MODEL 3
REMARK VINA RESULT:      -7.2     26.816     27.824
REMARK  Name = 5326018_Caulerpin.pdbqt.pdb
REMARK  4 active torsions:
REMARK  status: ('A' for Active; 'I' for Inactive)
REMARK    1  A    between atoms: C_11  and  C_26
REMARK    2  A    between atoms: C_12  and  C_30
REMARK    3  A    between atoms: C_26  and  O_27
REMARK    4  A    between atoms: C_30  and  O_31
REMARK                            x       y       z     vdW  Elec       q    Type
REMARK                         _______ _______ _______ _____ _____    ______ ____
ROOT
ATOM      1  N   UNL     1     -61.108 -70.218  40.000  0.00  0.00    +0.000 N 
ATOM      2  N   UNL     1     -62.078 -63.977  41.673  0.00  0.00    +0.000 N 
ATOM      3  C   UNL     1     -62.513 -68.685  40.768  0.00  0.00    +0.000 C 
ATOM      4  C   UNL     1     -60.623 -65.605  41.289  0.00  0.00    +0.000 C 
ATOM      5  C   UNL     1     -61.161 -68.974  40.595  0.00  0.00    +0.000 C 
ATOM      6  C   UNL     1     -61.957 -65.349  41.597  0.00  0.00    +0.000 C 
ATOM      7  C   UNL     1     -63.281 -69.791  40.334  0.00  0.00    +0.000 A 
ATOM      8  C   UNL     1     -59.916 -64.379  41.242  0.00  0.00    +0.000 A 
ATOM      9  C   UNL     1     -62.376 -70.741  39.861  0.00  0.00    +0.000 A 
ATOM     10  C   UNL     1     -60.850 -63.374  41.491  0.00  0.00    +0.000 A 
ATOM     11  C   UNL     1     -59.970 -68.207  40.851  0.00  0.00    +0.000 C 
ATOM     12  C   UNL     1     -63.096 -66.217  41.747  0.00  0.00    +0.000 C 
ATOM     13  C   UNL     1     -60.124 -66.923  41.048  0.00  0.00    +0.000 C 
ATOM     14  C   UNL     1     -62.976 -67.436  41.288  0.00  0.00    +0.000 C 
ATOM     15  C   UNL     1     -64.658 -70.077  40.277  0.00  0.00    +0.000 A 
ATOM     16  C   UNL     1     -58.579 -64.018  40.997  0.00  0.00    +0.000 A 
ATOM     17  C   UNL     1     -62.778 -71.973  39.334  0.00  0.00    +0.000 A 
ATOM     18  C   UNL     1     -60.514 -62.016  41.511  0.00  0.00    +0.000 A 
ATOM     19  C   UNL     1     -65.076 -71.305  39.759  0.00  0.00    +0.000 A 
ATOM     20  C   UNL     1     -58.225 -62.668  41.019  0.00  0.00    +0.000 A 
ATOM     21  C   UNL     1     -64.150 -72.234  39.298  0.00  0.00    +0.000 A 
ATOM     22  C   UNL     1     -59.178 -61.687  41.274  0.00  0.00    +0.000 A 
ATOM     23  H   UNL     1     -60.278 -70.703  39.686  0.00  0.00    +0.000 HD
ATOM     24  H   UNL     1     -62.929 -63.450  41.826  0.00  0.00    +0.000 HD
ENDROOT
BRANCH  11  26
ATOM     25  O   UNL     1     -58.115 -68.997  42.139  0.00  0.00    +0.000 OA
ATOM     26  C   UNL     1     -58.602 -68.771  41.038  0.00  0.00    +0.000 C 
BRANCH  26  27
ATOM     27  O   UNL     1     -58.048 -68.995  39.811  0.00  0.00    +0.000 OA
ATOM     28  C   UNL     1     -56.761 -69.552  39.756  0.00  0.00    +0.000 C 
ENDBRANCH  26  27
ENDBRANCH  11  26
BRANCH  12  30
ATOM     29  O   UNL     1     -64.345 -65.465  43.645  0.00  0.00    +0.000 OA
ATOM     30  C   UNL     1     -64.344 -65.884  42.494  0.00  0.00    +0.000 C 
BRANCH  30  31
ATOM     31  O   UNL     1     -65.416 -66.103  41.677  0.00  0.00    +0.000 OA
ATOM     32  C   UNL     1     -66.337 -67.096  42.044  0.00  0.00    +0.000 C 
ENDBRANCH  30  31
ENDBRANCH  12  30
TORSDOF 4
ENDMDL
MODEL 4
REMARK VINA RESULT:      -7.2     23.212     26.455
REMARK  Name = 5326018_Caulerpin.pdbqt.pdb
REMARK  4 active torsions:
REMARK  status: ('A' for Active; 'I' for Inactive)
REMARK    1  A    between atoms: C_11  and  C_26
REMARK    2  A    between atoms: C_12  and  C_30
REMARK    3  A    between atoms: C_26  and  O_27
REMARK    4  A    between atoms: C_30  and  O_31
REMARK                            x       y       z     vdW  Elec       q    Type
REMARK                         _______ _______ _______ _____ _____    ______ ____
ROOT
ATOM      1  N   UNL     1     -46.782 -67.664  28.693  0.00  0.00    +0.000 N 
ATOM      2  N   UNL     1     -46.543 -61.602  31.117  0.00  0.00    +0.000 N 
ATOM      3  C   UNL     1     -46.652 -65.490  28.281  0.00  0.00    +0.000 C 
ATOM      4  C   UNL     1     -47.063 -63.730  31.452  0.00  0.00    +0.000 C 
ATOM      5  C   UNL     1     -47.021 -66.424  29.247  0.00  0.00    +0.000 C 
ATOM      6  C   UNL     1     -46.830 -62.781  30.461  0.00  0.00    +0.000 C 
ATOM      7  C   UNL     1     -46.247 -66.174  27.109  0.00  0.00    +0.000 A 
ATOM      8  C   UNL     1     -46.980 -63.104  32.720  0.00  0.00    +0.000 A 
ATOM      9  C   UNL     1     -46.343 -67.536  27.392  0.00  0.00    +0.000 A 
ATOM     10  C   UNL     1     -46.658 -61.768  32.481  0.00  0.00    +0.000 A 
ATOM     11  C   UNL     1     -47.484 -66.277  30.602  0.00  0.00    +0.000 C 
ATOM     12  C   UNL     1     -46.778 -62.879  29.025  0.00  0.00    +0.000 C 
ATOM     13  C   UNL     1     -47.317 -65.107  31.162  0.00  0.00    +0.000 C 
ATOM     14  C   UNL     1     -46.680 -64.080  28.517  0.00  0.00    +0.000 C 
ATOM     15  C   UNL     1     -45.792 -65.773  25.840  0.00  0.00    +0.000 A 
ATOM     16  C   UNL     1     -47.130 -63.539  34.049  0.00  0.00    +0.000 A 
ATOM     17  C   UNL     1     -46.009 -68.527  26.463  0.00  0.00    +0.000 A 
ATOM     18  C   UNL     1     -46.479 -60.837  33.510  0.00  0.00    +0.000 A 
ATOM     19  C   UNL     1     -45.460 -66.750  24.898  0.00  0.00    +0.000 A 
ATOM     20  C   UNL     1     -46.961 -62.622  35.088  0.00  0.00    +0.000 A 
ATOM     21  C   UNL     1     -45.568 -68.102  25.208  0.00  0.00    +0.000 A 
ATOM     22  C   UNL     1     -46.642 -61.295  34.819  0.00  0.00    +0.000 A 
ATOM     23  H   UNL     1     -46.890 -68.561  29.148  0.00  0.00    +0.000 HD
ATOM     24  H   UNL     1     -46.272 -60.723  30.693  0.00  0.00    +0.000 HD
ENDROOT
BRANCH  11  26
ATOM     25  O   UNL     1     -49.309 -67.778  30.978  0.00  0.00    +0.000 OA
ATOM     26  C   UNL     1     -48.250 -67.302  31.369  0.00  0.00    +0.000 C 
BRANCH  26  27
ATOM     27  O   UNL     1     -47.564 -67.601  32.510  0.00  0.00    +0.000 OA
ATOM     28  C   UNL     1     -46.484 -68.492  32.421  0.00  0.00    +0.000 C 
ENDBRANCH  26  27
ENDBRANCH  11  26
BRANCH  12  30
ATOM     29  O   UNL     1     -47.657 -60.768  28.318  0.00  0.00    +0.000 OA
ATOM     30  C   UNL     1     -46.956 -61.743  28.074  0.00  0.00    +0.000 C 
BRANCH  30  31
ATOM     31  O   UNL     1     -46.208 -61.983  26.958  0.00  0.00    +0.000 OA
ATOM     32  C   UNL     1     -45.637 -60.887  26.293  0.00  0.00    +0.000 C 
ENDBRANCH  30  31
ENDBRANCH  12  30
TORSDOF 4
ENDMDL
MODEL 5
REMARK VINA RESULT:      -7.1     26.187     29.669
REMARK  Name = 5326018_Caulerpin.pdbqt.pdb
REMARK  4 active torsions:
REMARK  status: ('A' for Active; 'I' for Inactive)
REMARK    1  A    between atoms: C_11  and  C_26
REMARK    2  A    between atoms: C_12  and  C_30
REMARK    3  A    between atoms: C_26  and  O_27
REMARK    4  A    between atoms: C_30  and  O_31
REMARK                            x       y       z     vdW  Elec       q    Type
REMARK                         _______ _______ _______ _____ _____    ______ ____
ROOT
ATOM      1  N   UNL     1     -45.210 -64.098  23.804  0.00  0.00    +0.000 N 
ATOM      2  N   UNL     1     -46.424 -68.845  28.126  0.00  0.00    +0.000 N 
ATOM      3  C   UNL     1     -44.993 -66.237  24.341  0.00  0.00    +0.000 C 
ATOM      4  C   UNL     1     -46.271 -66.669  27.733  0.00  0.00    +0.000 C 
ATOM      5  C   UNL     1     -45.248 -64.974  24.869  0.00  0.00    +0.000 C 
ATOM      6  C   UNL     1     -45.886 -67.919  27.256  0.00  0.00    +0.000 C 
ATOM      7  C   UNL     1     -44.734 -66.114  22.955  0.00  0.00    +0.000 A 
ATOM      8  C   UNL     1     -46.994 -66.837  28.939  0.00  0.00    +0.000 A 
ATOM      9  C   UNL     1     -44.872 -64.762  22.644  0.00  0.00    +0.000 A 
ATOM     10  C   UNL     1     -47.072 -68.211  29.165  0.00  0.00    +0.000 A 
ATOM     11  C   UNL     1     -45.582 -64.534  26.198  0.00  0.00    +0.000 C 
ATOM     12  C   UNL     1     -45.161 -68.321  26.079  0.00  0.00    +0.000 C 
ATOM     13  C   UNL     1     -45.968 -65.452  27.046  0.00  0.00    +0.000 C 
ATOM     14  C   UNL     1     -45.028 -67.428  25.132  0.00  0.00    +0.000 C 
ATOM     15  C   UNL     1     -44.413 -67.019  21.926  0.00  0.00    +0.000 A 
ATOM     16  C   UNL     1     -47.606 -65.962  29.855  0.00  0.00    +0.000 A 
ATOM     17  C   UNL     1     -44.701 -64.262  21.349  0.00  0.00    +0.000 A 
ATOM     18  C   UNL     1     -47.731 -68.760  30.270  0.00  0.00    +0.000 A 
ATOM     19  C   UNL     1     -44.233 -66.535  20.628  0.00  0.00    +0.000 A 
ATOM     20  C   UNL     1     -48.263 -66.493  30.966  0.00  0.00    +0.000 A 
ATOM     21  C   UNL     1     -44.374 -65.180  20.349  0.00  0.00    +0.000 A 
ATOM     22  C   UNL     1     -48.322 -67.868  31.168  0.00  0.00    +0.000 A 
ATOM     23  H   UNL     1     -45.408 -63.106  23.829  0.00  0.00    +0.000 HD
ATOM     24  H   UNL     1     -46.381 -69.853  28.041  0.00  0.00    +0.000 HD
ENDROOT
BRANCH  11  26
ATOM     25  O   UNL     1     -46.204 -62.605  27.470  0.00  0.00    +0.000 OA
ATOM     26  C   UNL     1     -45.401 -63.149  26.721  0.00  0.00    +0.000 C 
BRANCH  26  27
ATOM     27  O   UNL     1     -44.222 -62.650  26.248  0.00  0.00    +0.000 OA
ATOM     28  C   UNL     1     -44.153 -61.282  25.945  0.00  0.00    +0.000 C 
ENDBRANCH  26  27
ENDBRANCH  11  26
BRANCH  12  30
ATOM     29  O   UNL     1     -44.400 -70.481  26.774  0.00  0.00    +0.000 OA
ATOM     30  C   UNL     1     -44.443 -69.617  25.906  0.00  0.00    +0.000 C 
BRANCH  30  31
ATOM     31  O   UNL     1     -43.899 -69.655  24.655  0.00  0.00    +0.000 OA
ATOM     32  C   UNL     1     -43.962 -70.861  23.940  0.00  0.00    +0.000 C 
ENDBRANCH  30  31
ENDBRANCH  12  30
TORSDOF 4
ENDMDL
MODEL 6
REMARK VINA RESULT:      -7.0      0.508      7.802
REMARK  Name = 5326018_Caulerpin.pdbqt.pdb
REMARK  4 active torsions:
REMARK  status: ('A' for Active; 'I' for Inactive)
REMARK    1  A    between atoms: C_11  and  C_26
REMARK    2  A    between atoms: C_12  and  C_30
REMARK    3  A    between atoms: C_26  and  O_27
REMARK    4  A    between atoms: C_30  and  O_31
REMARK                            x       y       z     vdW  Elec       q    Type
REMARK                         _______ _______ _______ _____ _____    ______ ____
ROOT
ATOM      1  N   UNL     1     -56.681 -41.166  36.186  0.00  0.00    +0.000 N 
ATOM      2  N   UNL     1     -50.543 -41.719  38.356  0.00  0.00    +0.000 N 
ATOM      3  C   UNL     1     -54.525 -41.291  35.685  0.00  0.00    +0.000 C 
ATOM      4  C   UNL     1     -52.648 -41.199  38.815  0.00  0.00    +0.000 C 
ATOM      5  C   UNL     1     -55.418 -40.998  36.714  0.00  0.00    +0.000 C 
ATOM      6  C   UNL     1     -51.739 -41.355  37.773  0.00  0.00    +0.000 C 
ATOM      7  C   UNL     1     -55.256 -41.576  34.507  0.00  0.00    +0.000 A 
ATOM      8  C   UNL     1     -51.980 -41.408  40.046  0.00  0.00    +0.000 A 
ATOM      9  C   UNL     1     -56.606 -41.486  34.847  0.00  0.00    +0.000 A 
ATOM     10  C   UNL     1     -50.660 -41.728  39.730  0.00  0.00    +0.000 A 
ATOM     11  C   UNL     1     -55.216 -40.664  38.099  0.00  0.00    +0.000 C 
ATOM     12  C   UNL     1     -51.887 -41.273  36.343  0.00  0.00    +0.000 C 
ATOM     13  C   UNL     1     -54.030 -40.900  38.599  0.00  0.00    +0.000 C 
ATOM     14  C   UNL     1     -53.107 -41.306  35.872  0.00  0.00    +0.000 C 
ATOM     15  C   UNL     1     -54.909 -41.919  33.188  0.00  0.00    +0.000 A 
ATOM     16  C   UNL     1     -52.366 -41.375  41.399  0.00  0.00    +0.000 A 
ATOM     17  C   UNL     1     -57.635 -41.718  33.928  0.00  0.00    +0.000 A 
ATOM     18  C   UNL     1     -49.697 -42.014  40.704  0.00  0.00    +0.000 A 
ATOM     19  C   UNL     1     -55.924 -42.148  32.256  0.00  0.00    +0.000 A 
ATOM     20  C   UNL     1     -51.417 -41.652  42.383  0.00  0.00    +0.000 A 
ATOM     21  C   UNL     1     -57.262 -42.048  32.623  0.00  0.00    +0.000 A 
ATOM     22  C   UNL     1     -50.106 -41.965  42.038  0.00  0.00    +0.000 A 
ATOM     23  H   UNL     1     -57.559 -41.087  36.682  0.00  0.00    +0.000 HD
ATOM     24  H   UNL     1     -49.684 -41.964  37.878  0.00  0.00    +0.000 HD
ENDROOT
BRANCH  11  26
ATOM     25  O   UNL     1     -56.087 -38.777  39.285  0.00  0.00    +0.000 OA
ATOM     26  C   UNL     1     -56.198 -39.956  38.970  0.00  0.00    +0.000 C 
BRANCH  26  27
ATOM     27  O   UNL     1     -57.197 -40.824  39.303  0.00  0.00    +0.000 OA
ATOM     28  C   UNL     1     -57.737 -40.751  40.596  0.00  0.00    +0.000 C 
ENDBRANCH  26  27
ENDBRANCH  11  26
BRANCH  12  30
ATOM     29  O   UNL     1     -50.561 -39.928  34.874  0.00  0.00    +0.000 OA
ATOM     30  C   UNL     1     -50.783 -41.026  35.371  0.00  0.00    +0.000 C 
BRANCH  30  31
ATOM     31  O   UNL     1     -50.097 -42.190  35.179  0.00  0.00    +0.000 OA
ATOM     32  C   UNL     1     -49.997 -42.693  33.873  0.00  0.00    +0.000 C 
ENDBRANCH  30  31
ENDBRANCH  12  30
TORSDOF 4
ENDMDL
MODEL 7
REMARK VINA RESULT:      -6.9     43.173     44.576
REMARK  Name = 5326018_Caulerpin.pdbqt.pdb
REMARK  4 active torsions:
REMARK  status: ('A' for Active; 'I' for Inactive)
REMARK    1  A    between atoms: C_11  and  C_26
REMARK    2  A    between atoms: C_12  and  C_30
REMARK    3  A    between atoms: C_26  and  O_27
REMARK    4  A    between atoms: C_30  and  O_31
REMARK                            x       y       z     vdW  Elec       q    Type
REMARK                         _______ _______ _______ _____ _____    ______ ____
ROOT
ATOM      1  N   UNL     1     -46.816 -77.499  62.078  0.00  0.00    +0.000 N 
ATOM      2  N   UNL     1     -41.228 -74.365  63.358  0.00  0.00    +0.000 N 
ATOM      3  C   UNL     1     -45.574 -76.424  63.566  0.00  0.00    +0.000 C 
ATOM      4  C   UNL     1     -42.323 -75.772  62.040  0.00  0.00    +0.000 C 
ATOM      5  C   UNL     1     -45.522 -77.110  62.355  0.00  0.00    +0.000 C 
ATOM      6  C   UNL     1     -42.324 -75.202  63.310  0.00  0.00    +0.000 C 
ATOM      7  C   UNL     1     -46.902 -76.456  64.057  0.00  0.00    +0.000 A 
ATOM      8  C   UNL     1     -41.179 -75.326  61.335  0.00  0.00    +0.000 A 
ATOM      9  C   UNL     1     -47.659 -77.141  63.108  0.00  0.00    +0.000 A 
ATOM     10  C   UNL     1     -40.506 -74.449  62.186  0.00  0.00    +0.000 A 
ATOM     11  C   UNL     1     -44.443 -77.361  61.435  0.00  0.00    +0.000 C 
ATOM     12  C   UNL     1     -43.249 -75.298  64.410  0.00  0.00    +0.000 C 
ATOM     13  C   UNL     1     -43.360 -76.642  61.581  0.00  0.00    +0.000 C 
ATOM     14  C   UNL     1     -44.431 -75.792  64.148  0.00  0.00    +0.000 C 
ATOM     15  C   UNL     1     -47.542 -75.957  65.206  0.00  0.00    +0.000 A 
ATOM     16  C   UNL     1     -40.653 -75.565  60.052  0.00  0.00    +0.000 A 
ATOM     17  C   UNL     1     -49.034 -77.358  63.249  0.00  0.00    +0.000 A 
ATOM     18  C   UNL     1     -39.324 -73.796  61.820  0.00  0.00    +0.000 A 
ATOM     19  C   UNL     1     -48.913 -76.171  65.367  0.00  0.00    +0.000 A 
ATOM     20  C   UNL     1     -39.471 -74.927  59.673  0.00  0.00    +0.000 A 
ATOM     21  C   UNL     1     -49.642 -76.860  64.404  0.00  0.00    +0.000 A 
ATOM     22  C   UNL     1     -38.820 -74.059  60.544  0.00  0.00    +0.000 A 
ATOM     23  H   UNL     1     -47.140 -77.972  61.243  0.00  0.00    +0.000 HD
ATOM     24  H   UNL     1     -40.964 -73.754  64.121  0.00  0.00    +0.000 HD
ENDROOT
BRANCH  11  26
ATOM     25  O   UNL     1     -45.108 -79.459  60.494  0.00  0.00    +0.000 OA
ATOM     26  C   UNL     1     -44.409 -78.455  60.421  0.00  0.00    +0.000 C 
BRANCH  26  27
ATOM     27  O   UNL     1     -43.518 -78.120  59.443  0.00  0.00    +0.000 OA
ATOM     28  C   UNL     1     -43.967 -78.099  58.114  0.00  0.00    +0.000 C 
ENDBRANCH  26  27
ENDBRANCH  11  26
BRANCH  12  30
ATOM     29  O   UNL     1     -43.777 -74.705  66.668  0.00  0.00    +0.000 OA
ATOM     30  C   UNL     1     -42.928 -75.006  65.838  0.00  0.00    +0.000 C 
BRANCH  30  31
ATOM     31  O   UNL     1     -41.585 -75.158  66.026  0.00  0.00    +0.000 OA
ATOM     32  C   UNL     1     -41.125 -76.358  66.590  0.00  0.00    +0.000 C 
ENDBRANCH  30  31
ENDBRANCH  12  30
TORSDOF 4
ENDMDL
MODEL 8
REMARK VINA RESULT:      -6.8     43.214     44.458
REMARK  Name = 5326018_Caulerpin.pdbqt.pdb
REMARK  4 active torsions:
REMARK  status: ('A' for Active; 'I' for Inactive)
REMARK    1  A    between atoms: C_11  and  C_26
REMARK    2  A    between atoms: C_12  and  C_30
REMARK    3  A    between atoms: C_26  and  O_27
REMARK    4  A    between atoms: C_30  and  O_31
REMARK                            x       y       z     vdW  Elec       q    Type
REMARK                         _______ _______ _______ _____ _____    ______ ____
ROOT
ATOM      1  N   UNL     1     -47.923 -75.217  65.813  0.00  0.00    +0.000 N 
ATOM      2  N   UNL     1     -50.166 -78.317  60.518  0.00  0.00    +0.000 N 
ATOM      3  C   UNL     1     -47.474 -76.533  64.087  0.00  0.00    +0.000 C 
ATOM      4  C   UNL     1     -50.636 -77.342  62.452  0.00  0.00    +0.000 C 
ATOM      5  C   UNL     1     -48.508 -76.061  64.893  0.00  0.00    +0.000 C 
ATOM      6  C   UNL     1     -49.610 -77.933  61.720  0.00  0.00    +0.000 C 
ATOM      7  C   UNL     1     -46.245 -76.020  64.567  0.00  0.00    +0.000 A 
ATOM      8  C   UNL     1     -51.840 -77.428  61.712  0.00  0.00    +0.000 A 
ATOM      9  C   UNL     1     -46.554 -75.202  65.653  0.00  0.00    +0.000 A 
ATOM     10  C   UNL     1     -51.519 -78.048  60.505  0.00  0.00    +0.000 A 
ATOM     11  C   UNL     1     -49.934 -76.253  64.842  0.00  0.00    +0.000 C 
ATOM     12  C   UNL     1     -48.205 -78.100  61.989  0.00  0.00    +0.000 C 
ATOM     13  C   UNL     1     -50.427 -76.742  63.733  0.00  0.00    +0.000 C 
ATOM     14  C   UNL     1     -47.698 -77.379  62.957  0.00  0.00    +0.000 C 
ATOM     15  C   UNL     1     -44.899 -76.155  64.178  0.00  0.00    +0.000 A 
ATOM     16  C   UNL     1     -53.170 -77.027  61.937  0.00  0.00    +0.000 A 
ATOM     17  C   UNL     1     -45.580 -74.508  66.379  0.00  0.00    +0.000 A 
ATOM     18  C   UNL     1     -52.466 -78.294  59.505  0.00  0.00    +0.000 A 
ATOM     19  C   UNL     1     -43.914 -75.474  64.896  0.00  0.00    +0.000 A 
ATOM     20  C   UNL     1     -54.128 -77.269  60.952  0.00  0.00    +0.000 A 
ATOM     21  C   UNL     1     -44.251 -74.667  65.977  0.00  0.00    +0.000 A 
ATOM     22  C   UNL     1     -53.779 -77.893  59.759  0.00  0.00    +0.000 A 
ATOM     23  H   UNL     1     -48.399 -74.662  66.514  0.00  0.00    +0.000 HD
ATOM     24  H   UNL     1     -49.682 -78.730  59.730  0.00  0.00    +0.000 HD
ENDROOT
BRANCH  11  26
ATOM     25  O   UNL     1     -50.569 -76.310  67.148  0.00  0.00    +0.000 OA
ATOM     26  C   UNL     1     -50.872 -76.066  65.986  0.00  0.00    +0.000 C 
BRANCH  26  27
ATOM     27  O   UNL     1     -52.053 -75.575  65.511  0.00  0.00    +0.000 OA
ATOM     28  C   UNL     1     -53.161 -75.561  66.372  0.00  0.00    +0.000 C 
ENDBRANCH  26  27
ENDBRANCH  11  26
BRANCH  12  30
ATOM     29  O   UNL     1     -46.748 -79.999  61.977  0.00  0.00    +0.000 OA
ATOM     30  C   UNL     1     -47.316 -79.113  61.349  0.00  0.00    +0.000 C 
BRANCH  30  31
ATOM     31  O   UNL     1     -47.285 -78.883  60.005  0.00  0.00    +0.000 OA
ATOM     32  C   UNL     1     -46.129 -78.305  59.457  0.00  0.00    +0.000 C 
ENDBRANCH  30  31
ENDBRANCH  12  30
TORSDOF 4
ENDMDL
MODEL 9
REMARK VINA RESULT:      -6.8     13.898     17.275
REMARK  Name = 5326018_Caulerpin.pdbqt.pdb
REMARK  4 active torsions:
REMARK  status: ('A' for Active; 'I' for Inactive)
REMARK    1  A    between atoms: C_11  and  C_26
REMARK    2  A    between atoms: C_12  and  C_30
REMARK    3  A    between atoms: C_26  and  O_27
REMARK    4  A    between atoms: C_30  and  O_31
REMARK                            x       y       z     vdW  Elec       q    Type
REMARK                         _______ _______ _______ _____ _____    ______ ____
ROOT
ATOM      1  N   UNL     1     -43.356 -40.566  48.095  0.00  0.00    +0.000 N 
ATOM      2  N   UNL     1     -45.673 -38.446  53.824  0.00  0.00    +0.000 N 
ATOM      3  C   UNL     1     -42.923 -40.011  50.197  0.00  0.00    +0.000 C 
ATOM      4  C   UNL     1     -45.980 -38.631  51.637  0.00  0.00    +0.000 C 
ATOM      5  C   UNL     1     -43.850 -39.855  49.169  0.00  0.00    +0.000 C 
ATOM      6  C   UNL     1     -45.009 -38.657  52.634  0.00  0.00    +0.000 C 
ATOM      7  C   UNL     1     -41.826 -40.767  49.718  0.00  0.00    +0.000 A 
ATOM      8  C   UNL     1     -47.235 -38.336  52.222  0.00  0.00    +0.000 A 
ATOM      9  C   UNL     1     -42.121 -41.099  48.396  0.00  0.00    +0.000 A 
ATOM     10  C   UNL     1     -47.014 -38.220  53.594  0.00  0.00    +0.000 A 
ATOM     11  C   UNL     1     -45.131 -39.201  49.118  0.00  0.00    +0.000 C 
ATOM     12  C   UNL     1     -43.594 -38.922  52.595  0.00  0.00    +0.000 C 
ATOM     13  C   UNL     1     -45.686 -38.893  50.262  0.00  0.00    +0.000 C 
ATOM     14  C   UNL     1     -43.126 -39.481  51.510  0.00  0.00    +0.000 C 
ATOM     15  C   UNL     1     -40.618 -41.221  50.280  0.00  0.00    +0.000 A 
ATOM     16  C   UNL     1     -48.543 -38.173  51.729  0.00  0.00    +0.000 A 
ATOM     17  C   UNL     1     -41.262 -41.862  47.597  0.00  0.00    +0.000 A 
ATOM     18  C   UNL     1     -48.039 -37.943  54.506  0.00  0.00    +0.000 A 
ATOM     19  C   UNL     1     -39.747 -41.979  49.495  0.00  0.00    +0.000 A 
ATOM     20  C   UNL     1     -49.576 -37.890  52.623  0.00  0.00    +0.000 A 
ATOM     21  C   UNL     1     -40.066 -42.291  48.177  0.00  0.00    +0.000 A 
ATOM     22  C   UNL     1     -49.325 -37.776  53.987  0.00  0.00    +0.000 A 
ATOM     23  H   UNL     1     -43.811 -40.707  47.202  0.00  0.00    +0.000 HD
ATOM     24  H   UNL     1     -45.271 -38.458  54.754  0.00  0.00    +0.000 HD
ENDROOT
BRANCH  11  26
ATOM     25  O   UNL     1     -47.023 -38.558  47.802  0.00  0.00    +0.000 OA
ATOM     26  C   UNL     1     -45.813 -38.731  47.877  0.00  0.00    +0.000 C 
BRANCH  26  27
ATOM     27  O   UNL     1     -44.872 -38.522  46.911  0.00  0.00    +0.000 OA
ATOM     28  C   UNL     1     -44.544 -37.199  46.579  0.00  0.00    +0.000 C 
ENDBRANCH  26  27
ENDBRANCH  11  26
BRANCH  12  30
ATOM     29  O   UNL     1     -42.910 -37.834  54.615  0.00  0.00    +0.000 OA
ATOM     30  C   UNL     1     -42.606 -38.496  53.629  0.00  0.00    +0.000 C 
BRANCH  30  31
ATOM     31  O   UNL     1     -41.377 -38.984  53.290  0.00  0.00    +0.000 OA
ATOM     32  C   UNL     1     -40.245 -38.239  53.652  0.00  0.00    +0.000 C 
ENDBRANCH  30  31
ENDBRANCH  12  30
TORSDOF 4
ENDMDL
