MODEL 1
REMARK VINA RESULT:      -3.7      0.000      0.000
REMARK  Name = 5350_Sulforaphane.pdbqt.pdb
REMARK  3 active torsions:
REMARK  status: ('A' for Active; 'I' for Inactive)
REMARK    1  A    between atoms: C_1  and  C_2
REMARK    2  A    between atoms: C_3  and  N_5
REMARK    3  A    between atoms: C_7  and  S_8
REMARK                            x       y       z     vdW  Elec       q    Type
REMARK                         _______ _______ _______ _____ _____    ______ ____
ROOT
ATOM      1  C   UNL     1     -33.897 -45.769  52.554  0.00  0.00    +0.000 C 
ATOM      2  C   UNL     1     -33.420 -44.340  52.273  0.00  0.00    +0.000 C 
ENDROOT
BRANCH   2   3
ATOM      3  S   UNL     1     -32.870 -42.697  51.954  0.00  0.00    +0.000 S 
ATOM      4  O   UNL     1     -33.079 -42.855  50.477  0.00  0.00    +0.000 OA
ATOM      5  C   UNL     1     -31.180 -43.176  51.833  0.00  0.00    +0.000 C 
ENDBRANCH   2   3
BRANCH   1   6
ATOM      6  C   UNL     1     -34.377 -47.196  52.835  0.00  0.00    +0.000 C 
ATOM      7  C   UNL     1     -34.857 -48.625  53.117  0.00  0.00    +0.000 C 
BRANCH   7   9
ATOM      8  S   UNL     1     -33.150 -51.629  53.627  0.00  0.00    +0.000 S 
ATOM      9  N   UNL     1     -35.275 -49.876  53.350  0.00  0.00    +0.000 NA
ATOM     10  C   UNL     1     -34.360 -50.603  53.465  0.00  0.00    +0.000 C 
ENDBRANCH   7   9
ENDBRANCH   1   6
TORSDOF 3
ENDMDL
MODEL 2
REMARK VINA RESULT:      -3.4      6.230      6.957
REMARK  Name = 5350_Sulforaphane.pdbqt.pdb
REMARK  3 active torsions:
REMARK  status: ('A' for Active; 'I' for Inactive)
REMARK    1  A    between atoms: C_1  and  C_2
REMARK    2  A    between atoms: C_3  and  N_5
REMARK    3  A    between atoms: C_7  and  S_8
REMARK                            x       y       z     vdW  Elec       q    Type
REMARK                         _______ _______ _______ _____ _____    ______ ____
ROOT
ATOM      1  C   UNL     1     -38.558 -43.483  49.271  0.00  0.00    +0.000 C 
ATOM      2  C   UNL     1     -39.326 -42.615  48.267  0.00  0.00    +0.000 C 
ENDROOT
BRANCH   2   3
ATOM      3  S   UNL     1     -40.210 -41.615  47.117  0.00  0.00    +0.000 S 
ATOM      4  O   UNL     1     -41.138 -42.740  46.768  0.00  0.00    +0.000 OA
ATOM      5  C   UNL     1     -39.127 -42.008  45.786  0.00  0.00    +0.000 C 
ENDBRANCH   2   3
BRANCH   1   6
ATOM      6  C   UNL     1     -37.793 -44.351  50.273  0.00  0.00    +0.000 C 
ATOM      7  C   UNL     1     -37.027 -45.220  51.278  0.00  0.00    +0.000 C 
BRANCH   7   9
ATOM      8  S   UNL     1     -33.694 -45.203  52.319  0.00  0.00    +0.000 S 
ATOM      9  N   UNL     1     -36.347 -45.973  52.154  0.00  0.00    +0.000 NA
ATOM     10  C   UNL     1     -35.226 -45.631  52.210  0.00  0.00    +0.000 C 
ENDBRANCH   7   9
ENDBRANCH   1   6
TORSDOF 3
ENDMDL
MODEL 3
REMARK VINA RESULT:      -3.4     22.086     23.221
REMARK  Name = 5350_Sulforaphane.pdbqt.pdb
REMARK  3 active torsions:
REMARK  status: ('A' for Active; 'I' for Inactive)
REMARK    1  A    between atoms: C_1  and  C_2
REMARK    2  A    between atoms: C_3  and  N_5
REMARK    3  A    between atoms: C_7  and  S_8
REMARK                            x       y       z     vdW  Elec       q    Type
REMARK                         _______ _______ _______ _____ _____    ______ ____
ROOT
ATOM      1  C   UNL     1     -45.174 -63.000  42.002  0.00  0.00    +0.000 C 
ATOM      2  C   UNL     1     -44.334 -64.049  41.265  0.00  0.00    +0.000 C 
ENDROOT
BRANCH   2   3
ATOM      3  S   UNL     1     -43.369 -65.252  40.414  0.00  0.00    +0.000 S 
ATOM      4  O   UNL     1     -44.592 -65.910  39.845  0.00  0.00    +0.000 OA
ATOM      5  C   UNL     1     -43.338 -66.351  41.789  0.00  0.00    +0.000 C 
ENDBRANCH   2   3
BRANCH   1   6
ATOM      6  C   UNL     1     -46.015 -61.953  42.738  0.00  0.00    +0.000 C 
ATOM      7  C   UNL     1     -46.857 -60.905  43.475  0.00  0.00    +0.000 C 
BRANCH   7   9
ATOM      8  S   UNL     1     -48.606 -61.015  46.496  0.00  0.00    +0.000 S 
ATOM      9  N   UNL     1     -47.597 -59.998  44.128  0.00  0.00    +0.000 NA
ATOM     10  C   UNL     1     -48.015 -60.448  45.128  0.00  0.00    +0.000 C 
ENDBRANCH   7   9
ENDBRANCH   1   6
TORSDOF 3
ENDMDL
MODEL 4
REMARK VINA RESULT:      -3.3     21.822     22.750
REMARK  Name = 5350_Sulforaphane.pdbqt.pdb
REMARK  3 active torsions:
REMARK  status: ('A' for Active; 'I' for Inactive)
REMARK    1  A    between atoms: C_1  and  C_2
REMARK    2  A    between atoms: C_3  and  N_5
REMARK    3  A    between atoms: C_7  and  S_8
REMARK                            x       y       z     vdW  Elec       q    Type
REMARK                         _______ _______ _______ _____ _____    ______ ____
ROOT
ATOM      1  C   UNL     1     -43.013 -59.481  37.411  0.00  0.00    +0.000 C 
ATOM      2  C   UNL     1     -43.329 -60.754  38.202  0.00  0.00    +0.000 C 
ENDROOT
BRANCH   2   3
ATOM      3  S   UNL     1     -43.693 -62.216  39.117  0.00  0.00    +0.000 S 
ATOM      4  O   UNL     1     -42.929 -61.725  40.310  0.00  0.00    +0.000 OA
ATOM      5  C   UNL     1     -42.291 -63.079  38.492  0.00  0.00    +0.000 C 
ENDBRANCH   2   3
BRANCH   1   6
ATOM      6  C   UNL     1     -42.695 -58.209  36.619  0.00  0.00    +0.000 C 
ATOM      7  C   UNL     1     -42.376 -56.936  35.827  0.00  0.00    +0.000 C 
BRANCH   7   9
ATOM      8  S   UNL     1     -44.210 -54.045  35.141  0.00  0.00    +0.000 S 
ATOM      9  N   UNL     1     -42.096 -55.830  35.123  0.00  0.00    +0.000 NA
ATOM     10  C   UNL     1     -43.004 -55.087  35.143  0.00  0.00    +0.000 C 
ENDBRANCH   7   9
ENDBRANCH   1   6
TORSDOF 3
ENDMDL
MODEL 5
REMARK VINA RESULT:      -3.3     15.398     17.601
REMARK  Name = 5350_Sulforaphane.pdbqt.pdb
REMARK  3 active torsions:
REMARK  status: ('A' for Active; 'I' for Inactive)
REMARK    1  A    between atoms: C_1  and  C_2
REMARK    2  A    between atoms: C_3  and  N_5
REMARK    3  A    between atoms: C_7  and  S_8
REMARK                            x       y       z     vdW  Elec       q    Type
REMARK                         _______ _______ _______ _____ _____    ______ ____
ROOT
ATOM      1  C   UNL     1     -34.946 -60.704  43.855  0.00  0.00    +0.000 C 
ATOM      2  C   UNL     1     -34.048 -60.488  45.079  0.00  0.00    +0.000 C 
ENDROOT
BRANCH   2   3
ATOM      3  S   UNL     1     -33.014 -60.243  46.484  0.00  0.00    +0.000 S 
ATOM      4  O   UNL     1     -34.025 -60.861  47.404  0.00  0.00    +0.000 OA
ATOM      5  C   UNL     1     -33.633 -58.623  46.786  0.00  0.00    +0.000 C 
ENDBRANCH   2   3
BRANCH   1   6
ATOM      6  C   UNL     1     -35.844 -60.921  42.634  0.00  0.00    +0.000 C 
ATOM      7  C   UNL     1     -36.744 -61.138  41.412  0.00  0.00    +0.000 C 
BRANCH   7   9
ATOM      8  S   UNL     1     -36.265 -60.499  38.012  0.00  0.00    +0.000 S 
ATOM      9  N   UNL     1     -37.520 -61.327  40.336  0.00  0.00    +0.000 NA
ATOM     10  C   UNL     1     -36.970 -60.970  39.362  0.00  0.00    +0.000 C 
ENDBRANCH   7   9
ENDBRANCH   1   6
TORSDOF 3
ENDMDL
MODEL 6
REMARK VINA RESULT:      -3.3     29.063     30.889
REMARK  Name = 5350_Sulforaphane.pdbqt.pdb
REMARK  3 active torsions:
REMARK  status: ('A' for Active; 'I' for Inactive)
REMARK    1  A    between atoms: C_1  and  C_2
REMARK    2  A    between atoms: C_3  and  N_5
REMARK    3  A    between atoms: C_7  and  S_8
REMARK                            x       y       z     vdW  Elec       q    Type
REMARK                         _______ _______ _______ _____ _____    ______ ____
ROOT
ATOM      1  C   UNL     1     -48.191 -65.050  32.329  0.00  0.00    +0.000 C 
ATOM      2  C   UNL     1     -48.434 -66.468  31.803  0.00  0.00    +0.000 C 
ENDROOT
BRANCH   2   3
ATOM      3  S   UNL     1     -48.713 -68.097  31.193  0.00  0.00    +0.000 S 
ATOM      4  O   UNL     1     -47.924 -68.710  32.311  0.00  0.00    +0.000 OA
ATOM      5  C   UNL     1     -47.306 -68.054  30.135  0.00  0.00    +0.000 C 
ENDBRANCH   2   3
BRANCH   1   6
ATOM      6  C   UNL     1     -47.952 -63.632  32.856  0.00  0.00    +0.000 C 
ATOM      7  C   UNL     1     -47.712 -62.212  33.384  0.00  0.00    +0.000 C 
BRANCH   7   9
ATOM      8  S   UNL     1     -49.044 -60.473  36.103  0.00  0.00    +0.000 S 
ATOM      9  N   UNL     1     -47.512 -60.973  33.853  0.00  0.00    +0.000 NA
ATOM     10  C   UNL     1     -48.169 -60.781  34.806  0.00  0.00    +0.000 C 
ENDBRANCH   7   9
ENDBRANCH   1   6
TORSDOF 3
ENDMDL
MODEL 7
REMARK VINA RESULT:      -3.2     21.343     22.466
REMARK  Name = 5350_Sulforaphane.pdbqt.pdb
REMARK  3 active torsions:
REMARK  status: ('A' for Active; 'I' for Inactive)
REMARK    1  A    between atoms: C_1  and  C_2
REMARK    2  A    between atoms: C_3  and  N_5
REMARK    3  A    between atoms: C_7  and  S_8
REMARK                            x       y       z     vdW  Elec       q    Type
REMARK                         _______ _______ _______ _____ _____    ______ ____
ROOT
ATOM      1  C   UNL     1     -42.504 -59.170  36.761  0.00  0.00    +0.000 C 
ATOM      2  C   UNL     1     -41.907 -60.576  36.895  0.00  0.00    +0.000 C 
ENDROOT
BRANCH   2   3
ATOM      3  S   UNL     1     -41.225 -62.193  37.046  0.00  0.00    +0.000 S 
ATOM      4  O   UNL     1     -41.379 -62.178  38.538  0.00  0.00    +0.000 OA
ATOM      5  C   UNL     1     -39.571 -61.598  37.145  0.00  0.00    +0.000 C 
ENDBRANCH   2   3
BRANCH   1   6
ATOM      6  C   UNL     1     -43.101 -57.766  36.630  0.00  0.00    +0.000 C 
ATOM      7  C   UNL     1     -43.699 -56.360  36.499  0.00  0.00    +0.000 C 
BRANCH   7   9
ATOM      8  S   UNL     1     -42.428 -53.342  35.286  0.00  0.00    +0.000 S 
ATOM      9  N   UNL     1     -44.223 -55.131  36.397  0.00  0.00    +0.000 NA
ATOM     10  C   UNL     1     -43.447 -54.388  35.924  0.00  0.00    +0.000 C 
ENDBRANCH   7   9
ENDBRANCH   1   6
TORSDOF 3
ENDMDL
MODEL 8
REMARK VINA RESULT:      -3.1     43.826     45.455
REMARK  Name = 5350_Sulforaphane.pdbqt.pdb
REMARK  3 active torsions:
REMARK  status: ('A' for Active; 'I' for Inactive)
REMARK    1  A    between atoms: C_1  and  C_2
REMARK    2  A    between atoms: C_3  and  N_5
REMARK    3  A    between atoms: C_7  and  S_8
REMARK                            x       y       z     vdW  Elec       q    Type
REMARK                         _______ _______ _______ _____ _____    ______ ____
ROOT
ATOM      1  C   UNL     1     -63.847 -70.143  30.156  0.00  0.00    +0.000 C 
ATOM      2  C   UNL     1     -63.253 -70.243  31.565  0.00  0.00    +0.000 C 
ENDROOT
BRANCH   2   3
ATOM      3  S   UNL     1     -62.575 -70.359  33.187  0.00  0.00    +0.000 S 
ATOM      4  O   UNL     1     -63.784 -71.082  33.700  0.00  0.00    +0.000 OA
ATOM      5  C   UNL     1     -63.218 -68.796  33.680  0.00  0.00    +0.000 C 
ENDBRANCH   2   3
BRANCH   1   6
ATOM      6  C   UNL     1     -64.441 -70.041  28.748  0.00  0.00    +0.000 C 
ATOM      7  C   UNL     1     -65.036 -69.939  27.338  0.00  0.00    +0.000 C 
BRANCH   7   9
ATOM      8  S   UNL     1     -67.669 -71.623  25.781  0.00  0.00    +0.000 S 
ATOM      9  N   UNL     1     -65.559 -69.862  26.107  0.00  0.00    +0.000 NA
ATOM     10  C   UNL     1     -66.452 -70.615  25.989  0.00  0.00    +0.000 C 
ENDBRANCH   7   9
ENDBRANCH   1   6
TORSDOF 3
ENDMDL
MODEL 9
REMARK VINA RESULT:      -3.1     36.846     38.490
REMARK  Name = 5350_Sulforaphane.pdbqt.pdb
REMARK  3 active torsions:
REMARK  status: ('A' for Active; 'I' for Inactive)
REMARK    1  A    between atoms: C_1  and  C_2
REMARK    2  A    between atoms: C_3  and  N_5
REMARK    3  A    between atoms: C_7  and  S_8
REMARK                            x       y       z     vdW  Elec       q    Type
REMARK                         _______ _______ _______ _____ _____    ______ ____
ROOT
ATOM      1  C   UNL     1     -64.194 -65.862  41.420  0.00  0.00    +0.000 C 
ATOM      2  C   UNL     1     -62.974 -64.950  41.251  0.00  0.00    +0.000 C 
ENDROOT
BRANCH   2   3
ATOM      3  S   UNL     1     -61.574 -63.898  41.058  0.00  0.00    +0.000 S 
ATOM      4  O   UNL     1     -62.368 -62.894  40.276  0.00  0.00    +0.000 OA
ATOM      5  C   UNL     1     -61.035 -64.711  39.592  0.00  0.00    +0.000 C 
ENDBRANCH   2   3
BRANCH   1   6
ATOM      6  C   UNL     1     -65.413 -66.774  41.585  0.00  0.00    +0.000 C 
ATOM      7  C   UNL     1     -66.634 -67.687  41.750  0.00  0.00    +0.000 C 
BRANCH   7   9
ATOM      8  S   UNL     1     -67.089 -70.708  43.442  0.00  0.00    +0.000 S 
ATOM      9  N   UNL     1     -67.697 -68.487  41.907  0.00  0.00    +0.000 NA
ATOM     10  C   UNL     1     -67.419 -69.421  42.560  0.00  0.00    +0.000 C 
ENDBRANCH   7   9
ENDBRANCH   1   6
TORSDOF 3
ENDMDL
