MODEL 1
REMARK VINA RESULT:      -6.2      0.000      0.000
REMARK  Name = 5357283_Methylferulate.pdbqt.pdb
REMARK  5 active torsions:
REMARK  status: ('A' for Active; 'I' for Inactive)
REMARK    1  A    between atoms: C_1  and  C_11
REMARK    2  A    between atoms: C_2  and  O_7
REMARK    3  A    between atoms: C_5  and  O_9
REMARK    4  A    between atoms: C_12  and  C_14
REMARK    5  A    between atoms: C_14  and  O_15
REMARK                            x       y       z     vdW  Elec       q    Type
REMARK                         _______ _______ _______ _____ _____    ______ ____
ROOT
ATOM      1  C   UNL     1     -57.361 -61.365  42.080  0.00  0.00    +0.000 A 
ATOM      2  C   UNL     1     -54.981 -60.897  42.092  0.00  0.00    +0.000 A 
ATOM      3  C   UNL     1     -56.209 -60.965  42.757  0.00  0.00    +0.000 A 
ATOM      4  C   UNL     1     -57.297 -61.700  40.730  0.00  0.00    +0.000 A 
ATOM      5  C   UNL     1     -54.932 -61.236  40.738  0.00  0.00    +0.000 A 
ATOM      6  C   UNL     1     -56.081 -61.636  40.056  0.00  0.00    +0.000 A 
ENDROOT
BRANCH   2   7
ATOM      7  O   UNL     1     -53.801 -60.514  42.684  0.00  0.00    +0.000 OA
ATOM      8  C   UNL     1     -53.615 -59.129  42.814  0.00  0.00    +0.000 C 
ENDBRANCH   2   7
BRANCH   5   9
ATOM      9  O   UNL     1     -53.739 -61.176  40.070  0.00  0.00    +0.000 OA
ATOM     10  H   UNL     1     -53.716 -60.356  39.543  0.00  0.00    +0.000 HD
ENDBRANCH   5   9
BRANCH   1  11
ATOM     11  C   UNL     1     -58.605 -61.428  42.774  0.00  0.00    +0.000 C 
ATOM     12  C   UNL     1     -59.654 -61.483  43.358  0.00  0.00    +0.000 C 
BRANCH  12  14
ATOM     13  O   UNL     1     -61.149 -60.768  44.969  0.00  0.00    +0.000 OA
ATOM     14  C   UNL     1     -60.917 -61.550  44.057  0.00  0.00    +0.000 C 
BRANCH  14  15
ATOM     15  O   UNL     1     -61.706 -62.545  43.555  0.00  0.00    +0.000 OA
ATOM     16  C   UNL     1     -61.142 -63.824  43.413  0.00  0.00    +0.000 C 
ENDBRANCH  14  15
ENDBRANCH  12  14
ENDBRANCH   1  11
TORSDOF 5
ENDMDL
MODEL 2
REMARK VINA RESULT:      -5.8      1.773      6.856
REMARK  Name = 5357283_Methylferulate.pdbqt.pdb
REMARK  5 active torsions:
REMARK  status: ('A' for Active; 'I' for Inactive)
REMARK    1  A    between atoms: C_1  and  C_11
REMARK    2  A    between atoms: C_2  and  O_7
REMARK    3  A    between atoms: C_5  and  O_9
REMARK    4  A    between atoms: C_12  and  C_14
REMARK    5  A    between atoms: C_14  and  O_15
REMARK                            x       y       z     vdW  Elec       q    Type
REMARK                         _______ _______ _______ _____ _____    ______ ____
ROOT
ATOM      1  C   UNL     1     -59.072 -62.185  42.036  0.00  0.00    +0.000 A 
ATOM      2  C   UNL     1     -60.617 -64.035  42.308  0.00  0.00    +0.000 A 
ATOM      3  C   UNL     1     -59.485 -63.475  41.707  0.00  0.00    +0.000 A 
ATOM      4  C   UNL     1     -59.786 -61.440  42.972  0.00  0.00    +0.000 A 
ATOM      5  C   UNL     1     -61.323 -63.275  43.245  0.00  0.00    +0.000 A 
ATOM      6  C   UNL     1     -60.914 -61.985  43.578  0.00  0.00    +0.000 A 
ENDROOT
BRANCH   2   7
ATOM      7  O   UNL     1     -61.091 -65.296  42.041  0.00  0.00    +0.000 OA
ATOM      8  C   UNL     1     -61.733 -65.448  40.802  0.00  0.00    +0.000 C 
ENDBRANCH   2   7
BRANCH   5   9
ATOM      9  O   UNL     1     -62.433 -63.806  43.845  0.00  0.00    +0.000 OA
ATOM     10  H   UNL     1     -63.113 -63.960  43.164  0.00  0.00    +0.000 HD
ENDBRANCH   5   9
BRANCH   1  11
ATOM     11  C   UNL     1     -57.917 -61.629  41.412  0.00  0.00    +0.000 C 
ATOM     12  C   UNL     1     -56.943 -61.159  40.886  0.00  0.00    +0.000 C 
BRANCH  12  14
ATOM     13  O   UNL     1     -55.730 -60.513  39.028  0.00  0.00    +0.000 OA
ATOM     14  C   UNL     1     -55.776 -60.595  40.249  0.00  0.00    +0.000 C 
BRANCH  14  15
ATOM     15  O   UNL     1     -54.844 -60.217  41.172  0.00  0.00    +0.000 OA
ATOM     16  C   UNL     1     -54.002 -59.138  40.853  0.00  0.00    +0.000 C 
ENDBRANCH  14  15
ENDBRANCH  12  14
ENDBRANCH   1  11
TORSDOF 5
ENDMDL
MODEL 3
REMARK VINA RESULT:      -5.8      3.811      5.768
REMARK  Name = 5357283_Methylferulate.pdbqt.pdb
REMARK  5 active torsions:
REMARK  status: ('A' for Active; 'I' for Inactive)
REMARK    1  A    between atoms: C_1  and  C_11
REMARK    2  A    between atoms: C_2  and  O_7
REMARK    3  A    between atoms: C_5  and  O_9
REMARK    4  A    between atoms: C_12  and  C_14
REMARK    5  A    between atoms: C_14  and  O_15
REMARK                            x       y       z     vdW  Elec       q    Type
REMARK                         _______ _______ _______ _____ _____    ______ ____
ROOT
ATOM      1  C   UNL     1     -60.108 -64.025  41.817  0.00  0.00    +0.000 A 
ATOM      2  C   UNL     1     -59.181 -61.792  41.629  0.00  0.00    +0.000 A 
ATOM      3  C   UNL     1     -59.279 -63.109  41.170  0.00  0.00    +0.000 A 
ATOM      4  C   UNL     1     -60.848 -63.634  42.930  0.00  0.00    +0.000 A 
ATOM      5  C   UNL     1     -59.929 -61.414  42.747  0.00  0.00    +0.000 A 
ATOM      6  C   UNL     1     -60.759 -62.326  43.397  0.00  0.00    +0.000 A 
ENDROOT
BRANCH   2   7
ATOM      7  O   UNL     1     -58.389 -60.828  41.051  0.00  0.00    +0.000 OA
ATOM      8  C   UNL     1     -57.088 -61.237  40.720  0.00  0.00    +0.000 C 
ENDBRANCH   2   7
BRANCH   5   9
ATOM      9  O   UNL     1     -59.847 -60.129  43.211  0.00  0.00    +0.000 OA
ATOM     10  H   UNL     1     -60.545 -59.992  43.877  0.00  0.00    +0.000 HD
ENDBRANCH   5   9
BRANCH   1  11
ATOM     11  C   UNL     1     -60.194 -65.364  41.336  0.00  0.00    +0.000 C 
ATOM     12  C   UNL     1     -60.268 -66.494  40.931  0.00  0.00    +0.000 C 
BRANCH  12  14
ATOM     13  O   UNL     1     -60.900 -68.085  39.378  0.00  0.00    +0.000 OA
ATOM     14  C   UNL     1     -60.355 -67.853  40.449  0.00  0.00    +0.000 C 
BRANCH  14  15
ATOM     15  O   UNL     1     -59.775 -68.726  41.326  0.00  0.00    +0.000 OA
ATOM     16  C   UNL     1     -58.372 -68.757  41.392  0.00  0.00    +0.000 C 
ENDBRANCH  14  15
ENDBRANCH  12  14
ENDBRANCH   1  11
TORSDOF 5
ENDMDL
MODEL 4
REMARK VINA RESULT:      -5.3      3.233      5.699
REMARK  Name = 5357283_Methylferulate.pdbqt.pdb
REMARK  5 active torsions:
REMARK  status: ('A' for Active; 'I' for Inactive)
REMARK    1  A    between atoms: C_1  and  C_11
REMARK    2  A    between atoms: C_2  and  O_7
REMARK    3  A    between atoms: C_5  and  O_9
REMARK    4  A    between atoms: C_12  and  C_14
REMARK    5  A    between atoms: C_14  and  O_15
REMARK                            x       y       z     vdW  Elec       q    Type
REMARK                         _______ _______ _______ _____ _____    ______ ____
ROOT
ATOM      1  C   UNL     1     -61.050 -63.676  42.379  0.00  0.00    +0.000 A 
ATOM      2  C   UNL     1     -59.748 -61.681  41.927  0.00  0.00    +0.000 A 
ATOM      3  C   UNL     1     -60.229 -62.932  41.532  0.00  0.00    +0.000 A 
ATOM      4  C   UNL     1     -61.400 -63.176  43.630  0.00  0.00    +0.000 A 
ATOM      5  C   UNL     1     -60.107 -61.191  43.186  0.00  0.00    +0.000 A 
ATOM      6  C   UNL     1     -60.928 -61.931  44.036  0.00  0.00    +0.000 A 
ENDROOT
BRANCH   2   7
ATOM      7  O   UNL     1     -58.936 -60.885  41.156  0.00  0.00    +0.000 OA
ATOM      8  C   UNL     1     -57.598 -61.298  41.066  0.00  0.00    +0.000 C 
ENDBRANCH   2   7
BRANCH   5   9
ATOM      9  O   UNL     1     -59.648 -59.967  43.591  0.00  0.00    +0.000 OA
ATOM     10  H   UNL     1     -60.279 -59.593  44.233  0.00  0.00    +0.000 HD
ENDBRANCH   5   9
BRANCH   1  11
ATOM     11  C   UNL     1     -61.530 -64.952  41.960  0.00  0.00    +0.000 C 
ATOM     12  C   UNL     1     -61.935 -66.028  41.608  0.00  0.00    +0.000 C 
BRANCH  12  14
ATOM     13  O   UNL     1     -61.622 -68.216  40.932  0.00  0.00    +0.000 OA
ATOM     14  C   UNL     1     -62.419 -67.323  41.188  0.00  0.00    +0.000 C 
BRANCH  14  15
ATOM     15  O   UNL     1     -63.783 -67.348  41.140  0.00  0.00    +0.000 OA
ATOM     16  C   UNL     1     -64.489 -67.038  42.314  0.00  0.00    +0.000 C 
ENDBRANCH  14  15
ENDBRANCH  12  14
ENDBRANCH   1  11
TORSDOF 5
ENDMDL
MODEL 5
REMARK VINA RESULT:      -5.2     27.758     28.959
REMARK  Name = 5357283_Methylferulate.pdbqt.pdb
REMARK  5 active torsions:
REMARK  status: ('A' for Active; 'I' for Inactive)
REMARK    1  A    between atoms: C_1  and  C_11
REMARK    2  A    between atoms: C_2  and  O_7
REMARK    3  A    between atoms: C_5  and  O_9
REMARK    4  A    between atoms: C_12  and  C_14
REMARK    5  A    between atoms: C_14  and  O_15
REMARK                            x       y       z     vdW  Elec       q    Type
REMARK                         _______ _______ _______ _____ _____    ______ ____
ROOT
ATOM      1  C   UNL     1     -33.950 -48.559  52.488  0.00  0.00    +0.000 A 
ATOM      2  C   UNL     1     -32.732 -50.606  52.034  0.00  0.00    +0.000 A 
ATOM      3  C   UNL     1     -32.915 -49.233  51.843  0.00  0.00    +0.000 A 
ATOM      4  C   UNL     1     -34.815 -49.251  53.333  0.00  0.00    +0.000 A 
ATOM      5  C   UNL     1     -33.607 -51.287  52.884  0.00  0.00    +0.000 A 
ATOM      6  C   UNL     1     -34.645 -50.617  53.532  0.00  0.00    +0.000 A 
ENDROOT
BRANCH   2   7
ATOM      7  O   UNL     1     -31.739 -51.345  51.438  0.00  0.00    +0.000 OA
ATOM      8  C   UNL     1     -31.882 -51.541  50.055  0.00  0.00    +0.000 C 
ENDBRANCH   2   7
BRANCH   5   9
ATOM      9  O   UNL     1     -33.444 -52.631  53.085  0.00  0.00    +0.000 OA
ATOM     10  H   UNL     1     -33.083 -52.772  53.979  0.00  0.00    +0.000 HD
ENDBRANCH   5   9
BRANCH   1  11
ATOM     11  C   UNL     1     -34.122 -47.159  52.281  0.00  0.00    +0.000 C 
ATOM     12  C   UNL     1     -34.269 -45.978  52.105  0.00  0.00    +0.000 C 
BRANCH  12  14
ATOM     13  O   UNL     1     -33.647 -43.949  51.191  0.00  0.00    +0.000 OA
ATOM     14  C   UNL     1     -34.444 -44.561  51.889  0.00  0.00    +0.000 C 
BRANCH  14  15
ATOM     15  O   UNL     1     -35.549 -44.095  52.543  0.00  0.00    +0.000 OA
ATOM     16  C   UNL     1     -36.811 -44.483  52.063  0.00  0.00    +0.000 C 
ENDBRANCH  14  15
ENDBRANCH  12  14
ENDBRANCH   1  11
TORSDOF 5
ENDMDL
MODEL 6
REMARK VINA RESULT:      -5.2     27.192     28.962
REMARK  Name = 5357283_Methylferulate.pdbqt.pdb
REMARK  5 active torsions:
REMARK  status: ('A' for Active; 'I' for Inactive)
REMARK    1  A    between atoms: C_1  and  C_11
REMARK    2  A    between atoms: C_2  and  O_7
REMARK    3  A    between atoms: C_5  and  O_9
REMARK    4  A    between atoms: C_12  and  C_14
REMARK    5  A    between atoms: C_14  and  O_15
REMARK                            x       y       z     vdW  Elec       q    Type
REMARK                         _______ _______ _______ _____ _____    ______ ____
ROOT
ATOM      1  C   UNL     1     -35.322 -45.535  52.250  0.00  0.00    +0.000 A 
ATOM      2  C   UNL     1     -36.780 -43.843  51.305  0.00  0.00    +0.000 A 
ATOM      3  C   UNL     1     -36.520 -45.176  51.632  0.00  0.00    +0.000 A 
ATOM      4  C   UNL     1     -34.371 -44.562  52.546  0.00  0.00    +0.000 A 
ATOM      5  C   UNL     1     -35.816 -42.878  51.609  0.00  0.00    +0.000 A 
ATOM      6  C   UNL     1     -34.617 -43.230  52.226  0.00  0.00    +0.000 A 
ENDROOT
BRANCH   2   7
ATOM      7  O   UNL     1     -37.932 -43.406  50.697  0.00  0.00    +0.000 OA
ATOM      8  C   UNL     1     -38.079 -43.773  49.351  0.00  0.00    +0.000 C 
ENDBRANCH   2   7
BRANCH   5   9
ATOM      9  O   UNL     1     -36.053 -41.566  51.298  0.00  0.00    +0.000 OA
ATOM     10  H   UNL     1     -35.836 -41.016  52.073  0.00  0.00    +0.000 HD
ENDBRANCH   5   9
BRANCH   1  11
ATOM     11  C   UNL     1     -35.073 -46.900  52.575  0.00  0.00    +0.000 C 
ATOM     12  C   UNL     1     -34.863 -48.052  52.851  0.00  0.00    +0.000 C 
BRANCH  12  14
ATOM     13  O   UNL     1     -35.547 -50.196  53.378  0.00  0.00    +0.000 OA
ATOM     14  C   UNL     1     -34.609 -49.434  53.186  0.00  0.00    +0.000 C 
BRANCH  14  15
ATOM     15  O   UNL     1     -33.268 -49.690  53.240  0.00  0.00    +0.000 OA
ATOM     16  C   UNL     1     -32.860 -51.006  53.515  0.00  0.00    +0.000 C 
ENDBRANCH  14  15
ENDBRANCH  12  14
ENDBRANCH   1  11
TORSDOF 5
ENDMDL
MODEL 7
REMARK VINA RESULT:      -5.2      4.430      7.280
REMARK  Name = 5357283_Methylferulate.pdbqt.pdb
REMARK  5 active torsions:
REMARK  status: ('A' for Active; 'I' for Inactive)
REMARK    1  A    between atoms: C_1  and  C_11
REMARK    2  A    between atoms: C_2  and  O_7
REMARK    3  A    between atoms: C_5  and  O_9
REMARK    4  A    between atoms: C_12  and  C_14
REMARK    5  A    between atoms: C_14  and  O_15
REMARK                            x       y       z     vdW  Elec       q    Type
REMARK                         _______ _______ _______ _____ _____    ______ ____
ROOT
ATOM      1  C   UNL     1     -60.574 -64.704  40.468  0.00  0.00    +0.000 A 
ATOM      2  C   UNL     1     -61.962 -66.378  39.394  0.00  0.00    +0.000 A 
ATOM      3  C   UNL     1     -61.714 -65.047  39.742  0.00  0.00    +0.000 A 
ATOM      4  C   UNL     1     -59.668 -65.690  40.853  0.00  0.00    +0.000 A 
ATOM      5  C   UNL     1     -61.044 -67.356  39.787  0.00  0.00    +0.000 A 
ATOM      6  C   UNL     1     -59.903 -67.019  40.513  0.00  0.00    +0.000 A 
ENDROOT
BRANCH   2   7
ATOM      7  O   UNL     1     -63.058 -66.800  38.682  0.00  0.00    +0.000 OA
ATOM      8  C   UNL     1     -63.160 -66.293  37.377  0.00  0.00    +0.000 C 
ENDBRANCH   2   7
BRANCH   5   9
ATOM      9  O   UNL     1     -61.269 -68.665  39.455  0.00  0.00    +0.000 OA
ATOM     10  H   UNL     1     -61.250 -68.748  38.484  0.00  0.00    +0.000 HD
ENDBRANCH   5   9
BRANCH   1  11
ATOM     11  C   UNL     1     -60.337 -63.342  40.815  0.00  0.00    +0.000 C 
ATOM     12  C   UNL     1     -60.138 -62.193  41.110  0.00  0.00    +0.000 C 
BRANCH  12  14
ATOM     13  O   UNL     1     -60.087 -59.931  40.640  0.00  0.00    +0.000 OA
ATOM     14  C   UNL     1     -59.901 -60.814  41.467  0.00  0.00    +0.000 C 
BRANCH  14  15
ATOM     15  O   UNL     1     -59.477 -60.705  42.761  0.00  0.00    +0.000 OA
ATOM     16  C   UNL     1     -60.238 -61.339  43.758  0.00  0.00    +0.000 C 
ENDBRANCH  14  15
ENDBRANCH  12  14
ENDBRANCH   1  11
TORSDOF 5
ENDMDL
MODEL 8
REMARK VINA RESULT:      -5.1      4.325      7.540
REMARK  Name = 5357283_Methylferulate.pdbqt.pdb
REMARK  5 active torsions:
REMARK  status: ('A' for Active; 'I' for Inactive)
REMARK    1  A    between atoms: C_1  and  C_11
REMARK    2  A    between atoms: C_2  and  O_7
REMARK    3  A    between atoms: C_5  and  O_9
REMARK    4  A    between atoms: C_12  and  C_14
REMARK    5  A    between atoms: C_14  and  O_15
REMARK                            x       y       z     vdW  Elec       q    Type
REMARK                         _______ _______ _______ _____ _____    ______ ____
ROOT
ATOM      1  C   UNL     1     -60.097 -64.971  40.404  0.00  0.00    +0.000 A 
ATOM      2  C   UNL     1     -62.092 -65.958  39.440  0.00  0.00    +0.000 A 
ATOM      3  C   UNL     1     -61.352 -64.832  39.813  0.00  0.00    +0.000 A 
ATOM      4  C   UNL     1     -59.569 -66.240  40.629  0.00  0.00    +0.000 A 
ATOM      5  C   UNL     1     -61.549 -67.224  39.672  0.00  0.00    +0.000 A 
ATOM      6  C   UNL     1     -60.295 -67.369  40.263  0.00  0.00    +0.000 A 
ENDROOT
BRANCH   2   7
ATOM      7  O   UNL     1     -63.334 -65.908  38.853  0.00  0.00    +0.000 OA
ATOM      8  C   UNL     1     -63.384 -65.270  37.604  0.00  0.00    +0.000 C 
ENDBRANCH   2   7
BRANCH   5   9
ATOM      9  O   UNL     1     -62.257 -68.338  39.313  0.00  0.00    +0.000 OA
ATOM     10  H   UNL     1     -62.616 -68.754  40.118  0.00  0.00    +0.000 HD
ENDBRANCH   5   9
BRANCH   1  11
ATOM     11  C   UNL     1     -59.357 -63.812  40.779  0.00  0.00    +0.000 C 
ATOM     12  C   UNL     1     -58.731 -62.835  41.095  0.00  0.00    +0.000 C 
BRANCH  12  14
ATOM     13  O   UNL     1     -58.124 -61.183  42.592  0.00  0.00    +0.000 OA
ATOM     14  C   UNL     1     -57.977 -61.664  41.476  0.00  0.00    +0.000 C 
BRANCH  14  15
ATOM     15  O   UNL     1     -57.162 -61.250  40.462  0.00  0.00    +0.000 OA
ATOM     16  C   UNL     1     -56.141 -62.119  40.041  0.00  0.00    +0.000 C 
ENDBRANCH  14  15
ENDBRANCH  12  14
ENDBRANCH   1  11
TORSDOF 5
ENDMDL
MODEL 9
REMARK VINA RESULT:      -5.1     27.688     30.263
REMARK  Name = 5357283_Methylferulate.pdbqt.pdb
REMARK  5 active torsions:
REMARK  status: ('A' for Active; 'I' for Inactive)
REMARK    1  A    between atoms: C_1  and  C_11
REMARK    2  A    between atoms: C_2  and  O_7
REMARK    3  A    between atoms: C_5  and  O_9
REMARK    4  A    between atoms: C_12  and  C_14
REMARK    5  A    between atoms: C_14  and  O_15
REMARK                            x       y       z     vdW  Elec       q    Type
REMARK                         _______ _______ _______ _____ _____    ______ ____
ROOT
ATOM      1  C   UNL     1     -32.022 -52.657  55.522  0.00  0.00    +0.000 A 
ATOM      2  C   UNL     1     -29.979 -53.902  55.919  0.00  0.00    +0.000 A 
ATOM      3  C   UNL     1     -30.785 -53.125  55.082  0.00  0.00    +0.000 A 
ATOM      4  C   UNL     1     -32.467 -52.962  56.807  0.00  0.00    +0.000 A 
ATOM      5  C   UNL     1     -30.439 -54.200  57.205  0.00  0.00    +0.000 A 
ATOM      6  C   UNL     1     -31.675 -53.734  57.650  0.00  0.00    +0.000 A 
ENDROOT
BRANCH   2   7
ATOM      7  O   UNL     1     -28.750 -54.402  55.564  0.00  0.00    +0.000 OA
ATOM      8  C   UNL     1     -27.952 -53.545  54.790  0.00  0.00    +0.000 C 
ENDBRANCH   2   7
BRANCH   5   9
ATOM      9  O   UNL     1     -29.664 -54.958  58.040  0.00  0.00    +0.000 OA
ATOM     10  H   UNL     1     -28.726 -54.768  57.855  0.00  0.00    +0.000 HD
ENDBRANCH   5   9
BRANCH   1  11
ATOM     11  C   UNL     1     -32.831 -51.866  54.655  0.00  0.00    +0.000 C 
ATOM     12  C   UNL     1     -33.513 -51.200  53.921  0.00  0.00    +0.000 C 
BRANCH  12  14
ATOM     13  O   UNL     1     -35.469 -50.100  53.369  0.00  0.00    +0.000 OA
ATOM     14  C   UNL     1     -34.327 -50.396  53.040  0.00  0.00    +0.000 C 
BRANCH  14  15
ATOM     15  O   UNL     1     -33.649 -50.071  51.901  0.00  0.00    +0.000 OA
ATOM     16  C   UNL     1     -32.617 -49.122  51.997  0.00  0.00    +0.000 C 
ENDBRANCH  14  15
ENDBRANCH  12  14
ENDBRANCH   1  11
TORSDOF 5
ENDMDL
