MODEL 1
REMARK VINA RESULT:      -7.0      0.000      0.000
REMARK  Name = 5358691_Yuanhuacine.pdbqt.pdb
REMARK  12 active torsions:
REMARK  status: ('A' for Active; 'I' for Inactive)
REMARK    1  A    between atoms: C_9  and  C_48
REMARK    2  A    between atoms: C_13  and  C_23
REMARK    3  A    between atoms: C_14  and  O_26
REMARK    4  A    between atoms: C_15  and  O_28
REMARK    5  A    between atoms: C_16  and  O_39
REMARK    6  A    between atoms: C_17  and  C_30
REMARK    7  A    between atoms: C_31  and  C_32
REMARK    8  A    between atoms: C_33  and  C_34
REMARK    9  A    between atoms: C_35  and  C_36
REMARK   10  A    between atoms: O_39  and  C_41
REMARK   11  A    between atoms: C_41  and  C_42
REMARK   12  A    between atoms: C_48  and  O_49
REMARK                            x       y       z     vdW  Elec       q    Type
REMARK                         _______ _______ _______ _____ _____    ______ ____
ROOT
ATOM      1  O   UNL     1     -44.020 -64.177  35.332  0.00  0.00    +0.000 OA
ATOM      2  O   UNL     1     -42.202 -63.801  38.301  0.00  0.00    +0.000 OA
ATOM      3  O   UNL     1     -42.857 -66.043  37.879  0.00  0.00    +0.000 OA
ATOM      4  O   UNL     1     -42.541 -65.371  40.048  0.00  0.00    +0.000 OA
ATOM      5  O   UNL     1     -45.051 -59.133  36.115  0.00  0.00    +0.000 OA
ATOM      6  C   UNL     1     -44.449 -64.436  37.624  0.00  0.00    +0.000 C 
ATOM      7  C   UNL     1     -43.578 -63.318  38.217  0.00  0.00    +0.000 C 
ATOM      8  C   UNL     1     -44.956 -64.498  36.283  0.00  0.00    +0.000 C 
ATOM      9  C   UNL     1     -45.291 -63.520  35.246  0.00  0.00    +0.000 C 
ATOM     10  C   UNL     1     -44.105 -65.656  38.365  0.00  0.00    +0.000 C 
ATOM     11  C   UNL     1     -43.564 -62.095  37.353  0.00  0.00    +0.000 C 
ATOM     12  C   UNL     1     -44.082 -63.007  39.658  0.00  0.00    +0.000 C 
ATOM     13  C   UNL     1     -43.982 -65.520  39.903  0.00  0.00    +0.000 C 
ATOM     14  C   UNL     1     -44.848 -61.475  36.849  0.00  0.00    +0.000 C 
ATOM     15  C   UNL     1     -45.424 -62.082  35.604  0.00  0.00    +0.000 C 
ATOM     16  C   UNL     1     -44.518 -64.185  40.390  0.00  0.00    +0.000 C 
ATOM     17  C   UNL     1     -42.073 -65.184  38.714  0.00  0.00    +0.000 C 
ATOM     18  C   UNL     1     -42.532 -61.125  37.266  0.00  0.00    +0.000 C 
ATOM     19  C   UNL     1     -43.935 -61.678  40.399  0.00  0.00    +0.000 C 
ATOM     20  C   UNL     1     -44.332 -60.027  36.553  0.00  0.00    +0.000 C 
ATOM     21  C   UNL     1     -42.868 -59.945  36.865  0.00  0.00    +0.000 C 
ATOM     22  C   UNL     1     -41.902 -58.949  36.311  0.00  0.00    +0.000 C 
ENDROOT
BRANCH  13  23
ATOM     23  C   UNL     1     -44.531 -66.793  40.589  0.00  0.00    +0.000 C 
ATOM     24  C   UNL     1     -43.755 -67.615  41.616  0.00  0.00    +0.000 C 
ATOM     25  C   UNL     1     -45.617 -67.464  40.153  0.00  0.00    +0.000 C 
ENDBRANCH  13  23
BRANCH  14  26
ATOM     26  O   UNL     1     -45.849 -61.493  37.845  0.00  0.00    +0.000 OA
ATOM     27  H   UNL     1     -46.708 -61.366  37.395  0.00  0.00    +0.000 HD
ENDBRANCH  14  26
BRANCH  15  28
ATOM     28  O   UNL     1     -46.281 -61.277  34.848  0.00  0.00    +0.000 OA
ATOM     29  H   UNL     1     -46.587 -60.461  35.298  0.00  0.00    +0.000 HD
ENDBRANCH  15  28
BRANCH  17  30
ATOM     30  C   UNL     1     -40.668 -65.569  38.636  0.00  0.00    +0.000 C 
ATOM     31  C   UNL     1     -39.512 -65.887  38.572  0.00  0.00    +0.000 C 
BRANCH  31  32
ATOM     32  C   UNL     1     -38.039 -66.295  38.492  0.00  0.00    +0.000 C 
ATOM     33  C   UNL     1     -36.883 -66.615  38.428  0.00  0.00    +0.000 C 
BRANCH  33  34
ATOM     34  C   UNL     1     -35.410 -67.026  38.346  0.00  0.00    +0.000 C 
ATOM     35  C   UNL     1     -33.938 -67.438  38.265  0.00  0.00    +0.000 C 
BRANCH  35  36
ATOM     36  C   UNL     1     -32.465 -67.852  38.183  0.00  0.00    +0.000 C 
ATOM     37  C   UNL     1     -30.993 -68.266  38.101  0.00  0.00    +0.000 C 
ATOM     38  C   UNL     1     -29.520 -68.681  38.019  0.00  0.00    +0.000 C 
ENDBRANCH  35  36
ENDBRANCH  33  34
ENDBRANCH  31  32
ENDBRANCH  17  30
BRANCH  16  39
ATOM     39  O   UNL     1     -45.353 -64.000  41.505  0.00  0.00    +0.000 OA
BRANCH  39  41
ATOM     40  O   UNL     1     -47.132 -63.268  40.249  0.00  0.00    +0.000 OA
ATOM     41  C   UNL     1     -46.454 -63.229  41.261  0.00  0.00    +0.000 C 
BRANCH  41  42
ATOM     42  C   UNL     1     -46.688 -62.301  42.381  0.00  0.00    +0.000 A 
ATOM     43  C   UNL     1     -46.344 -62.636  43.691  0.00  0.00    +0.000 A 
ATOM     44  C   UNL     1     -47.265 -61.063  42.104  0.00  0.00    +0.000 A 
ATOM     45  C   UNL     1     -46.580 -61.731  44.723  0.00  0.00    +0.000 A 
ATOM     46  C   UNL     1     -47.498 -60.159  43.137  0.00  0.00    +0.000 A 
ATOM     47  C   UNL     1     -47.156 -60.494  44.445  0.00  0.00    +0.000 A 
ENDBRANCH  41  42
ENDBRANCH  39  41
ENDBRANCH  16  39
BRANCH   9  48
ATOM     48  C   UNL     1     -46.008 -63.991  34.069  0.00  0.00    +0.000 C 
BRANCH  48  49
ATOM     49  O   UNL     1     -46.658 -64.426  32.993  0.00  0.00    +0.000 OA
ATOM     50  H   UNL     1     -46.400 -65.342  32.787  0.00  0.00    +0.000 HD
ENDBRANCH  48  49
ENDBRANCH   9  48
TORSDOF 12
ENDMDL
MODEL 2
REMARK VINA RESULT:      -6.9     21.563     23.568
REMARK  Name = 5358691_Yuanhuacine.pdbqt.pdb
REMARK  12 active torsions:
REMARK  status: ('A' for Active; 'I' for Inactive)
REMARK    1  A    between atoms: C_9  and  C_48
REMARK    2  A    between atoms: C_13  and  C_23
REMARK    3  A    between atoms: C_14  and  O_26
REMARK    4  A    between atoms: C_15  and  O_28
REMARK    5  A    between atoms: C_16  and  O_39
REMARK    6  A    between atoms: C_17  and  C_30
REMARK    7  A    between atoms: C_31  and  C_32
REMARK    8  A    between atoms: C_33  and  C_34
REMARK    9  A    between atoms: C_35  and  C_36
REMARK   10  A    between atoms: O_39  and  C_41
REMARK   11  A    between atoms: C_41  and  C_42
REMARK   12  A    between atoms: C_48  and  O_49
REMARK                            x       y       z     vdW  Elec       q    Type
REMARK                         _______ _______ _______ _____ _____    ______ ____
ROOT
ATOM      1  O   UNL     1     -32.633 -51.826  52.592  0.00  0.00    +0.000 OA
ATOM      2  O   UNL     1     -29.353 -53.032  52.815  0.00  0.00    +0.000 OA
ATOM      3  O   UNL     1     -30.932 -54.384  53.961  0.00  0.00    +0.000 OA
ATOM      4  O   UNL     1     -28.757 -54.362  54.688  0.00  0.00    +0.000 OA
ATOM      5  O   UNL     1     -30.196 -47.308  51.714  0.00  0.00    +0.000 OA
ATOM      6  C   UNL     1     -31.057 -52.138  54.301  0.00  0.00    +0.000 C 
ATOM      7  C   UNL     1     -29.748 -51.836  53.557  0.00  0.00    +0.000 C 
ATOM      8  C   UNL     1     -32.369 -51.688  53.931  0.00  0.00    +0.000 C 
ATOM      9  C   UNL     1     -32.912 -50.551  53.186  0.00  0.00    +0.000 C 
ATOM     10  C   UNL     1     -30.855 -53.428  54.972  0.00  0.00    +0.000 C 
ATOM     11  C   UNL     1     -29.907 -50.731  52.558  0.00  0.00    +0.000 C 
ATOM     12  C   UNL     1     -28.641 -51.517  54.606  0.00  0.00    +0.000 C 
ATOM     13  C   UNL     1     -29.503 -53.626  55.698  0.00  0.00    +0.000 C 
ATOM     14  C   UNL     1     -30.546 -49.414  52.940  0.00  0.00    +0.000 C 
ATOM     15  C   UNL     1     -32.045 -49.376  52.896  0.00  0.00    +0.000 C 
ATOM     16  C   UNL     1     -28.734 -52.322  55.814  0.00  0.00    +0.000 C 
ATOM     17  C   UNL     1     -29.573 -54.278  53.521  0.00  0.00    +0.000 C 
ATOM     18  C   UNL     1     -29.150 -50.537  51.374  0.00  0.00    +0.000 C 
ATOM     19  C   UNL     1     -27.402 -50.651  54.377  0.00  0.00    +0.000 C 
ATOM     20  C   UNL     1     -29.951 -48.507  51.812  0.00  0.00    +0.000 C 
ATOM     21  C   UNL     1     -29.090 -49.336  50.906  0.00  0.00    +0.000 C 
ATOM     22  C   UNL     1     -28.726 -49.011  49.494  0.00  0.00    +0.000 C 
ENDROOT
BRANCH  13  23
ATOM     23  C   UNL     1     -29.718 -54.434  57.000  0.00  0.00    +0.000 C 
ATOM     24  C   UNL     1     -30.969 -54.339  57.871  0.00  0.00    +0.000 C 
ATOM     25  C   UNL     1     -28.727 -55.081  57.648  0.00  0.00    +0.000 C 
ENDBRANCH  13  23
BRANCH  14  26
ATOM     26  O   UNL     1     -30.138 -49.003  54.228  0.00  0.00    +0.000 OA
ATOM     27  H   UNL     1     -30.219 -49.778  54.818  0.00  0.00    +0.000 HD
ENDBRANCH  14  26
BRANCH  15  28
ATOM     28  O   UNL     1     -32.640 -48.120  52.754  0.00  0.00    +0.000 OA
ATOM     29  H   UNL     1     -32.221 -47.402  53.275  0.00  0.00    +0.000 HD
ENDBRANCH  15  28
BRANCH  17  30
ATOM     30  C   UNL     1     -29.256 -55.387  52.627  0.00  0.00    +0.000 C 
ATOM     31  C   UNL     1     -28.996 -56.300  51.893  0.00  0.00    +0.000 C 
BRANCH  31  32
ATOM     32  C   UNL     1     -28.665 -57.466  50.958  0.00  0.00    +0.000 C 
ATOM     33  C   UNL     1     -28.406 -58.381  50.225  0.00  0.00    +0.000 C 
BRANCH  33  34
ATOM     34  C   UNL     1     -28.075 -59.549  49.291  0.00  0.00    +0.000 C 
ATOM     35  C   UNL     1     -27.742 -60.716  48.359  0.00  0.00    +0.000 C 
BRANCH  35  36
ATOM     36  C   UNL     1     -27.409 -61.886  47.426  0.00  0.00    +0.000 C 
ATOM     37  C   UNL     1     -27.075 -63.055  46.495  0.00  0.00    +0.000 C 
ATOM     38  C   UNL     1     -26.741 -64.225  45.564  0.00  0.00    +0.000 C 
ENDBRANCH  35  36
ENDBRANCH  33  34
ENDBRANCH  31  32
ENDBRANCH  17  30
BRANCH  16  39
ATOM     39  O   UNL     1     -28.076 -51.862  56.967  0.00  0.00    +0.000 OA
BRANCH  39  41
ATOM     40  O   UNL     1     -29.965 -50.823  57.762  0.00  0.00    +0.000 OA
ATOM     41  C   UNL     1     -28.911 -51.408  57.947  0.00  0.00    +0.000 C 
BRANCH  41  42
ATOM     42  C   UNL     1     -28.339 -51.685  59.277  0.00  0.00    +0.000 A 
ATOM     43  C   UNL     1     -28.979 -52.526  60.186  0.00  0.00    +0.000 A 
ATOM     44  C   UNL     1     -27.127 -51.082  59.612  0.00  0.00    +0.000 A 
ATOM     45  C   UNL     1     -28.405 -52.764  61.433  0.00  0.00    +0.000 A 
ATOM     46  C   UNL     1     -26.555 -51.322  60.859  0.00  0.00    +0.000 A 
ATOM     47  C   UNL     1     -27.194 -52.163  61.768  0.00  0.00    +0.000 A 
ENDBRANCH  41  42
ENDBRANCH  39  41
ENDBRANCH  16  39
BRANCH   9  48
ATOM     48  C   UNL     1     -34.351 -50.333  53.224  0.00  0.00    +0.000 C 
BRANCH  48  49
ATOM     49  O   UNL     1     -35.667 -50.140  53.260  0.00  0.00    +0.000 OA
ATOM     50  H   UNL     1     -35.912 -49.367  52.722  0.00  0.00    +0.000 HD
ENDBRANCH  48  49
ENDBRANCH   9  48
TORSDOF 12
ENDMDL
MODEL 3
REMARK VINA RESULT:      -6.8      7.647     12.747
REMARK  Name = 5358691_Yuanhuacine.pdbqt.pdb
REMARK  12 active torsions:
REMARK  status: ('A' for Active; 'I' for Inactive)
REMARK    1  A    between atoms: C_9  and  C_48
REMARK    2  A    between atoms: C_13  and  C_23
REMARK    3  A    between atoms: C_14  and  O_26
REMARK    4  A    between atoms: C_15  and  O_28
REMARK    5  A    between atoms: C_16  and  O_39
REMARK    6  A    between atoms: C_17  and  C_30
REMARK    7  A    between atoms: C_31  and  C_32
REMARK    8  A    between atoms: C_33  and  C_34
REMARK    9  A    between atoms: C_35  and  C_36
REMARK   10  A    between atoms: O_39  and  C_41
REMARK   11  A    between atoms: C_41  and  C_42
REMARK   12  A    between atoms: C_48  and  O_49
REMARK                            x       y       z     vdW  Elec       q    Type
REMARK                         _______ _______ _______ _____ _____    ______ ____
ROOT
ATOM      1  O   UNL     1     -46.674 -60.529  31.661  0.00  0.00    +0.000 OA
ATOM      2  O   UNL     1     -44.551 -61.740  29.153  0.00  0.00    +0.000 OA
ATOM      3  O   UNL     1     -46.841 -62.230  28.764  0.00  0.00    +0.000 OA
ATOM      4  O   UNL     1     -45.245 -63.626  27.891  0.00  0.00    +0.000 OA
ATOM      5  O   UNL     1     -42.323 -60.750  34.514  0.00  0.00    +0.000 OA
ATOM      6  C   UNL     1     -46.038 -62.638  30.854  0.00  0.00    +0.000 C 
ATOM      7  C   UNL     1     -44.575 -62.379  30.467  0.00  0.00    +0.000 C 
ATOM      8  C   UNL     1     -46.813 -61.886  31.800  0.00  0.00    +0.000 C 
ATOM      9  C   UNL     1     -46.518 -61.071  32.979  0.00  0.00    +0.000 C 
ATOM     10  C   UNL     1     -46.664 -63.264  29.683  0.00  0.00    +0.000 C 
ATOM     11  C   UNL     1     -43.894 -61.447  31.422  0.00  0.00    +0.000 C 
ATOM     12  C   UNL     1     -43.838 -63.748  30.364  0.00  0.00    +0.000 C 
ATOM     13  C   UNL     1     -45.854 -64.379  28.978  0.00  0.00    +0.000 C 
ATOM     14  C   UNL     1     -43.953 -61.674  32.916  0.00  0.00    +0.000 C 
ATOM     15  C   UNL     1     -45.173 -61.146  33.611  0.00  0.00    +0.000 C 
ATOM     16  C   UNL     1     -44.659 -64.812  29.809  0.00  0.00    +0.000 C 
ATOM     17  C   UNL     1     -45.520 -62.264  28.212  0.00  0.00    +0.000 C 
ATOM     18  C   UNL     1     -42.801 -60.587  31.140  0.00  0.00    +0.000 C 
ATOM     19  C   UNL     1     -42.340 -63.985  30.563  0.00  0.00    +0.000 C 
ATOM     20  C   UNL     1     -42.691 -60.854  33.347  0.00  0.00    +0.000 C 
ATOM     21  C   UNL     1     -42.061 -60.233  32.136  0.00  0.00    +0.000 C 
ATOM     22  C   UNL     1     -41.165 -59.038  32.123  0.00  0.00    +0.000 C 
ENDROOT
BRANCH  13  23
ATOM     23  C   UNL     1     -46.808 -65.491  28.484  0.00  0.00    +0.000 C 
ATOM     24  C   UNL     1     -46.515 -66.409  27.298  0.00  0.00    +0.000 C 
ATOM     25  C   UNL     1     -48.102 -65.581  28.855  0.00  0.00    +0.000 C 
ENDBRANCH  13  23
BRANCH  14  26
ATOM     26  O   UNL     1     -43.833 -63.045  33.229  0.00  0.00    +0.000 OA
ATOM     27  H   UNL     1     -44.607 -63.500  32.843  0.00  0.00    +0.000 HD
ENDBRANCH  14  26
BRANCH  15  28
ATOM     28  O   UNL     1     -45.058 -60.889  34.980  0.00  0.00    +0.000 OA
ATOM     29  H   UNL     1     -44.651 -60.026  35.207  0.00  0.00    +0.000 HD
ENDBRANCH  15  28
BRANCH  17  30
ATOM     30  C   UNL     1     -45.474 -61.461  26.994  0.00  0.00    +0.000 C 
ATOM     31  C   UNL     1     -45.438 -60.802  25.992  0.00  0.00    +0.000 C 
BRANCH  31  32
ATOM     32  C   UNL     1     -45.393 -59.960  24.713  0.00  0.00    +0.000 C 
ATOM     33  C   UNL     1     -45.359 -59.300  23.711  0.00  0.00    +0.000 C 
BRANCH  33  34
ATOM     34  C   UNL     1     -45.317 -58.457  22.433  0.00  0.00    +0.000 C 
ATOM     35  C   UNL     1     -45.275 -57.615  21.156  0.00  0.00    +0.000 C 
BRANCH  35  36
ATOM     36  C   UNL     1     -45.235 -56.772  19.876  0.00  0.00    +0.000 C 
ATOM     37  C   UNL     1     -45.193 -55.931  18.597  0.00  0.00    +0.000 C 
ATOM     38  C   UNL     1     -45.150 -55.089  17.318  0.00  0.00    +0.000 C 
ENDBRANCH  35  36
ENDBRANCH  33  34
ENDBRANCH  31  32
ENDBRANCH  17  30
BRANCH  16  39
ATOM     39  O   UNL     1     -44.266 -66.141  30.042  0.00  0.00    +0.000 OA
BRANCH  39  41
ATOM     40  O   UNL     1     -43.910 -66.528  32.279  0.00  0.00    +0.000 OA
ATOM     41  C   UNL     1     -44.600 -66.617  31.278  0.00  0.00    +0.000 C 
BRANCH  41  42
ATOM     42  C   UNL     1     -45.904 -67.303  31.227  0.00  0.00    +0.000 A 
ATOM     43  C   UNL     1     -46.971 -66.900  32.029  0.00  0.00    +0.000 A 
ATOM     44  C   UNL     1     -46.052 -68.375  30.349  0.00  0.00    +0.000 A 
ATOM     45  C   UNL     1     -48.189 -67.572  31.952  0.00  0.00    +0.000 A 
ATOM     46  C   UNL     1     -47.271 -69.044  30.273  0.00  0.00    +0.000 A 
ATOM     47  C   UNL     1     -48.337 -68.643  31.074  0.00  0.00    +0.000 A 
ENDBRANCH  41  42
ENDBRANCH  39  41
ENDBRANCH  16  39
BRANCH   9  48
ATOM     48  C   UNL     1     -47.634 -60.650  33.816  0.00  0.00    +0.000 C 
BRANCH  48  49
ATOM     49  O   UNL     1     -48.649 -60.268  34.586  0.00  0.00    +0.000 OA
ATOM     50  H   UNL     1     -48.531 -59.346  34.872  0.00  0.00    +0.000 HD
ENDBRANCH  48  49
ENDBRANCH   9  48
TORSDOF 12
ENDMDL
MODEL 4
REMARK VINA RESULT:      -6.7      3.756      7.326
REMARK  Name = 5358691_Yuanhuacine.pdbqt.pdb
REMARK  12 active torsions:
REMARK  status: ('A' for Active; 'I' for Inactive)
REMARK    1  A    between atoms: C_9  and  C_48
REMARK    2  A    between atoms: C_13  and  C_23
REMARK    3  A    between atoms: C_14  and  O_26
REMARK    4  A    between atoms: C_15  and  O_28
REMARK    5  A    between atoms: C_16  and  O_39
REMARK    6  A    between atoms: C_17  and  C_30
REMARK    7  A    between atoms: C_31  and  C_32
REMARK    8  A    between atoms: C_33  and  C_34
REMARK    9  A    between atoms: C_35  and  C_36
REMARK   10  A    between atoms: O_39  and  C_41
REMARK   11  A    between atoms: C_41  and  C_42
REMARK   12  A    between atoms: C_48  and  O_49
REMARK                            x       y       z     vdW  Elec       q    Type
REMARK                         _______ _______ _______ _____ _____    ______ ____
ROOT
ATOM      1  O   UNL     1     -43.077 -62.048  40.062  0.00  0.00    +0.000 OA
ATOM      2  O   UNL     1     -41.744 -62.163  36.826  0.00  0.00    +0.000 OA
ATOM      3  O   UNL     1     -42.666 -60.049  37.388  0.00  0.00    +0.000 OA
ATOM      4  O   UNL     1     -42.614 -60.686  35.186  0.00  0.00    +0.000 OA
ATOM      5  O   UNL     1     -43.414 -67.200  39.381  0.00  0.00    +0.000 OA
ATOM      6  C   UNL     1     -43.918 -61.885  37.878  0.00  0.00    +0.000 C 
ATOM      7  C   UNL     1     -42.993 -62.857  37.131  0.00  0.00    +0.000 C 
ATOM      8  C   UNL     1     -44.197 -61.890  39.286  0.00  0.00    +0.000 C 
ATOM      9  C   UNL     1     -44.196 -62.898  40.348  0.00  0.00    +0.000 C 
ATOM     10  C   UNL     1     -43.900 -60.635  37.110  0.00  0.00    +0.000 C 
ATOM     11  C   UNL     1     -42.641 -64.054  37.961  0.00  0.00    +0.000 C 
ATOM     12  C   UNL     1     -43.675 -63.259  35.789  0.00  0.00    +0.000 C 
ATOM     13  C   UNL     1     -44.016 -60.765  35.572  0.00  0.00    +0.000 C 
ATOM     14  C   UNL     1     -43.709 -64.864  38.661  0.00  0.00    +0.000 C 
ATOM     15  C   UNL     1     -44.158 -64.343  39.995  0.00  0.00    +0.000 C 
ATOM     16  C   UNL     1     -44.408 -62.173  35.159  0.00  0.00    +0.000 C 
ATOM     17  C   UNL     1     -41.906 -60.782  36.420  0.00  0.00    +0.000 C 
ATOM     18  C   UNL     1     -41.469 -64.847  37.859  0.00  0.00    +0.000 C 
ATOM     19  C   UNL     1     -43.446 -64.557  35.013  0.00  0.00    +0.000 C 
ATOM     20  C   UNL     1     -42.928 -66.208  38.844  0.00  0.00    +0.000 C 
ATOM     21  C   UNL     1     -41.543 -66.061  38.291  0.00  0.00    +0.000 C 
ATOM     22  C   UNL     1     -40.353 -66.885  38.660  0.00  0.00    +0.000 C 
ENDROOT
BRANCH  13  23
ATOM     23  C   UNL     1     -44.866 -59.603  35.007  0.00  0.00    +0.000 C 
ATOM     24  C   UNL     1     -44.746 -59.067  33.582  0.00  0.00    +0.000 C 
ATOM     25  C   UNL     1     -45.587 -58.764  35.779  0.00  0.00    +0.000 C 
ENDBRANCH  13  23
BRANCH  14  26
ATOM     26  O   UNL     1     -44.852 -65.016  37.847  0.00  0.00    +0.000 OA
ATOM     27  H   UNL     1     -44.620 -64.685  36.956  0.00  0.00    +0.000 HD
ENDBRANCH  14  26
BRANCH  15  28
ATOM     28  O   UNL     1     -44.738 -65.265  40.869  0.00  0.00    +0.000 OA
ATOM     29  H   UNL     1     -44.528 -65.126  41.818  0.00  0.00    +0.000 HD
ENDBRANCH  15  28
BRANCH  17  30
ATOM     30  C   UNL     1     -40.586 -60.178  36.270  0.00  0.00    +0.000 C 
ATOM     31  C   UNL     1     -39.500 -59.683  36.145  0.00  0.00    +0.000 C 
BRANCH  31  32
ATOM     32  C   UNL     1     -38.114 -59.053  35.985  0.00  0.00    +0.000 C 
ATOM     33  C   UNL     1     -37.027 -58.558  35.860  0.00  0.00    +0.000 C 
BRANCH  33  34
ATOM     34  C   UNL     1     -35.642 -57.924  35.701  0.00  0.00    +0.000 C 
ATOM     35  C   UNL     1     -34.257 -57.291  35.542  0.00  0.00    +0.000 C 
BRANCH  35  36
ATOM     36  C   UNL     1     -32.872 -56.657  35.381  0.00  0.00    +0.000 C 
ATOM     37  C   UNL     1     -31.487 -56.022  35.221  0.00  0.00    +0.000 C 
ATOM     38  C   UNL     1     -30.102 -55.386  35.062  0.00  0.00    +0.000 C 
ENDBRANCH  35  36
ENDBRANCH  33  34
ENDBRANCH  31  32
ENDBRANCH  17  30
BRANCH  16  39
ATOM     39  O   UNL     1     -45.378 -62.500  34.196  0.00  0.00    +0.000 OA
BRANCH  39  41
ATOM     40  O   UNL     1     -46.655 -64.400  34.403  0.00  0.00    +0.000 OA
ATOM     41  C   UNL     1     -46.423 -63.235  34.678  0.00  0.00    +0.000 C 
BRANCH  41  42
ATOM     42  C   UNL     1     -47.270 -62.406  35.555  0.00  0.00    +0.000 A 
ATOM     43  C   UNL     1     -47.290 -62.589  36.937  0.00  0.00    +0.000 A 
ATOM     44  C   UNL     1     -48.061 -61.419  34.967  0.00  0.00    +0.000 A 
ATOM     45  C   UNL     1     -48.102 -61.784  37.732  0.00  0.00    +0.000 A 
ATOM     46  C   UNL     1     -48.872 -60.616  35.764  0.00  0.00    +0.000 A 
ATOM     47  C   UNL     1     -48.892 -60.798  37.145  0.00  0.00    +0.000 A 
ENDBRANCH  41  42
ENDBRANCH  39  41
ENDBRANCH  16  39
BRANCH   9  48
ATOM     48  C   UNL     1     -44.771 -62.534  41.636  0.00  0.00    +0.000 C 
BRANCH  48  49
ATOM     49  O   UNL     1     -45.298 -62.196  42.810  0.00  0.00    +0.000 OA
ATOM     50  H   UNL     1     -45.686 -62.975  43.246  0.00  0.00    +0.000 HD
ENDBRANCH  48  49
ENDBRANCH   9  48
TORSDOF 12
ENDMDL
MODEL 5
REMARK VINA RESULT:      -6.7     22.393     26.312
REMARK  Name = 5358691_Yuanhuacine.pdbqt.pdb
REMARK  12 active torsions:
REMARK  status: ('A' for Active; 'I' for Inactive)
REMARK    1  A    between atoms: C_9  and  C_48
REMARK    2  A    between atoms: C_13  and  C_23
REMARK    3  A    between atoms: C_14  and  O_26
REMARK    4  A    between atoms: C_15  and  O_28
REMARK    5  A    between atoms: C_16  and  O_39
REMARK    6  A    between atoms: C_17  and  C_30
REMARK    7  A    between atoms: C_31  and  C_32
REMARK    8  A    between atoms: C_33  and  C_34
REMARK    9  A    between atoms: C_35  and  C_36
REMARK   10  A    between atoms: O_39  and  C_41
REMARK   11  A    between atoms: C_41  and  C_42
REMARK   12  A    between atoms: C_48  and  O_49
REMARK                            x       y       z     vdW  Elec       q    Type
REMARK                         _______ _______ _______ _____ _____    ______ ____
ROOT
ATOM      1  O   UNL     1     -38.866 -38.685  52.149  0.00  0.00    +0.000 OA
ATOM      2  O   UNL     1     -39.283 -41.607  50.266  0.00  0.00    +0.000 OA
ATOM      3  O   UNL     1     -37.136 -40.626  50.015  0.00  0.00    +0.000 OA
ATOM      4  O   UNL     1     -37.987 -41.885  48.297  0.00  0.00    +0.000 OA
ATOM      5  O   UNL     1     -44.064 -38.558  51.859  0.00  0.00    +0.000 OA
ATOM      6  C   UNL     1     -38.931 -39.235  49.869  0.00  0.00    +0.000 C 
ATOM      7  C   UNL     1     -39.960 -40.375  49.868  0.00  0.00    +0.000 C 
ATOM      8  C   UNL     1     -38.800 -38.208  50.864  0.00  0.00    +0.000 C 
ATOM      9  C   UNL     1     -39.697 -37.563  51.824  0.00  0.00    +0.000 C 
ATOM     10  C   UNL     1     -37.762 -39.741  49.139  0.00  0.00    +0.000 C 
ATOM     11  C   UNL     1     -41.064 -40.141  50.853  0.00  0.00    +0.000 C 
ATOM     12  C   UNL     1     -40.502 -40.553  48.418  0.00  0.00    +0.000 C 
ATOM     13  C   UNL     1     -38.046 -40.509  47.826  0.00  0.00    +0.000 C 
ATOM     14  C   UNL     1     -41.815 -38.828  50.894  0.00  0.00    +0.000 C 
ATOM     15  C   UNL     1     -41.170 -37.729  51.685  0.00  0.00    +0.000 C 
ATOM     16  C   UNL     1     -39.493 -40.355  47.390  0.00  0.00    +0.000 C 
ATOM     17  C   UNL     1     -37.951 -41.766  49.718  0.00  0.00    +0.000 C 
ATOM     18  C   UNL     1     -41.847 -41.128  51.505  0.00  0.00    +0.000 C 
ATOM     19  C   UNL     1     -41.866 -41.122  48.028  0.00  0.00    +0.000 C 
ATOM     20  C   UNL     1     -43.123 -39.307  51.606  0.00  0.00    +0.000 C 
ATOM     21  C   UNL     1     -43.013 -40.768  51.925  0.00  0.00    +0.000 C 
ATOM     22  C   UNL     1     -43.781 -41.501  52.976  0.00  0.00    +0.000 C 
ENDROOT
BRANCH  13  23
ATOM     23  C   UNL     1     -36.957 -40.181  46.778  0.00  0.00    +0.000 C 
ATOM     24  C   UNL     1     -35.889 -41.170  46.312  0.00  0.00    +0.000 C 
ATOM     25  C   UNL     1     -36.658 -38.927  46.382  0.00  0.00    +0.000 C 
ENDBRANCH  13  23
BRANCH  14  26
ATOM     26  O   UNL     1     -42.061 -38.341  49.592  0.00  0.00    +0.000 OA
ATOM     27  H   UNL     1     -41.291 -38.585  49.040  0.00  0.00    +0.000 HD
ENDBRANCH  14  26
BRANCH  15  28
ATOM     28  O   UNL     1     -42.008 -36.714  52.154  0.00  0.00    +0.000 OA
ATOM     29  H   UNL     1     -41.614 -35.816  52.150  0.00  0.00    +0.000 HD
ENDBRANCH  15  28
BRANCH  17  30
ATOM     30  C   UNL     1     -37.348 -42.966  50.290  0.00  0.00    +0.000 C 
ATOM     31  C   UNL     1     -36.852 -43.953  50.758  0.00  0.00    +0.000 C 
BRANCH  31  32
ATOM     32  C   UNL     1     -36.217 -45.212  51.354  0.00  0.00    +0.000 C 
ATOM     33  C   UNL     1     -35.719 -46.200  51.821  0.00  0.00    +0.000 C 
BRANCH  33  34
ATOM     34  C   UNL     1     -35.082 -47.460  52.414  0.00  0.00    +0.000 C 
ATOM     35  C   UNL     1     -34.445 -48.720  53.006  0.00  0.00    +0.000 C 
BRANCH  35  36
ATOM     36  C   UNL     1     -33.806 -49.981  53.599  0.00  0.00    +0.000 C 
ATOM     37  C   UNL     1     -33.168 -51.240  54.192  0.00  0.00    +0.000 C 
ATOM     38  C   UNL     1     -32.531 -52.501  54.786  0.00  0.00    +0.000 C 
ENDBRANCH  35  36
ENDBRANCH  33  34
ENDBRANCH  31  32
ENDBRANCH  17  30
BRANCH  16  39
ATOM     39  O   UNL     1     -39.927 -40.087  46.081  0.00  0.00    +0.000 OA
BRANCH  39  41
ATOM     40  O   UNL     1     -40.291 -42.252  45.403  0.00  0.00    +0.000 OA
ATOM     41  C   UNL     1     -39.815 -41.144  45.224  0.00  0.00    +0.000 C 
BRANCH  41  42
ATOM     42  C   UNL     1     -38.992 -40.773  44.058  0.00  0.00    +0.000 A 
ATOM     43  C   UNL     1     -39.035 -39.491  43.513  0.00  0.00    +0.000 A 
ATOM     44  C   UNL     1     -38.156 -41.743  43.505  0.00  0.00    +0.000 A 
ATOM     45  C   UNL     1     -38.241 -39.178  42.412  0.00  0.00    +0.000 A 
ATOM     46  C   UNL     1     -37.363 -41.427  42.405  0.00  0.00    +0.000 A 
ATOM     47  C   UNL     1     -37.406 -40.147  41.859  0.00  0.00    +0.000 A 
ENDBRANCH  41  42
ENDBRANCH  39  41
ENDBRANCH  16  39
BRANCH   9  48
ATOM     48  C   UNL     1     -39.215 -36.378  52.520  0.00  0.00    +0.000 C 
BRANCH  48  49
ATOM     49  O   UNL     1     -38.777 -35.298  53.162  0.00  0.00    +0.000 OA
ATOM     50  H   UNL     1     -38.560 -35.515  54.085  0.00  0.00    +0.000 HD
ENDBRANCH  48  49
ENDBRANCH   9  48
TORSDOF 12
ENDMDL
MODEL 6
REMARK VINA RESULT:      -6.7      5.752     11.237
REMARK  Name = 5358691_Yuanhuacine.pdbqt.pdb
REMARK  12 active torsions:
REMARK  status: ('A' for Active; 'I' for Inactive)
REMARK    1  A    between atoms: C_9  and  C_48
REMARK    2  A    between atoms: C_13  and  C_23
REMARK    3  A    between atoms: C_14  and  O_26
REMARK    4  A    between atoms: C_15  and  O_28
REMARK    5  A    between atoms: C_16  and  O_39
REMARK    6  A    between atoms: C_17  and  C_30
REMARK    7  A    between atoms: C_31  and  C_32
REMARK    8  A    between atoms: C_33  and  C_34
REMARK    9  A    between atoms: C_35  and  C_36
REMARK   10  A    between atoms: O_39  and  C_41
REMARK   11  A    between atoms: C_41  and  C_42
REMARK   12  A    between atoms: C_48  and  O_49
REMARK                            x       y       z     vdW  Elec       q    Type
REMARK                         _______ _______ _______ _____ _____    ______ ____
ROOT
ATOM      1  O   UNL     1     -47.185 -60.852  34.818  0.00  0.00    +0.000 OA
ATOM      2  O   UNL     1     -44.668 -61.327  32.431  0.00  0.00    +0.000 OA
ATOM      3  O   UNL     1     -46.858 -61.468  31.527  0.00  0.00    +0.000 OA
ATOM      4  O   UNL     1     -45.160 -62.619  30.503  0.00  0.00    +0.000 OA
ATOM      5  O   UNL     1     -43.433 -62.372  38.094  0.00  0.00    +0.000 OA
ATOM      6  C   UNL     1     -46.459 -62.615  33.452  0.00  0.00    +0.000 C 
ATOM      7  C   UNL     1     -44.944 -62.363  33.423  0.00  0.00    +0.000 C 
ATOM      8  C   UNL     1     -47.377 -62.162  34.458  0.00  0.00    +0.000 C 
ATOM      9  C   UNL     1     -47.284 -61.814  35.877  0.00  0.00    +0.000 C 
ATOM     10  C   UNL     1     -46.874 -62.760  32.051  0.00  0.00    +0.000 C 
ATOM     11  C   UNL     1     -44.429 -61.864  34.738  0.00  0.00    +0.000 C 
ATOM     12  C   UNL     1     -44.231 -63.676  32.979  0.00  0.00    +0.000 C 
ATOM     13  C   UNL     1     -45.973 -63.638  31.149  0.00  0.00    +0.000 C 
ATOM     14  C   UNL     1     -44.764 -62.571  36.032  0.00  0.00    +0.000 C 
ATOM     15  C   UNL     1     -46.079 -62.207  36.656  0.00  0.00    +0.000 C 
ATOM     16  C   UNL     1     -44.960 -64.422  31.966  0.00  0.00    +0.000 C 
ATOM     17  C   UNL     1     -45.460 -61.425  31.222  0.00  0.00    +0.000 C 
ATOM     18  C   UNL     1     -43.285 -61.052  34.951  0.00  0.00    +0.000 C 
ATOM     19  C   UNL     1     -42.800 -64.088  33.326  0.00  0.00    +0.000 C 
ATOM     20  C   UNL     1     -43.585 -62.049  36.918  0.00  0.00    +0.000 C 
ATOM     21  C   UNL     1     -42.731 -61.114  36.116  0.00  0.00    +0.000 C 
ATOM     22  C   UNL     1     -41.823 -60.061  36.660  0.00  0.00    +0.000 C 
ENDROOT
BRANCH  13  23
ATOM     23  C   UNL     1     -46.845 -64.439  30.154  0.00  0.00    +0.000 C 
ATOM     24  C   UNL     1     -46.586 -64.508  28.650  0.00  0.00    +0.000 C 
ATOM     25  C   UNL     1     -48.070 -64.918  30.456  0.00  0.00    +0.000 C 
ENDBRANCH  13  23
BRANCH  14  26
ATOM     26  O   UNL     1     -44.732 -63.973  35.870  0.00  0.00    +0.000 OA
ATOM     27  H   UNL     1     -43.884 -64.196  35.438  0.00  0.00    +0.000 HD
ENDBRANCH  14  26
BRANCH  15  28
ATOM     28  O   UNL     1     -46.209 -62.432  38.029  0.00  0.00    +0.000 OA
ATOM     29  H   UNL     1     -46.200 -61.624  38.584  0.00  0.00    +0.000 HD
ENDBRANCH  15  28
BRANCH  17  30
ATOM     30  C   UNL     1     -45.176 -60.267  30.379  0.00  0.00    +0.000 C 
ATOM     31  C   UNL     1     -44.940 -59.316  29.686  0.00  0.00    +0.000 C 
BRANCH  31  32
ATOM     32  C   UNL     1     -44.639 -58.104  28.800  0.00  0.00    +0.000 C 
ATOM     33  C   UNL     1     -44.402 -57.154  28.105  0.00  0.00    +0.000 C 
BRANCH  33  34
ATOM     34  C   UNL     1     -44.100 -55.944  27.217  0.00  0.00    +0.000 C 
ATOM     35  C   UNL     1     -43.797 -54.734  26.330  0.00  0.00    +0.000 C 
BRANCH  35  36
ATOM     36  C   UNL     1     -43.493 -53.522  25.441  0.00  0.00    +0.000 C 
ATOM     37  C   UNL     1     -43.189 -52.312  24.555  0.00  0.00    +0.000 C 
ATOM     38  C   UNL     1     -42.883 -51.100  23.668  0.00  0.00    +0.000 C 
ENDBRANCH  35  36
ENDBRANCH  33  34
ENDBRANCH  31  32
ENDBRANCH  17  30
BRANCH  16  39
ATOM     39  O   UNL     1     -44.644 -65.779  31.789  0.00  0.00    +0.000 OA
BRANCH  39  41
ATOM     40  O   UNL     1     -45.175 -66.702  33.826  0.00  0.00    +0.000 OA
ATOM     41  C   UNL     1     -45.323 -66.626  32.618  0.00  0.00    +0.000 C 
BRANCH  41  42
ATOM     42  C   UNL     1     -46.239 -67.479  31.839  0.00  0.00    +0.000 A 
ATOM     43  C   UNL     1     -45.905 -67.935  30.564  0.00  0.00    +0.000 A 
ATOM     44  C   UNL     1     -47.462 -67.828  32.410  0.00  0.00    +0.000 A 
ATOM     45  C   UNL     1     -46.797 -68.742  29.860  0.00  0.00    +0.000 A 
ATOM     46  C   UNL     1     -48.351 -68.634  31.705  0.00  0.00    +0.000 A 
ATOM     47  C   UNL     1     -48.018 -69.090  30.431  0.00  0.00    +0.000 A 
ENDBRANCH  41  42
ENDBRANCH  39  41
ENDBRANCH  16  39
BRANCH   9  48
ATOM     48  C   UNL     1     -48.524 -61.607  36.612  0.00  0.00    +0.000 C 
BRANCH  48  49
ATOM     49  O   UNL     1     -49.655 -61.412  37.285  0.00  0.00    +0.000 OA
ATOM     50  H   UNL     1     -49.768 -60.468  37.495  0.00  0.00    +0.000 HD
ENDBRANCH  48  49
ENDBRANCH   9  48
TORSDOF 12
ENDMDL
MODEL 7
REMARK VINA RESULT:      -6.6      4.032      6.803
REMARK  Name = 5358691_Yuanhuacine.pdbqt.pdb
REMARK  12 active torsions:
REMARK  status: ('A' for Active; 'I' for Inactive)
REMARK    1  A    between atoms: C_9  and  C_48
REMARK    2  A    between atoms: C_13  and  C_23
REMARK    3  A    between atoms: C_14  and  O_26
REMARK    4  A    between atoms: C_15  and  O_28
REMARK    5  A    between atoms: C_16  and  O_39
REMARK    6  A    between atoms: C_17  and  C_30
REMARK    7  A    between atoms: C_31  and  C_32
REMARK    8  A    between atoms: C_33  and  C_34
REMARK    9  A    between atoms: C_35  and  C_36
REMARK   10  A    between atoms: O_39  and  C_41
REMARK   11  A    between atoms: C_41  and  C_42
REMARK   12  A    between atoms: C_48  and  O_49
REMARK                            x       y       z     vdW  Elec       q    Type
REMARK                         _______ _______ _______ _____ _____    ______ ____
ROOT
ATOM      1  O   UNL     1     -44.775 -69.081  36.318  0.00  0.00    +0.000 OA
ATOM      2  O   UNL     1     -42.390 -67.241  38.102  0.00  0.00    +0.000 OA
ATOM      3  O   UNL     1     -44.477 -67.405  39.219  0.00  0.00    +0.000 OA
ATOM      4  O   UNL     1     -43.140 -65.589  39.631  0.00  0.00    +0.000 OA
ATOM      5  O   UNL     1     -41.800 -67.731  32.263  0.00  0.00    +0.000 OA
ATOM      6  C   UNL     1     -44.527 -66.854  37.012  0.00  0.00    +0.000 C 
ATOM      7  C   UNL     1     -43.006 -66.677  36.904  0.00  0.00    +0.000 C 
ATOM      8  C   UNL     1     -45.323 -67.823  36.313  0.00  0.00    +0.000 C 
ATOM      9  C   UNL     1     -45.204 -68.559  35.053  0.00  0.00    +0.000 C 
ATOM     10  C   UNL     1     -44.896 -66.394  38.356  0.00  0.00    +0.000 C 
ATOM     11  C   UNL     1     -42.434 -67.408  35.728  0.00  0.00    +0.000 C 
ATOM     12  C   UNL     1     -42.685 -65.153  36.853  0.00  0.00    +0.000 C 
ATOM     13  C   UNL     1     -44.247 -65.074  38.838  0.00  0.00    +0.000 C 
ATOM     14  C   UNL     1     -43.025 -67.255  34.345  0.00  0.00    +0.000 C 
ATOM     15  C   UNL     1     -44.207 -68.127  34.036  0.00  0.00    +0.000 C 
ATOM     16  C   UNL     1     -43.548 -64.347  37.702  0.00  0.00    +0.000 C 
ATOM     17  C   UNL     1     -43.113 -66.982  39.330  0.00  0.00    +0.000 C 
ATOM     18  C   UNL     1     -41.115 -67.915  35.600  0.00  0.00    +0.000 C 
ATOM     19  C   UNL     1     -41.457 -64.509  36.210  0.00  0.00    +0.000 C 
ATOM     20  C   UNL     1     -41.792 -67.698  33.490  0.00  0.00    +0.000 C 
ATOM     21  C   UNL     1     -40.663 -68.077  34.402  0.00  0.00    +0.000 C 
ATOM     22  C   UNL     1     -39.515 -68.970  34.060  0.00  0.00    +0.000 C 
ENDROOT
BRANCH  13  23
ATOM     23  C   UNL     1     -45.263 -64.261  39.674  0.00  0.00    +0.000 C 
ATOM     24  C   UNL     1     -45.128 -64.001  41.173  0.00  0.00    +0.000 C 
ATOM     25  C   UNL     1     -46.501 -63.944  39.239  0.00  0.00    +0.000 C 
ENDBRANCH  13  23
BRANCH  14  26
ATOM     26  O   UNL     1     -43.397 -65.916  34.094  0.00  0.00    +0.000 OA
ATOM     27  H   UNL     1     -42.585 -65.431  33.845  0.00  0.00    +0.000 HD
ENDBRANCH  14  26
BRANCH  15  28
ATOM     28  O   UNL     1     -44.466 -68.384  32.688  0.00  0.00    +0.000 OA
ATOM     29  H   UNL     1     -43.687 -68.666  32.162  0.00  0.00    +0.000 HD
ENDBRANCH  15  28
BRANCH  17  30
ATOM     30  C   UNL     1     -42.462 -67.701  40.420  0.00  0.00    +0.000 C 
ATOM     31  C   UNL     1     -41.925 -68.290  41.318  0.00  0.00    +0.000 C 
BRANCH  31  32
ATOM     32  C   UNL     1     -41.241 -69.041  42.463  0.00  0.00    +0.000 C 
ATOM     33  C   UNL     1     -40.704 -69.629  43.361  0.00  0.00    +0.000 C 
BRANCH  33  34
ATOM     34  C   UNL     1     -40.016 -70.378  44.507  0.00  0.00    +0.000 C 
ATOM     35  C   UNL     1     -39.330 -71.127  45.652  0.00  0.00    +0.000 C 
BRANCH  35  36
ATOM     36  C   UNL     1     -38.643 -71.878  46.798  0.00  0.00    +0.000 C 
ATOM     37  C   UNL     1     -37.957 -72.628  47.944  0.00  0.00    +0.000 C 
ATOM     38  C   UNL     1     -37.270 -73.377  49.090  0.00  0.00    +0.000 C 
ENDBRANCH  35  36
ENDBRANCH  33  34
ENDBRANCH  31  32
ENDBRANCH  17  30
BRANCH  16  39
ATOM     39  O   UNL     1     -43.635 -62.969  37.439  0.00  0.00    +0.000 OA
BRANCH  39  41
ATOM     40  O   UNL     1     -42.281 -62.500  39.236  0.00  0.00    +0.000 OA
ATOM     41  C   UNL     1     -42.755 -62.206  38.152  0.00  0.00    +0.000 C 
BRANCH  41  42
ATOM     42  C   UNL     1     -42.485 -60.941  37.444  0.00  0.00    +0.000 A 
ATOM     43  C   UNL     1     -43.363 -59.860  37.523  0.00  0.00    +0.000 A 
ATOM     44  C   UNL     1     -41.319 -60.843  36.687  0.00  0.00    +0.000 A 
ATOM     45  C   UNL     1     -43.072 -58.680  36.841  0.00  0.00    +0.000 A 
ATOM     46  C   UNL     1     -41.031 -59.663  36.007  0.00  0.00    +0.000 A 
ATOM     47  C   UNL     1     -41.907 -58.583  36.084  0.00  0.00    +0.000 A 
ENDBRANCH  41  42
ENDBRANCH  39  41
ENDBRANCH  16  39
BRANCH   9  48
ATOM     48  C   UNL     1     -46.365 -69.304  34.584  0.00  0.00    +0.000 C 
BRANCH  48  49
ATOM     49  O   UNL     1     -47.421 -69.987  34.153  0.00  0.00    +0.000 OA
ATOM     50  H   UNL     1     -48.087 -69.384  33.778  0.00  0.00    +0.000 HD
ENDBRANCH  48  49
ENDBRANCH   9  48
TORSDOF 12
ENDMDL
MODEL 8
REMARK VINA RESULT:      -6.6      9.706     14.260
REMARK  Name = 5358691_Yuanhuacine.pdbqt.pdb
REMARK  12 active torsions:
REMARK  status: ('A' for Active; 'I' for Inactive)
REMARK    1  A    between atoms: C_9  and  C_48
REMARK    2  A    between atoms: C_13  and  C_23
REMARK    3  A    between atoms: C_14  and  O_26
REMARK    4  A    between atoms: C_15  and  O_28
REMARK    5  A    between atoms: C_16  and  O_39
REMARK    6  A    between atoms: C_17  and  C_30
REMARK    7  A    between atoms: C_31  and  C_32
REMARK    8  A    between atoms: C_33  and  C_34
REMARK    9  A    between atoms: C_35  and  C_36
REMARK   10  A    between atoms: O_39  and  C_41
REMARK   11  A    between atoms: C_41  and  C_42
REMARK   12  A    between atoms: C_48  and  O_49
REMARK                            x       y       z     vdW  Elec       q    Type
REMARK                         _______ _______ _______ _____ _____    ______ ____
ROOT
ATOM      1  O   UNL     1     -45.687 -52.754  31.966  0.00  0.00    +0.000 OA
ATOM      2  O   UNL     1     -43.650 -55.325  30.741  0.00  0.00    +0.000 OA
ATOM      3  O   UNL     1     -43.826 -55.313  33.108  0.00  0.00    +0.000 OA
ATOM      4  O   UNL     1     -41.937 -56.182  32.142  0.00  0.00    +0.000 OA
ATOM      5  O   UNL     1     -44.473 -50.536  27.413  0.00  0.00    +0.000 OA
ATOM      6  C   UNL     1     -43.413 -53.318  32.093  0.00  0.00    +0.000 C 
ATOM      7  C   UNL     1     -43.185 -53.941  30.708  0.00  0.00    +0.000 C 
ATOM      8  C   UNL     1     -44.454 -52.396  32.449  0.00  0.00    +0.000 C 
ATOM      9  C   UNL     1     -45.261 -51.404  31.736  0.00  0.00    +0.000 C 
ATOM     10  C   UNL     1     -42.886 -54.284  33.065  0.00  0.00    +0.000 C 
ATOM     11  C   UNL     1     -43.964 -53.239  29.637  0.00  0.00    +0.000 C 
ATOM     12  C   UNL     1     -41.655 -53.940  30.409  0.00  0.00    +0.000 C 
ATOM     13  C   UNL     1     -41.515 -54.921  32.733  0.00  0.00    +0.000 C 
ATOM     14  C   UNL     1     -43.918 -51.735  29.491  0.00  0.00    +0.000 C 
ATOM     15  C   UNL     1     -44.853 -50.962  30.374  0.00  0.00    +0.000 C 
ATOM     16  C   UNL     1     -40.833 -54.210  31.578  0.00  0.00    +0.000 C 
ATOM     17  C   UNL     1     -43.345 -56.033  31.967  0.00  0.00    +0.000 C 
ATOM     18  C   UNL     1     -44.426 -53.796  28.417  0.00  0.00    +0.000 C 
ATOM     19  C   UNL     1     -41.005 -53.920  29.025  0.00  0.00    +0.000 C 
ATOM     20  C   UNL     1     -44.365 -51.611  27.997  0.00  0.00    +0.000 C 
ATOM     21  C   UNL     1     -44.644 -52.977  27.444  0.00  0.00    +0.000 C 
ATOM     22  C   UNL     1     -45.511 -53.293  26.269  0.00  0.00    +0.000 C 
ENDROOT
BRANCH  13  23
ATOM     23  C   UNL     1     -40.693 -55.106  34.030  0.00  0.00    +0.000 C 
ATOM     24  C   UNL     1     -39.607 -56.165  34.213  0.00  0.00    +0.000 C 
ATOM     25  C   UNL     1     -41.034 -54.554  35.213  0.00  0.00    +0.000 C 
ENDBRANCH  13  23
BRANCH  14  26
ATOM     26  O   UNL     1     -42.613 -51.241  29.702  0.00  0.00    +0.000 OA
ATOM     27  H   UNL     1     -42.049 -52.003  29.942  0.00  0.00    +0.000 HD
ENDBRANCH  14  26
BRANCH  15  28
ATOM     28  O   UNL     1     -45.202 -49.677  29.952  0.00  0.00    +0.000 OA
ATOM     29  H   UNL     1     -44.524 -49.221  29.409  0.00  0.00    +0.000 HD
ENDBRANCH  15  28
BRANCH  17  30
ATOM     30  C   UNL     1     -43.969 -57.351  31.917  0.00  0.00    +0.000 C 
ATOM     31  C   UNL     1     -44.482 -58.436  31.875  0.00  0.00    +0.000 C 
BRANCH  31  32
ATOM     32  C   UNL     1     -45.134 -59.820  31.821  0.00  0.00    +0.000 C 
ATOM     33  C   UNL     1     -45.646 -60.905  31.779  0.00  0.00    +0.000 C 
BRANCH  33  34
ATOM     34  C   UNL     1     -46.300 -62.289  31.728  0.00  0.00    +0.000 C 
ATOM     35  C   UNL     1     -46.954 -63.672  31.676  0.00  0.00    +0.000 C 
BRANCH  35  36
ATOM     36  C   UNL     1     -47.608 -65.057  31.623  0.00  0.00    +0.000 C 
ATOM     37  C   UNL     1     -48.262 -66.441  31.569  0.00  0.00    +0.000 C 
ATOM     38  C   UNL     1     -48.916 -67.825  31.514  0.00  0.00    +0.000 C 
ENDBRANCH  35  36
ENDBRANCH  33  34
ENDBRANCH  31  32
ENDBRANCH  17  30
BRANCH  16  39
ATOM     39  O   UNL     1     -39.478 -53.839  31.533  0.00  0.00    +0.000 OA
BRANCH  39  41
ATOM     40  O   UNL     1     -39.068 -52.524  33.372  0.00  0.00    +0.000 OA
ATOM     41  C   UNL     1     -39.196 -52.663  32.168  0.00  0.00    +0.000 C 
BRANCH  41  42
ATOM     42  C   UNL     1     -39.111 -51.562  31.191  0.00  0.00    +0.000 A 
ATOM     43  C   UNL     1     -38.366 -51.682  30.019  0.00  0.00    +0.000 A 
ATOM     44  C   UNL     1     -39.802 -50.382  31.465  0.00  0.00    +0.000 A 
ATOM     45  C   UNL     1     -38.311 -50.620  29.120  0.00  0.00    +0.000 A 
ATOM     46  C   UNL     1     -39.746 -49.322  30.564  0.00  0.00    +0.000 A 
ATOM     47  C   UNL     1     -39.001 -49.441  29.393  0.00  0.00    +0.000 A 
ENDBRANCH  41  42
ENDBRANCH  39  41
ENDBRANCH  16  39
BRANCH   9  48
ATOM     48  C   UNL     1     -46.077 -50.491  32.525  0.00  0.00    +0.000 C 
BRANCH  48  49
ATOM     49  O   UNL     1     -46.827 -49.661  33.243  0.00  0.00    +0.000 OA
ATOM     50  H   UNL     1     -46.365 -48.816  33.379  0.00  0.00    +0.000 HD
ENDBRANCH  48  49
ENDBRANCH   9  48
TORSDOF 12
ENDMDL
MODEL 9
REMARK VINA RESULT:      -6.5     23.226     26.593
REMARK  Name = 5358691_Yuanhuacine.pdbqt.pdb
REMARK  12 active torsions:
REMARK  status: ('A' for Active; 'I' for Inactive)
REMARK    1  A    between atoms: C_9  and  C_48
REMARK    2  A    between atoms: C_13  and  C_23
REMARK    3  A    between atoms: C_14  and  O_26
REMARK    4  A    between atoms: C_15  and  O_28
REMARK    5  A    between atoms: C_16  and  O_39
REMARK    6  A    between atoms: C_17  and  C_30
REMARK    7  A    between atoms: C_31  and  C_32
REMARK    8  A    between atoms: C_33  and  C_34
REMARK    9  A    between atoms: C_35  and  C_36
REMARK   10  A    between atoms: O_39  and  C_41
REMARK   11  A    between atoms: C_41  and  C_42
REMARK   12  A    between atoms: C_48  and  O_49
REMARK                            x       y       z     vdW  Elec       q    Type
REMARK                         _______ _______ _______ _____ _____    ______ ____
ROOT
ATOM      1  O   UNL     1     -39.803 -38.816  52.299  0.00  0.00    +0.000 OA
ATOM      2  O   UNL     1     -39.488 -41.478  50.047  0.00  0.00    +0.000 OA
ATOM      3  O   UNL     1     -37.462 -40.289  50.385  0.00  0.00    +0.000 OA
ATOM      4  O   UNL     1     -37.792 -41.370  48.390  0.00  0.00    +0.000 OA
ATOM      5  O   UNL     1     -44.811 -39.106  50.899  0.00  0.00    +0.000 OA
ATOM      6  C   UNL     1     -39.336 -39.053  50.012  0.00  0.00    +0.000 C 
ATOM      7  C   UNL     1     -40.205 -40.267  49.656  0.00  0.00    +0.000 C 
ATOM      8  C   UNL     1     -39.530 -38.164  51.123  0.00  0.00    +0.000 C 
ATOM      9  C   UNL     1     -40.673 -37.737  51.932  0.00  0.00    +0.000 C 
ATOM     10  C   UNL     1     -37.992 -39.350  49.502  0.00  0.00    +0.000 C 
ATOM     11  C   UNL     1     -41.507 -40.268  50.397  0.00  0.00    +0.000 C 
ATOM     12  C   UNL     1     -40.414 -40.293  48.112  0.00  0.00    +0.000 C 
ATOM     13  C   UNL     1     -37.911 -39.953  48.078  0.00  0.00    +0.000 C 
ATOM     14  C   UNL     1     -42.395 -39.044  50.423  0.00  0.00    +0.000 C 
ATOM     15  C   UNL     1     -42.057 -38.011  51.457  0.00  0.00    +0.000 C 
ATOM     16  C   UNL     1     -39.245 -39.868  47.358  0.00  0.00    +0.000 C 
ATOM     17  C   UNL     1     -38.063 -41.444  49.788  0.00  0.00    +0.000 C 
ATOM     18  C   UNL     1     -42.289 -41.399  50.744  0.00  0.00    +0.000 C 
ATOM     19  C   UNL     1     -41.595 -40.920  47.371  0.00  0.00    +0.000 C 
ATOM     20  C   UNL     1     -43.759 -39.728  50.773  0.00  0.00    +0.000 C 
ATOM     21  C   UNL     1     -43.550 -41.204  50.938  0.00  0.00    +0.000 C 
ATOM     22  C   UNL     1     -44.428 -42.138  51.704  0.00  0.00    +0.000 C 
ENDROOT
BRANCH  13  23
ATOM     23  C   UNL     1     -36.675 -39.391  47.338  0.00  0.00    +0.000 C 
ATOM     24  C   UNL     1     -35.790 -40.211  46.401  0.00  0.00    +0.000 C 
ATOM     25  C   UNL     1     -36.086 -38.219  47.655  0.00  0.00    +0.000 C 
ENDBRANCH  13  23
BRANCH  14  26
ATOM     26  O   UNL     1     -42.424 -38.406  49.164  0.00  0.00    +0.000 OA
ATOM     27  H   UNL     1     -41.513 -38.107  48.970  0.00  0.00    +0.000 HD
ENDBRANCH  14  26
BRANCH  15  28
ATOM     28  O   UNL     1     -43.084 -37.147  51.845  0.00  0.00    +0.000 OA
ATOM     29  H   UNL     1     -43.182 -36.343  51.291  0.00  0.00    +0.000 HD
ENDBRANCH  15  28
BRANCH  17  30
ATOM     30  C   UNL     1     -37.456 -42.653  50.336  0.00  0.00    +0.000 C 
ATOM     31  C   UNL     1     -36.959 -43.648  50.787  0.00  0.00    +0.000 C 
BRANCH  31  32
ATOM     32  C   UNL     1     -36.326 -44.919  51.361  0.00  0.00    +0.000 C 
ATOM     33  C   UNL     1     -35.831 -45.915  51.811  0.00  0.00    +0.000 C 
BRANCH  33  34
ATOM     34  C   UNL     1     -35.201 -47.188  52.385  0.00  0.00    +0.000 C 
ATOM     35  C   UNL     1     -34.572 -48.460  52.958  0.00  0.00    +0.000 C 
BRANCH  35  36
ATOM     36  C   UNL     1     -33.943 -49.735  53.531  0.00  0.00    +0.000 C 
ATOM     37  C   UNL     1     -33.313 -51.009  54.102  0.00  0.00    +0.000 C 
ATOM     38  C   UNL     1     -32.682 -52.282  54.674  0.00  0.00    +0.000 C 
ENDBRANCH  35  36
ENDBRANCH  33  34
ENDBRANCH  31  32
ENDBRANCH  17  30
BRANCH  16  39
ATOM     39  O   UNL     1     -39.429 -39.462  46.026  0.00  0.00    +0.000 OA
BRANCH  39  41
ATOM     40  O   UNL     1     -39.609 -37.221  46.501  0.00  0.00    +0.000 OA
ATOM     41  C   UNL     1     -39.965 -38.213  45.888  0.00  0.00    +0.000 C 
BRANCH  41  42
ATOM     42  C   UNL     1     -41.074 -38.236  44.918  0.00  0.00    +0.000 A 
ATOM     43  C   UNL     1     -42.388 -37.977  45.306  0.00  0.00    +0.000 A 
ATOM     44  C   UNL     1     -40.781 -38.525  43.586  0.00  0.00    +0.000 A 
ATOM     45  C   UNL     1     -43.410 -38.006  44.359  0.00  0.00    +0.000 A 
ATOM     46  C   UNL     1     -41.803 -38.553  42.642  0.00  0.00    +0.000 A 
ATOM     47  C   UNL     1     -43.116 -38.294  43.029  0.00  0.00    +0.000 A 
ENDBRANCH  41  42
ENDBRANCH  39  41
ENDBRANCH  16  39
BRANCH   9  48
ATOM     48  C   UNL     1     -40.483 -36.621  52.848  0.00  0.00    +0.000 C 
BRANCH  48  49
ATOM     49  O   UNL     1     -40.315 -35.604  53.689  0.00  0.00    +0.000 OA
ATOM     50  H   UNL     1     -40.211 -34.771  53.197  0.00  0.00    +0.000 HD
ENDBRANCH  48  49
ENDBRANCH   9  48
TORSDOF 12
ENDMDL
