MODEL 1
REMARK VINA RESULT:      -5.3      0.000      0.000
REMARK  Name = 5386_Tegafur.pdbqt.pdb
REMARK  1 active torsions:
REMARK  status: ('A' for Active; 'I' for Inactive)
REMARK    1  A    between atoms: N_4  and  C_12
REMARK                            x       y       z     vdW  Elec       q    Type
REMARK                         _______ _______ _______ _____ _____    ______ ____
ROOT
ATOM      1  F   UNL     1     -31.191 -46.479  53.296  0.00  0.00    +0.000 F 
ATOM      2  O   UNL     1     -35.524 -49.754  53.320  0.00  0.00    +0.000 OA
ATOM      3  O   UNL     1     -33.839 -45.484  53.255  0.00  0.00    +0.000 OA
ATOM      4  N   UNL     1     -33.186 -49.488  53.078  0.00  0.00    +0.000 N 
ATOM      5  N   UNL     1     -34.636 -47.643  53.198  0.00  0.00    +0.000 N 
ATOM      6  C   UNL     1     -34.525 -49.054  53.205  0.00  0.00    +0.000 C 
ATOM      7  C   UNL     1     -32.235 -48.536  52.977  0.00  0.00    +0.000 C 
ATOM      8  C   UNL     1     -32.240 -47.247  52.959  0.00  0.00    +0.000 C 
ATOM      9  C   UNL     1     -33.617 -46.683  53.144  0.00  0.00    +0.000 C 
ATOM     10  H   UNL     1     -35.572 -47.285  53.326  0.00  0.00    +0.000 HD
ENDROOT
BRANCH   4  12
ATOM     11  O   UNL     1     -32.621 -51.518  51.872  0.00  0.00    +0.000 OA
ATOM     12  C   UNL     1     -32.811 -50.801  53.060  0.00  0.00    +0.000 C 
ATOM     13  C   UNL     1     -32.558 -51.674  54.152  0.00  0.00    +0.000 C 
ATOM     14  C   UNL     1     -32.150 -53.134  53.951  0.00  0.00    +0.000 C 
ATOM     15  C   UNL     1     -32.298 -52.651  52.509  0.00  0.00    +0.000 C 
ENDBRANCH   4  12
TORSDOF 1
ENDMDL
MODEL 2
REMARK VINA RESULT:      -4.8      5.323      5.696
REMARK  Name = 5386_Tegafur.pdbqt.pdb
REMARK  1 active torsions:
REMARK  status: ('A' for Active; 'I' for Inactive)
REMARK    1  A    between atoms: N_4  and  C_12
REMARK                            x       y       z     vdW  Elec       q    Type
REMARK                         _______ _______ _______ _____ _____    ______ ____
ROOT
ATOM      1  F   UNL     1     -29.521 -51.199  57.025  0.00  0.00    +0.000 F 
ATOM      2  O   UNL     1     -32.891 -55.150  55.434  0.00  0.00    +0.000 OA
ATOM      3  O   UNL     1     -31.671 -52.091  58.632  0.00  0.00    +0.000 OA
ATOM      4  N   UNL     1     -31.182 -53.605  54.896  0.00  0.00    +0.000 N 
ATOM      5  N   UNL     1     -32.298 -53.547  56.963  0.00  0.00    +0.000 N 
ATOM      6  C   UNL     1     -32.179 -54.191  55.709  0.00  0.00    +0.000 C 
ATOM      7  C   UNL     1     -30.506 -52.557  55.409  0.00  0.00    +0.000 C 
ATOM      8  C   UNL     1     -30.545 -51.908  56.523  0.00  0.00    +0.000 C 
ATOM      9  C   UNL     1     -31.539 -52.490  57.482  0.00  0.00    +0.000 C 
ATOM     10  H   UNL     1     -32.972 -53.956  57.595  0.00  0.00    +0.000 HD
ENDROOT
BRANCH   4  12
ATOM     11  O   UNL     1     -31.643 -53.728  52.516  0.00  0.00    +0.000 OA
ATOM     12  C   UNL     1     -30.871 -54.042  53.641  0.00  0.00    +0.000 C 
ATOM     13  C   UNL     1     -29.786 -54.859  53.222  0.00  0.00    +0.000 C 
ATOM     14  C   UNL     1     -29.588 -55.265  51.761  0.00  0.00    +0.000 C 
ATOM     15  C   UNL     1     -30.857 -54.418  51.679  0.00  0.00    +0.000 C 
ENDBRANCH   4  12
TORSDOF 1
ENDMDL
MODEL 3
REMARK VINA RESULT:      -4.6     22.039     22.930
REMARK  Name = 5386_Tegafur.pdbqt.pdb
REMARK  1 active torsions:
REMARK  status: ('A' for Active; 'I' for Inactive)
REMARK    1  A    between atoms: N_4  and  C_12
REMARK                            x       y       z     vdW  Elec       q    Type
REMARK                         _______ _______ _______ _____ _____    ______ ____
ROOT
ATOM      1  F   UNL     1     -44.394 -54.709  36.445  0.00  0.00    +0.000 F 
ATOM      2  O   UNL     1     -42.430 -51.360  32.647  0.00  0.00    +0.000 OA
ATOM      3  O   UNL     1     -41.742 -54.904  35.483  0.00  0.00    +0.000 OA
ATOM      4  N   UNL     1     -44.292 -52.209  33.834  0.00  0.00    +0.000 N 
ATOM      5  N   UNL     1     -42.161 -53.181  34.015  0.00  0.00    +0.000 N 
ATOM      6  C   UNL     1     -42.941 -52.162  33.420  0.00  0.00    +0.000 C 
ATOM      7  C   UNL     1     -44.636 -53.177  34.708  0.00  0.00    +0.000 C 
ATOM      8  C   UNL     1     -44.006 -54.137  35.294  0.00  0.00    +0.000 C 
ATOM      9  C   UNL     1     -42.544 -54.140  34.962  0.00  0.00    +0.000 C 
ATOM     10  H   UNL     1     -41.179 -53.164  33.779  0.00  0.00    +0.000 HD
ENDROOT
BRANCH   4  12
ATOM     11  O   UNL     1     -45.834 -50.380  34.246  0.00  0.00    +0.000 OA
ATOM     12  C   UNL     1     -45.249 -51.334  33.406  0.00  0.00    +0.000 C 
ATOM     13  C   UNL     1     -45.831 -51.207  32.116  0.00  0.00    +0.000 C 
ATOM     14  C   UNL     1     -46.907 -50.166  31.806  0.00  0.00    +0.000 C 
ATOM     15  C   UNL     1     -46.629 -49.895  33.283  0.00  0.00    +0.000 C 
ENDBRANCH   4  12
TORSDOF 1
ENDMDL
MODEL 4
REMARK VINA RESULT:      -4.4     22.027     23.154
REMARK  Name = 5386_Tegafur.pdbqt.pdb
REMARK  1 active torsions:
REMARK  status: ('A' for Active; 'I' for Inactive)
REMARK    1  A    between atoms: N_4  and  C_12
REMARK                            x       y       z     vdW  Elec       q    Type
REMARK                         _______ _______ _______ _____ _____    ______ ____
ROOT
ATOM      1  F   UNL     1     -48.488 -50.240  73.704  0.00  0.00    +0.000 F 
ATOM      2  O   UNL     1     -44.896 -47.535  70.657  0.00  0.00    +0.000 OA
ATOM      3  O   UNL     1     -45.810 -49.838  74.522  0.00  0.00    +0.000 OA
ATOM      4  N   UNL     1     -47.006 -48.589  70.848  0.00  0.00    +0.000 N 
ATOM      5  N   UNL     1     -45.376 -48.768  72.531  0.00  0.00    +0.000 N 
ATOM      6  C   UNL     1     -45.702 -48.231  71.263  0.00  0.00    +0.000 C 
ATOM      7  C   UNL     1     -47.731 -49.358  71.685  0.00  0.00    +0.000 C 
ATOM      8  C   UNL     1     -47.520 -49.890  72.841  0.00  0.00    +0.000 C 
ATOM      9  C   UNL     1     -46.177 -49.522  73.397  0.00  0.00    +0.000 C 
ATOM     10  H   UNL     1     -44.467 -48.507  72.887  0.00  0.00    +0.000 HD
ENDROOT
BRANCH   4  12
ATOM     11  O   UNL     1     -47.664 -46.853  69.284  0.00  0.00    +0.000 OA
ATOM     12  C   UNL     1     -47.560 -48.196  69.664  0.00  0.00    +0.000 C 
ATOM     13  C   UNL     1     -48.123 -48.995  68.632  0.00  0.00    +0.000 C 
ATOM     14  C   UNL     1     -48.714 -48.385  67.360  0.00  0.00    +0.000 C 
ATOM     15  C   UNL     1     -48.259 -47.140  68.119  0.00  0.00    +0.000 C 
ENDBRANCH   4  12
TORSDOF 1
ENDMDL
MODEL 5
REMARK VINA RESULT:      -4.4     35.843     36.917
REMARK  Name = 5386_Tegafur.pdbqt.pdb
REMARK  1 active torsions:
REMARK  status: ('A' for Active; 'I' for Inactive)
REMARK    1  A    between atoms: N_4  and  C_12
REMARK                            x       y       z     vdW  Elec       q    Type
REMARK                         _______ _______ _______ _____ _____    ______ ____
ROOT
ATOM      1  F   UNL     1     -57.993 -79.262  50.334  0.00  0.00    +0.000 F 
ATOM      2  O   UNL     1     -57.336 -73.871  50.389  0.00  0.00    +0.000 OA
ATOM      3  O   UNL     1     -57.253 -77.806  48.024  0.00  0.00    +0.000 OA
ATOM      4  N   UNL     1     -58.107 -75.829  51.468  0.00  0.00    +0.000 N 
ATOM      5  N   UNL     1     -57.394 -75.848  49.229  0.00  0.00    +0.000 N 
ATOM      6  C   UNL     1     -57.600 -75.067  50.391  0.00  0.00    +0.000 C 
ATOM      7  C   UNL     1     -58.313 -77.145  51.250  0.00  0.00    +0.000 C 
ATOM      8  C   UNL     1     -58.160 -77.933  50.241  0.00  0.00    +0.000 C 
ATOM      9  C   UNL     1     -57.571 -77.228  49.057  0.00  0.00    +0.000 C 
ATOM     10  H   UNL     1     -56.995 -75.354  48.444  0.00  0.00    +0.000 HD
ENDROOT
BRANCH   4  12
ATOM     11  O   UNL     1     -57.512 -74.461  53.383  0.00  0.00    +0.000 OA
ATOM     12  C   UNL     1     -58.389 -75.311  52.699  0.00  0.00    +0.000 C 
ATOM     13  C   UNL     1     -59.540 -75.506  53.509  0.00  0.00    +0.000 C 
ATOM     14  C   UNL     1     -59.693 -74.848  54.881  0.00  0.00    +0.000 C 
ATOM     15  C   UNL     1     -58.323 -74.335  54.440  0.00  0.00    +0.000 C 
ENDBRANCH   4  12
TORSDOF 1
ENDMDL
MODEL 6
REMARK VINA RESULT:      -4.3     22.612     23.351
REMARK  Name = 5386_Tegafur.pdbqt.pdb
REMARK  1 active torsions:
REMARK  status: ('A' for Active; 'I' for Inactive)
REMARK    1  A    between atoms: N_4  and  C_12
REMARK                            x       y       z     vdW  Elec       q    Type
REMARK                         _______ _______ _______ _____ _____    ______ ____
ROOT
ATOM      1  F   UNL     1     -43.573 -56.144  34.090  0.00  0.00    +0.000 F 
ATOM      2  O   UNL     1     -45.341 -51.049  34.736  0.00  0.00    +0.000 OA
ATOM      3  O   UNL     1     -44.357 -55.124  36.609  0.00  0.00    +0.000 OA
ATOM      4  N   UNL     1     -44.295 -52.674  33.371  0.00  0.00    +0.000 N 
ATOM      5  N   UNL     1     -44.752 -53.072  35.641  0.00  0.00    +0.000 N 
ATOM      6  C   UNL     1     -44.835 -52.153  34.570  0.00  0.00    +0.000 C 
ATOM      7  C   UNL     1     -43.799 -53.927  33.412  0.00  0.00    +0.000 C 
ATOM      8  C   UNL     1     -43.678 -54.827  34.328  0.00  0.00    +0.000 C 
ATOM      9  C   UNL     1     -44.275 -54.390  35.632  0.00  0.00    +0.000 C 
ATOM     10  H   UNL     1     -45.161 -52.759  36.510  0.00  0.00    +0.000 HD
ENDROOT
BRANCH   4  12
ATOM     11  O   UNL     1     -45.334 -51.951  31.300  0.00  0.00    +0.000 OA
ATOM     12  C   UNL     1     -44.257 -51.986  32.193  0.00  0.00    +0.000 C 
ATOM     13  C   UNL     1     -43.198 -51.216  31.642  0.00  0.00    +0.000 C 
ATOM     14  C   UNL     1     -43.321 -50.508  30.291  0.00  0.00    +0.000 C 
ATOM     15  C   UNL     1     -44.690 -51.175  30.419  0.00  0.00    +0.000 C 
ENDBRANCH   4  12
TORSDOF 1
ENDMDL
MODEL 7
REMARK VINA RESULT:      -4.3     31.172     32.616
REMARK  Name = 5386_Tegafur.pdbqt.pdb
REMARK  1 active torsions:
REMARK  status: ('A' for Active; 'I' for Inactive)
REMARK    1  A    between atoms: N_4  and  C_12
REMARK                            x       y       z     vdW  Elec       q    Type
REMARK                         _______ _______ _______ _____ _____    ______ ____
ROOT
ATOM      1  F   UNL     1     -43.972 -68.892  32.939  0.00  0.00    +0.000 F 
ATOM      2  O   UNL     1     -48.939 -68.704  30.750  0.00  0.00    +0.000 OA
ATOM      3  O   UNL     1     -46.322 -69.067  34.504  0.00  0.00    +0.000 OA
ATOM      4  N   UNL     1     -46.605 -68.405  30.508  0.00  0.00    +0.000 N 
ATOM      5  N   UNL     1     -47.593 -68.793  32.604  0.00  0.00    +0.000 N 
ATOM      6  C   UNL     1     -47.808 -68.632  31.215  0.00  0.00    +0.000 C 
ATOM      7  C   UNL     1     -45.463 -68.378  31.225  0.00  0.00    +0.000 C 
ATOM      8  C   UNL     1     -45.172 -68.509  32.475  0.00  0.00    +0.000 C 
ATOM      9  C   UNL     1     -46.381 -68.810  33.308  0.00  0.00    +0.000 C 
ATOM     10  H   UNL     1     -48.420 -68.997  33.147  0.00  0.00    +0.000 HD
ENDROOT
BRANCH   4  12
ATOM     11  O   UNL     1     -46.144 -69.230  28.272  0.00  0.00    +0.000 OA
ATOM     12  C   UNL     1     -46.541 -68.221  29.157  0.00  0.00    +0.000 C 
ATOM     13  C   UNL     1     -46.832 -67.054  28.399  0.00  0.00    +0.000 C 
ATOM     14  C   UNL     1     -46.700 -67.017  26.876  0.00  0.00    +0.000 C 
ATOM     15  C   UNL     1     -46.283 -68.453  27.189  0.00  0.00    +0.000 C 
ENDBRANCH   4  12
TORSDOF 1
ENDMDL
MODEL 8
REMARK VINA RESULT:      -4.2     20.906     21.630
REMARK  Name = 5386_Tegafur.pdbqt.pdb
REMARK  1 active torsions:
REMARK  status: ('A' for Active; 'I' for Inactive)
REMARK    1  A    between atoms: N_4  and  C_12
REMARK                            x       y       z     vdW  Elec       q    Type
REMARK                         _______ _______ _______ _____ _____    ______ ____
ROOT
ATOM      1  F   UNL     1     -45.617 -43.763  69.181  0.00  0.00    +0.000 F 
ATOM      2  O   UNL     1     -44.061 -48.566  71.186  0.00  0.00    +0.000 OA
ATOM      3  O   UNL     1     -43.050 -44.176  70.295  0.00  0.00    +0.000 OA
ATOM      4  N   UNL     1     -45.796 -47.167  70.391  0.00  0.00    +0.000 N 
ATOM      5  N   UNL     1     -43.633 -46.345  70.802  0.00  0.00    +0.000 N 
ATOM      6  C   UNL     1     -44.486 -47.474  70.825  0.00  0.00    +0.000 C 
ATOM      7  C   UNL     1     -46.042 -45.892  70.025  0.00  0.00    +0.000 C 
ATOM      8  C   UNL     1     -45.341 -44.811  69.974  0.00  0.00    +0.000 C 
ATOM      9  C   UNL     1     -43.912 -45.044  70.365  0.00  0.00    +0.000 C 
ATOM     10  H   UNL     1     -42.675 -46.524  71.068  0.00  0.00    +0.000 HD
ENDROOT
BRANCH   4  12
ATOM     11  O   UNL     1     -47.246 -48.815  71.427  0.00  0.00    +0.000 OA
ATOM     12  C   UNL     1     -46.806 -48.082  70.319  0.00  0.00    +0.000 C 
ATOM     13  C   UNL     1     -47.577 -48.475  69.192  0.00  0.00    +0.000 C 
ATOM     14  C   UNL     1     -48.679 -49.532  69.286  0.00  0.00    +0.000 C 
ATOM     15  C   UNL     1     -48.174 -49.479  70.727  0.00  0.00    +0.000 C 
ENDBRANCH   4  12
TORSDOF 1
ENDMDL
MODEL 9
REMARK VINA RESULT:      -4.2     46.230     47.224
REMARK  Name = 5386_Tegafur.pdbqt.pdb
REMARK  1 active torsions:
REMARK  status: ('A' for Active; 'I' for Inactive)
REMARK    1  A    between atoms: N_4  and  C_12
REMARK                            x       y       z     vdW  Elec       q    Type
REMARK                         _______ _______ _______ _____ _____    ______ ____
ROOT
ATOM      1  F   UNL     1     -68.371 -73.677  29.258  0.00  0.00    +0.000 F 
ATOM      2  O   UNL     1     -66.238 -69.906  25.982  0.00  0.00    +0.000 OA
ATOM      3  O   UNL     1     -69.512 -73.032  26.751  0.00  0.00    +0.000 OA
ATOM      4  N   UNL     1     -66.313 -70.932  28.112  0.00  0.00    +0.000 N 
ATOM      5  N   UNL     1     -67.901 -71.414  26.449  0.00  0.00    +0.000 N 
ATOM      6  C   UNL     1     -66.749 -70.669  26.793  0.00  0.00    +0.000 C 
ATOM      7  C   UNL     1     -67.025 -71.825  28.831  0.00  0.00    +0.000 C 
ATOM      8  C   UNL     1     -68.074 -72.541  28.607  0.00  0.00    +0.000 C 
ATOM      9  C   UNL     1     -68.584 -72.374  27.207  0.00  0.00    +0.000 C 
ATOM     10  H   UNL     1     -68.228 -71.288  25.501  0.00  0.00    +0.000 HD
ENDROOT
BRANCH   4  12
ATOM     11  O   UNL     1     -64.294 -69.595  27.951  0.00  0.00    +0.000 OA
ATOM     12  C   UNL     1     -65.223 -70.342  28.684  0.00  0.00    +0.000 C 
ATOM     13  C   UNL     1     -64.809 -70.357  30.043  0.00  0.00    +0.000 C 
ATOM     14  C   UNL     1     -63.543 -69.641  30.517  0.00  0.00    +0.000 C 
ATOM     15  C   UNL     1     -63.535 -69.328  29.022  0.00  0.00    +0.000 C 
ENDBRANCH   4  12
TORSDOF 1
ENDMDL
