MODEL 1
REMARK VINA RESULT:      -6.2      0.000      0.000
REMARK  Name = 5470187_Zerumbone.pdbqt.pdb
REMARK  0 active torsions:
REMARK  status: ('A' for Active; 'I' for Inactive)
REMARK                            x       y       z     vdW  Elec       q    Type
REMARK                         _______ _______ _______ _____ _____    ______ ____
ROOT
ATOM      1  O   UNL     1     -47.248 -66.494  28.342  0.00  0.00    +0.000 OA
ATOM      2  C   UNL     1     -46.407 -61.749  29.146  0.00  0.00    +0.000 C 
ATOM      3  C   UNL     1     -46.709 -61.269  30.516  0.00  0.00    +0.000 C 
ATOM      4  C   UNL     1     -44.908 -61.535  28.828  0.00  0.00    +0.000 C 
ATOM      5  C   UNL     1     -47.299 -60.999  28.125  0.00  0.00    +0.000 C 
ATOM      6  C   UNL     1     -46.732 -63.211  29.128  0.00  0.00    +0.000 C 
ATOM      7  C   UNL     1     -47.132 -61.182  31.993  0.00  0.00    +0.000 C 
ATOM      8  C   UNL     1     -47.560 -61.535  33.168  0.00  0.00    +0.000 C 
ATOM      9  C   UNL     1     -47.915 -62.908  33.192  0.00  0.00    +0.000 C 
ATOM     10  C   UNL     1     -48.092 -64.327  32.646  0.00  0.00    +0.000 C 
ATOM     11  C   UNL     1     -47.024 -64.380  29.200  0.00  0.00    +0.000 C 
ATOM     12  C   UNL     1     -47.027 -60.874  34.396  0.00  0.00    +0.000 C 
ATOM     13  C   UNL     1     -48.055 -65.490  31.651  0.00  0.00    +0.000 C 
ATOM     14  C   UNL     1     -47.930 -66.307  30.646  0.00  0.00    +0.000 C 
ATOM     15  C   UNL     1     -47.395 -65.790  29.334  0.00  0.00    +0.000 C 
ATOM     16  C   UNL     1     -48.351 -67.740  30.870  0.00  0.00    +0.000 C 
ENDROOT
TORSDOF 0
ENDMDL
MODEL 2
REMARK VINA RESULT:      -5.9      4.147      6.589
REMARK  Name = 5470187_Zerumbone.pdbqt.pdb
REMARK  0 active torsions:
REMARK  status: ('A' for Active; 'I' for Inactive)
REMARK                            x       y       z     vdW  Elec       q    Type
REMARK                         _______ _______ _______ _____ _____    ______ ____
ROOT
ATOM      1  O   UNL     1     -44.213 -62.080  23.501  0.00  0.00    +0.000 OA
ATOM      2  C   UNL     1     -45.942 -62.854  28.005  0.00  0.00    +0.000 C 
ATOM      3  C   UNL     1     -46.401 -64.235  28.286  0.00  0.00    +0.000 C 
ATOM      4  C   UNL     1     -44.787 -62.474  28.962  0.00  0.00    +0.000 C 
ATOM      5  C   UNL     1     -47.130 -61.871  28.159  0.00  0.00    +0.000 C 
ATOM      6  C   UNL     1     -45.458 -62.847  26.587  0.00  0.00    +0.000 C 
ATOM      7  C   UNL     1     -46.755 -65.729  28.170  0.00  0.00    +0.000 C 
ATOM      8  C   UNL     1     -46.893 -66.920  27.670  0.00  0.00    +0.000 C 
ATOM      9  C   UNL     1     -46.478 -66.958  26.314  0.00  0.00    +0.000 C 
ATOM     10  C   UNL     1     -45.909 -66.418  25.001  0.00  0.00    +0.000 C 
ATOM     11  C   UNL     1     -45.094 -62.931  25.440  0.00  0.00    +0.000 C 
ATOM     12  C   UNL     1     -46.740 -68.126  28.537  0.00  0.00    +0.000 C 
ATOM     13  C   UNL     1     -45.306 -65.420  24.007  0.00  0.00    +0.000 C 
ATOM     14  C   UNL     1     -44.810 -64.411  23.353  0.00  0.00    +0.000 C 
ATOM     15  C   UNL     1     -44.670 -63.078  24.046  0.00  0.00    +0.000 C 
ATOM     16  C   UNL     1     -44.413 -64.651  21.916  0.00  0.00    +0.000 C 
ENDROOT
TORSDOF 0
ENDMDL
MODEL 3
REMARK VINA RESULT:      -5.7     32.221     34.371
REMARK  Name = 5470187_Zerumbone.pdbqt.pdb
REMARK  0 active torsions:
REMARK  status: ('A' for Active; 'I' for Inactive)
REMARK                            x       y       z     vdW  Elec       q    Type
REMARK                         _______ _______ _______ _____ _____    ______ ____
ROOT
ATOM      1  O   UNL     1     -45.348 -77.870  58.896  0.00  0.00    +0.000 OA
ATOM      2  C   UNL     1     -45.961 -77.198  63.697  0.00  0.00    +0.000 C 
ATOM      3  C   UNL     1     -44.945 -76.344  64.358  0.00  0.00    +0.000 C 
ATOM      4  C   UNL     1     -47.365 -76.566  63.849  0.00  0.00    +0.000 C 
ATOM      5  C   UNL     1     -45.926 -78.618  64.314  0.00  0.00    +0.000 C 
ATOM      6  C   UNL     1     -45.582 -77.263  62.248  0.00  0.00    +0.000 C 
ATOM      7  C   UNL     1     -43.733 -75.439  64.645  0.00  0.00    +0.000 C 
ATOM      8  C   UNL     1     -42.659 -74.732  64.456  0.00  0.00    +0.000 C 
ATOM      9  C   UNL     1     -42.240 -74.791  63.102  0.00  0.00    +0.000 C 
ATOM     10  C   UNL     1     -42.299 -75.189  61.626  0.00  0.00    +0.000 C 
ATOM     11  C   UNL     1     -45.202 -77.266  61.103  0.00  0.00    +0.000 C 
ATOM     12  C   UNL     1     -42.410 -73.505  65.268  0.00  0.00    +0.000 C 
ATOM     13  C   UNL     1     -42.819 -75.839  60.340  0.00  0.00    +0.000 C 
ATOM     14  C   UNL     1     -43.445 -76.478  59.395  0.00  0.00    +0.000 C 
ATOM     15  C   UNL     1     -44.701 -77.244  59.727  0.00  0.00    +0.000 C 
ATOM     16  C   UNL     1     -42.848 -76.412  58.010  0.00  0.00    +0.000 C 
ENDROOT
TORSDOF 0
ENDMDL
MODEL 4
REMARK VINA RESULT:      -5.7      9.702     12.042
REMARK  Name = 5470187_Zerumbone.pdbqt.pdb
REMARK  0 active torsions:
REMARK  status: ('A' for Active; 'I' for Inactive)
REMARK                            x       y       z     vdW  Elec       q    Type
REMARK                         _______ _______ _______ _____ _____    ______ ____
ROOT
ATOM      1  O   UNL     1     -46.485 -49.895  30.677  0.00  0.00    +0.000 OA
ATOM      2  C   UNL     1     -43.847 -54.006  30.790  0.00  0.00    +0.000 C 
ATOM      3  C   UNL     1     -43.581 -54.559  32.140  0.00  0.00    +0.000 C 
ATOM      4  C   UNL     1     -44.641 -55.031  29.945  0.00  0.00    +0.000 C 
ATOM      5  C   UNL     1     -42.505 -53.647  30.103  0.00  0.00    +0.000 C 
ATOM      6  C   UNL     1     -44.662 -52.765  30.993  0.00  0.00    +0.000 C 
ATOM      7  C   UNL     1     -43.533 -54.789  33.661  0.00  0.00    +0.000 C 
ATOM      8  C   UNL     1     -43.735 -54.618  34.934  0.00  0.00    +0.000 C 
ATOM      9  C   UNL     1     -44.476 -53.434  35.180  0.00  0.00    +0.000 C 
ATOM     10  C   UNL     1     -45.252 -52.162  34.834  0.00  0.00    +0.000 C 
ATOM     11  C   UNL     1     -45.309 -51.779  31.247  0.00  0.00    +0.000 C 
ATOM     12  C   UNL     1     -43.874 -55.795  35.841  0.00  0.00    +0.000 C 
ATOM     13  C   UNL     1     -45.901 -51.071  33.976  0.00  0.00    +0.000 C 
ATOM     14  C   UNL     1     -46.361 -50.277  33.054  0.00  0.00    +0.000 C 
ATOM     15  C   UNL     1     -46.088 -50.592  31.604  0.00  0.00    +0.000 C 
ATOM     16  C   UNL     1     -47.139 -49.068  33.514  0.00  0.00    +0.000 C 
ENDROOT
TORSDOF 0
ENDMDL
MODEL 5
REMARK VINA RESULT:      -5.7      9.414     11.639
REMARK  Name = 5470187_Zerumbone.pdbqt.pdb
REMARK  0 active torsions:
REMARK  status: ('A' for Active; 'I' for Inactive)
REMARK                            x       y       z     vdW  Elec       q    Type
REMARK                         _______ _______ _______ _____ _____    ______ ____
ROOT
ATOM      1  O   UNL     1     -42.572 -51.507  33.117  0.00  0.00    +0.000 OA
ATOM      2  C   UNL     1     -39.987 -55.534  34.103  0.00  0.00    +0.000 C 
ATOM      3  C   UNL     1     -40.663 -56.535  34.962  0.00  0.00    +0.000 C 
ATOM      4  C   UNL     1     -39.651 -56.157  32.727  0.00  0.00    +0.000 C 
ATOM      5  C   UNL     1     -38.702 -55.030  34.807  0.00  0.00    +0.000 C 
ATOM      6  C   UNL     1     -40.951 -54.400  33.932  0.00  0.00    +0.000 C 
ATOM      7  C   UNL     1     -41.681 -57.282  35.842  0.00  0.00    +0.000 C 
ATOM      8  C   UNL     1     -42.774 -57.553  36.492  0.00  0.00    +0.000 C 
ATOM      9  C   UNL     1     -43.708 -56.491  36.388  0.00  0.00    +0.000 C 
ATOM     10  C   UNL     1     -44.258 -55.139  35.929  0.00  0.00    +0.000 C 
ATOM     11  C   UNL     1     -41.784 -53.531  33.852  0.00  0.00    +0.000 C 
ATOM     12  C   UNL     1     -43.249 -58.963  36.615  0.00  0.00    +0.000 C 
ATOM     13  C   UNL     1     -44.310 -53.786  35.214  0.00  0.00    +0.000 C 
ATOM     14  C   UNL     1     -44.125 -52.697  34.525  0.00  0.00    +0.000 C 
ATOM     15  C   UNL     1     -42.824 -52.502  33.787  0.00  0.00    +0.000 C 
ATOM     16  C   UNL     1     -45.245 -51.685  34.527  0.00  0.00    +0.000 C 
ENDROOT
TORSDOF 0
ENDMDL
MODEL 6
REMARK VINA RESULT:      -5.6     33.920     36.009
REMARK  Name = 5470187_Zerumbone.pdbqt.pdb
REMARK  0 active torsions:
REMARK  status: ('A' for Active; 'I' for Inactive)
REMARK                            x       y       z     vdW  Elec       q    Type
REMARK                         _______ _______ _______ _____ _____    ______ ____
ROOT
ATOM      1  O   UNL     1     -43.559 -77.525  61.290  0.00  0.00    +0.000 OA
ATOM      2  C   UNL     1     -42.930 -74.699  65.226  0.00  0.00    +0.000 C 
ATOM      3  C   UNL     1     -44.152 -74.426  66.019  0.00  0.00    +0.000 C 
ATOM      4  C   UNL     1     -41.884 -75.433  66.098  0.00  0.00    +0.000 C 
ATOM      5  C   UNL     1     -42.356 -73.367  64.682  0.00  0.00    +0.000 C 
ATOM      6  C   UNL     1     -43.352 -75.574  64.085  0.00  0.00    +0.000 C 
ATOM      7  C   UNL     1     -45.600 -74.389  66.541  0.00  0.00    +0.000 C 
ATOM      8  C   UNL     1     -46.877 -74.615  66.630  0.00  0.00    +0.000 C 
ATOM      9  C   UNL     1     -47.332 -75.414  65.550  0.00  0.00    +0.000 C 
ATOM     10  C   UNL     1     -47.223 -76.244  64.269  0.00  0.00    +0.000 C 
ATOM     11  C   UNL     1     -43.778 -76.270  63.196  0.00  0.00    +0.000 C 
ATOM     12  C   UNL     1     -47.535 -74.712  67.967  0.00  0.00    +0.000 C 
ATOM     13  C   UNL     1     -46.579 -76.931  63.061  0.00  0.00    +0.000 C 
ATOM     14  C   UNL     1     -45.819 -77.415  62.123  0.00  0.00    +0.000 C 
ATOM     15  C   UNL     1     -44.342 -77.108  62.136  0.00  0.00    +0.000 C 
ATOM     16  C   UNL     1     -46.488 -78.256  61.062  0.00  0.00    +0.000 C 
ENDROOT
TORSDOF 0
ENDMDL
MODEL 7
REMARK VINA RESULT:      -5.5      6.958      8.618
REMARK  Name = 5470187_Zerumbone.pdbqt.pdb
REMARK  0 active torsions:
REMARK  status: ('A' for Active; 'I' for Inactive)
REMARK                            x       y       z     vdW  Elec       q    Type
REMARK                         _______ _______ _______ _____ _____    ______ ____
ROOT
ATOM      1  O   UNL     1     -42.686 -61.857  40.502  0.00  0.00    +0.000 OA
ATOM      2  C   UNL     1     -44.106 -60.033  36.198  0.00  0.00    +0.000 C 
ATOM      3  C   UNL     1     -45.526 -60.265  35.841  0.00  0.00    +0.000 C 
ATOM      4  C   UNL     1     -43.822 -58.514  36.279  0.00  0.00    +0.000 C 
ATOM      5  C   UNL     1     -43.190 -60.709  35.147  0.00  0.00    +0.000 C 
ATOM      6  C   UNL     1     -43.896 -60.667  37.539  0.00  0.00    +0.000 C 
ATOM      7  C   UNL     1     -47.001 -60.706  35.852  0.00  0.00    +0.000 C 
ATOM      8  C   UNL     1     -48.119 -61.236  36.250  0.00  0.00    +0.000 C 
ATOM      9  C   UNL     1     -47.962 -61.880  37.503  0.00  0.00    +0.000 C 
ATOM     10  C   UNL     1     -47.235 -62.343  38.767  0.00  0.00    +0.000 C 
ATOM     11  C   UNL     1     -43.814 -61.207  38.615  0.00  0.00    +0.000 C 
ATOM     12  C   UNL     1     -49.424 -60.611  35.883  0.00  0.00    +0.000 C 
ATOM     13  C   UNL     1     -46.096 -62.529  39.774  0.00  0.00    +0.000 C 
ATOM     14  C   UNL     1     -44.993 -62.554  40.465  0.00  0.00    +0.000 C 
ATOM     15  C   UNL     1     -43.762 -61.879  39.915  0.00  0.00    +0.000 C 
ATOM     16  C   UNL     1     -45.027 -63.282  41.787  0.00  0.00    +0.000 C 
ENDROOT
TORSDOF 0
ENDMDL
MODEL 8
REMARK VINA RESULT:      -5.5     32.756     34.766
REMARK  Name = 5470187_Zerumbone.pdbqt.pdb
REMARK  0 active torsions:
REMARK  status: ('A' for Active; 'I' for Inactive)
REMARK                            x       y       z     vdW  Elec       q    Type
REMARK                         _______ _______ _______ _____ _____    ______ ____
ROOT
ATOM      1  O   UNL     1     -48.506 -78.051  61.735  0.00  0.00    +0.000 OA
ATOM      2  C   UNL     1     -43.847 -77.180  60.551  0.00  0.00    +0.000 C 
ATOM      3  C   UNL     1     -43.040 -76.495  61.589  0.00  0.00    +0.000 C 
ATOM      4  C   UNL     1     -43.235 -78.565  60.233  0.00  0.00    +0.000 C 
ATOM      5  C   UNL     1     -43.908 -76.300  59.278  0.00  0.00    +0.000 C 
ATOM      6  C   UNL     1     -45.222 -77.344  61.122  0.00  0.00    +0.000 C 
ATOM      7  C   UNL     1     -42.574 -75.802  62.882  0.00  0.00    +0.000 C 
ATOM      8  C   UNL     1     -42.597 -75.300  64.081  0.00  0.00    +0.000 C 
ATOM      9  C   UNL     1     -43.891 -75.401  64.653  0.00  0.00    +0.000 C 
ATOM     10  C   UNL     1     -45.370 -75.787  64.731  0.00  0.00    +0.000 C 
ATOM     11  C   UNL     1     -46.300 -77.430  61.657  0.00  0.00    +0.000 C 
ATOM     12  C   UNL     1     -41.384 -75.360  64.948  0.00  0.00    +0.000 C 
ATOM     13  C   UNL     1     -46.718 -76.373  64.304  0.00  0.00    +0.000 C 
ATOM     14  C   UNL     1     -47.743 -76.933  63.730  0.00  0.00    +0.000 C 
ATOM     15  C   UNL     1     -47.591 -77.508  62.344  0.00  0.00    +0.000 C 
ATOM     16  C   UNL     1     -49.038 -76.955  64.506  0.00  0.00    +0.000 C 
ENDROOT
TORSDOF 0
ENDMDL
MODEL 9
REMARK VINA RESULT:      -5.3     27.608     29.497
REMARK  Name = 5470187_Zerumbone.pdbqt.pdb
REMARK  0 active torsions:
REMARK  status: ('A' for Active; 'I' for Inactive)
REMARK                            x       y       z     vdW  Elec       q    Type
REMARK                         _______ _______ _______ _____ _____    ______ ____
ROOT
ATOM      1  O   UNL     1     -41.928 -40.740  51.233  0.00  0.00    +0.000 OA
ATOM      2  C   UNL     1     -37.580 -42.460  49.814  0.00  0.00    +0.000 C 
ATOM      3  C   UNL     1     -37.415 -42.655  48.354  0.00  0.00    +0.000 C 
ATOM      4  C   UNL     1     -36.542 -41.437  50.334  0.00  0.00    +0.000 C 
ATOM      5  C   UNL     1     -37.424 -43.820  50.540  0.00  0.00    +0.000 C 
ATOM      6  C   UNL     1     -38.968 -41.931  50.017  0.00  0.00    +0.000 C 
ATOM      7  C   UNL     1     -37.646 -42.710  46.834  0.00  0.00    +0.000 C 
ATOM      8  C   UNL     1     -38.230 -42.597  45.678  0.00  0.00    +0.000 C 
ATOM      9  C   UNL     1     -39.562 -42.131  45.820  0.00  0.00    +0.000 C 
ATOM     10  C   UNL     1     -40.806 -41.627  46.554  0.00  0.00    +0.000 C 
ATOM     11  C   UNL     1     -40.098 -41.515  50.090  0.00  0.00    +0.000 C 
ATOM     12  C   UNL     1     -37.437 -42.248  44.462  0.00  0.00    +0.000 C 
ATOM     13  C   UNL     1     -41.700 -41.189  47.718  0.00  0.00    +0.000 C 
ATOM     14  C   UNL     1     -42.260 -40.872  48.849  0.00  0.00    +0.000 C 
ATOM     15  C   UNL     1     -41.475 -41.018  50.129  0.00  0.00    +0.000 C 
ATOM     16  C   UNL     1     -43.687 -40.382  48.796  0.00  0.00    +0.000 C 
ENDROOT
TORSDOF 0
ENDMDL
