MODEL 1
REMARK VINA RESULT:      -6.6      0.000      0.000
REMARK  Name = 5azacytidine.pdbqt.pdb
REMARK  5 active torsions:
REMARK  status: ('A' for Active; 'I' for Inactive)
REMARK    1  A    between atoms: C2*_2  and  O2*_16
REMARK    2  A    between atoms: C3*_3  and  O3*_21
REMARK    3  A    between atoms: C4*_4  and  C5*_18
REMARK    4  A    between atoms: C1*_5  and  N_6
REMARK    5  A    between atoms: C5*_18  and  O5*_19
REMARK                            x       y       z     vdW  Elec       q    Type
REMARK                         _______ _______ _______ _____ _____    ______ ____
ROOT
ATOM      1  O4* UNL     1     -32.162 -51.712  52.202  0.00  0.00    +0.000 OA
ATOM      2  C2* UNL     1     -32.747 -52.036  54.409  0.00  0.00    +0.000 A 
ATOM      3  C3* UNL     1     -32.120 -53.229  53.929  0.00  0.00    +0.000 A 
ATOM      4  C4* UNL     1     -31.753 -53.009  52.560  0.00  0.00    +0.000 A 
ATOM      5  C1* UNL     1     -32.787 -51.102  53.310  0.00  0.00    +0.000 A 
ENDROOT
BRANCH   5   6
ATOM      6  N   UNL     1     -33.336 -49.858  53.215  0.00  0.00    +0.000 N 
ATOM      7  C   UNL     1     -34.685 -49.527  53.254  0.00  0.00    +0.000 A 
ATOM      8  O   UNL     1     -35.586 -50.357  53.352  0.00  0.00    +0.000 OA
ATOM      9  N   UNL     1     -34.960 -48.165  53.155  0.00  0.00    +0.000 NA
ATOM     10  C   UNL     1     -33.987 -47.298  53.031  0.00  0.00    +0.000 A 
ATOM     11  N   UNL     1     -32.647 -47.637  52.962  0.00  0.00    +0.000 NA
ATOM     12  C   UNL     1     -32.550 -48.794  53.069  0.00  0.00    +0.000 A 
ATOM     13  N   UNL     1     -34.304 -45.981  52.942  0.00  0.00    +0.000 N 
ATOM     14  H   UNL     1     -33.617 -45.418  52.458  0.00  0.00    +0.000 HD
ATOM     15  H   UNL     1     -35.264 -45.813  52.667  0.00  0.00    +0.000 HD
ENDBRANCH   5   6
BRANCH   2  16
ATOM     16  O2* UNL     1     -33.678 -52.114  55.408  0.00  0.00    +0.000 OA
ATOM     17  H2* UNL     1     -33.262 -52.113  56.298  0.00  0.00    +0.000 HD
ENDBRANCH   2  16
BRANCH   3  18
ATOM     18  O3* UNL     1     -32.491 -54.459  54.397  0.00  0.00    +0.000 OA
ATOM     19  H3* UNL     1     -33.313 -54.747  53.956  0.00  0.00    +0.000 HD
ENDBRANCH   3  18
BRANCH   4  20
ATOM     20  C5* UNL     1     -31.367 -53.970  51.606  0.00  0.00    +0.000 C 
BRANCH  20  21
ATOM     21  O5* UNL     1     -31.009 -54.873  50.699  0.00  0.00    +0.000 OA
ATOM     22  H5* UNL     1     -30.909 -54.450  49.829  0.00  0.00    +0.000 HD
ENDBRANCH  20  21
ENDBRANCH   4  20
TORSDOF 5
ENDMDL
MODEL 2
REMARK VINA RESULT:      -5.7      9.919     12.309
REMARK  Name = 5azacytidine.pdbqt.pdb
REMARK  5 active torsions:
REMARK  status: ('A' for Active; 'I' for Inactive)
REMARK    1  A    between atoms: C2*_2  and  O2*_16
REMARK    2  A    between atoms: C3*_3  and  O3*_21
REMARK    3  A    between atoms: C4*_4  and  C5*_18
REMARK    4  A    between atoms: C1*_5  and  N_6
REMARK    5  A    between atoms: C5*_18  and  O5*_19
REMARK                            x       y       z     vdW  Elec       q    Type
REMARK                         _______ _______ _______ _____ _____    ______ ____
ROOT
ATOM      1  O4* UNL     1     -34.252 -60.448  44.677  0.00  0.00    +0.000 OA
ATOM      2  C2* UNL     1     -34.871 -61.783  46.454  0.00  0.00    +0.000 A 
ATOM      3  C3* UNL     1     -35.597 -62.207  45.296  0.00  0.00    +0.000 A 
ATOM      4  C4* UNL     1     -35.194 -61.375  44.199  0.00  0.00    +0.000 A 
ATOM      5  C1* UNL     1     -34.049 -60.665  46.057  0.00  0.00    +0.000 A 
ENDROOT
BRANCH   5   6
ATOM      6  N   UNL     1     -33.227 -59.858  46.785  0.00  0.00    +0.000 N 
ATOM      7  C   UNL     1     -31.894 -60.081  47.107  0.00  0.00    +0.000 A 
ATOM      8  O   UNL     1     -31.278 -61.094  46.784  0.00  0.00    +0.000 OA
ATOM      9  N   UNL     1     -31.290 -59.070  47.849  0.00  0.00    +0.000 NA
ATOM     10  C   UNL     1     -31.969 -58.006  48.200  0.00  0.00    +0.000 A 
ATOM     11  N   UNL     1     -33.305 -57.804  47.903  0.00  0.00    +0.000 NA
ATOM     12  C   UNL     1     -33.687 -58.707  47.272  0.00  0.00    +0.000 A 
ATOM     13  N   UNL     1     -31.337 -57.045  48.921  0.00  0.00    +0.000 N 
ATOM     14  H   UNL     1     -31.950 -56.482  49.495  0.00  0.00    +0.000 HD
ATOM     15  H   UNL     1     -30.498 -57.373  49.386  0.00  0.00    +0.000 HD
ENDBRANCH   5   6
BRANCH   2  16
ATOM     16  O2* UNL     1     -35.416 -61.955  47.696  0.00  0.00    +0.000 OA
ATOM     17  H2* UNL     1     -35.926 -61.167  47.986  0.00  0.00    +0.000 HD
ENDBRANCH   2  16
BRANCH   3  18
ATOM     18  O3* UNL     1     -36.863 -62.712  45.403  0.00  0.00    +0.000 OA
ATOM     19  H3* UNL     1     -36.865 -63.657  45.158  0.00  0.00    +0.000 HD
ENDBRANCH   3  18
BRANCH   4  20
ATOM     20  C5* UNL     1     -35.823 -61.236  42.947  0.00  0.00    +0.000 C 
BRANCH  20  21
ATOM     21  O5* UNL     1     -36.425 -61.110  41.768  0.00  0.00    +0.000 OA
ATOM     22  H5* UNL     1     -35.887 -60.554  41.178  0.00  0.00    +0.000 HD
ENDBRANCH  20  21
ENDBRANCH   4  20
TORSDOF 5
ENDMDL
MODEL 3
REMARK VINA RESULT:      -5.0      4.567      6.524
REMARK  Name = 5azacytidine.pdbqt.pdb
REMARK  5 active torsions:
REMARK  status: ('A' for Active; 'I' for Inactive)
REMARK    1  A    between atoms: C2*_2  and  O2*_16
REMARK    2  A    between atoms: C3*_3  and  O3*_21
REMARK    3  A    between atoms: C4*_4  and  C5*_18
REMARK    4  A    between atoms: C1*_5  and  N_6
REMARK    5  A    between atoms: C5*_18  and  O5*_19
REMARK                            x       y       z     vdW  Elec       q    Type
REMARK                         _______ _______ _______ _____ _____    ______ ____
ROOT
ATOM      1  O4* UNL     1     -30.874 -51.496  55.104  0.00  0.00    +0.000 OA
ATOM      2  C2* UNL     1     -31.817 -53.538  54.590  0.00  0.00    +0.000 A 
ATOM      3  C3* UNL     1     -32.244 -52.584  53.612  0.00  0.00    +0.000 A 
ATOM      4  C4* UNL     1     -31.641 -51.324  53.939  0.00  0.00    +0.000 A 
ATOM      5  C1* UNL     1     -30.978 -52.837  55.532  0.00  0.00    +0.000 A 
ENDROOT
BRANCH   5   6
ATOM      6  N   UNL     1     -30.379 -53.261  56.680  0.00  0.00    +0.000 N 
ATOM      7  C   UNL     1     -30.656 -52.848  57.978  0.00  0.00    +0.000 A 
ATOM      8  O   UNL     1     -31.491 -51.990  58.254  0.00  0.00    +0.000 OA
ATOM      9  N   UNL     1     -29.899 -53.470  58.968  0.00  0.00    +0.000 NA
ATOM     10  C   UNL     1     -29.000 -54.368  58.652  0.00  0.00    +0.000 A 
ATOM     11  N   UNL     1     -28.708 -54.752  57.356  0.00  0.00    +0.000 NA
ATOM     12  C   UNL     1     -29.412 -54.175  56.628  0.00  0.00    +0.000 A 
ATOM     13  N   UNL     1     -28.289 -54.949  59.652  0.00  0.00    +0.000 N 
ATOM     14  H   UNL     1     -27.382 -55.297  59.372  0.00  0.00    +0.000 HD
ATOM     15  H   UNL     1     -28.295 -54.418  60.515  0.00  0.00    +0.000 HD
ENDBRANCH   5   6
BRANCH   2  16
ATOM     16  O2* UNL     1     -32.619 -54.603  54.893  0.00  0.00    +0.000 OA
ATOM     17  H2* UNL     1     -33.434 -54.326  55.367  0.00  0.00    +0.000 HD
ENDBRANCH   2  16
BRANCH   3  18
ATOM     18  O3* UNL     1     -33.478 -52.674  53.029  0.00  0.00    +0.000 OA
ATOM     19  H3* UNL     1     -33.600 -51.940  52.399  0.00  0.00    +0.000 HD
ENDBRANCH   3  18
BRANCH   4  20
ATOM     20  C5* UNL     1     -31.978 -50.052  53.438  0.00  0.00    +0.000 C 
BRANCH  20  21
ATOM     21  O5* UNL     1     -32.303 -48.850  52.971  0.00  0.00    +0.000 OA
ATOM     22  H5* UNL     1     -31.502 -48.310  52.856  0.00  0.00    +0.000 HD
ENDBRANCH  20  21
ENDBRANCH   4  20
TORSDOF 5
ENDMDL
MODEL 4
REMARK VINA RESULT:      -5.0     13.436     15.696
REMARK  Name = 5azacytidine.pdbqt.pdb
REMARK  5 active torsions:
REMARK  status: ('A' for Active; 'I' for Inactive)
REMARK    1  A    between atoms: C2*_2  and  O2*_16
REMARK    2  A    between atoms: C3*_3  and  O3*_21
REMARK    3  A    between atoms: C4*_4  and  C5*_18
REMARK    4  A    between atoms: C1*_5  and  N_6
REMARK    5  A    between atoms: C5*_18  and  O5*_19
REMARK                            x       y       z     vdW  Elec       q    Type
REMARK                         _______ _______ _______ _____ _____    ______ ____
ROOT
ATOM      1  O4* UNL     1     -35.381 -61.883  44.407  0.00  0.00    +0.000 OA
ATOM      2  C2* UNL     1     -34.064 -60.335  43.316  0.00  0.00    +0.000 A 
ATOM      3  C3* UNL     1     -33.808 -60.235  44.721  0.00  0.00    +0.000 A 
ATOM      4  C4* UNL     1     -34.626 -61.211  45.383  0.00  0.00    +0.000 A 
ATOM      5  C1* UNL     1     -35.068 -61.355  43.136  0.00  0.00    +0.000 A 
ENDROOT
BRANCH   5   6
ATOM      6  N   UNL     1     -35.710 -61.787  42.014  0.00  0.00    +0.000 N 
ATOM      7  C   UNL     1     -35.460 -62.949  41.294  0.00  0.00    +0.000 A 
ATOM      8  O   UNL     1     -34.569 -63.746  41.579  0.00  0.00    +0.000 OA
ATOM      9  N   UNL     1     -36.290 -63.151  40.195  0.00  0.00    +0.000 NA
ATOM     10  C   UNL     1     -37.221 -62.280  39.896  0.00  0.00    +0.000 A 
ATOM     11  N   UNL     1     -37.445 -61.109  40.599  0.00  0.00    +0.000 NA
ATOM     12  C   UNL     1     -36.701 -61.066  41.495  0.00  0.00    +0.000 A 
ATOM     13  N   UNL     1     -38.008 -62.521  38.817  0.00  0.00    +0.000 N 
ATOM     14  H   UNL     1     -38.404 -61.692  38.394  0.00  0.00    +0.000 HD
ATOM     15  H   UNL     1     -37.608 -63.184  38.163  0.00  0.00    +0.000 HD
ENDBRANCH   5   6
BRANCH   2  16
ATOM     16  O2* UNL     1     -33.911 -59.233  42.520  0.00  0.00    +0.000 OA
ATOM     17  H2* UNL     1     -33.810 -59.475  41.574  0.00  0.00    +0.000 HD
ENDBRANCH   2  16
BRANCH   3  18
ATOM     18  O3* UNL     1     -33.488 -59.038  45.297  0.00  0.00    +0.000 OA
ATOM     19  H3* UNL     1     -33.522 -58.329  44.628  0.00  0.00    +0.000 HD
ENDBRANCH   3  18
BRANCH   4  20
ATOM     20  C5* UNL     1     -34.918 -61.300  46.758  0.00  0.00    +0.000 C 
BRANCH  20  21
ATOM     21  O5* UNL     1     -35.204 -61.385  48.053  0.00  0.00    +0.000 OA
ATOM     22  H5* UNL     1     -34.440 -61.096  48.582  0.00  0.00    +0.000 HD
ENDBRANCH  20  21
ENDBRANCH   4  20
TORSDOF 5
ENDMDL
MODEL 5
REMARK VINA RESULT:      -5.0      7.116     10.366
REMARK  Name = 5azacytidine.pdbqt.pdb
REMARK  5 active torsions:
REMARK  status: ('A' for Active; 'I' for Inactive)
REMARK    1  A    between atoms: C2*_2  and  O2*_16
REMARK    2  A    between atoms: C3*_3  and  O3*_21
REMARK    3  A    between atoms: C4*_4  and  C5*_18
REMARK    4  A    between atoms: C1*_5  and  N_6
REMARK    5  A    between atoms: C5*_18  and  O5*_19
REMARK                            x       y       z     vdW  Elec       q    Type
REMARK                         _______ _______ _______ _____ _____    ______ ____
ROOT
ATOM      1  O4* UNL     1     -38.328 -42.815  50.306  0.00  0.00    +0.000 OA
ATOM      2  C2* UNL     1     -37.550 -43.646  48.300  0.00  0.00    +0.000 A 
ATOM      3  C3* UNL     1     -38.657 -42.780  48.031  0.00  0.00    +0.000 A 
ATOM      4  C4* UNL     1     -39.122 -42.263  49.286  0.00  0.00    +0.000 A 
ATOM      5  C1* UNL     1     -37.370 -43.677  49.731  0.00  0.00    +0.000 A 
ENDROOT
BRANCH   5   6
ATOM      6  N   UNL     1     -36.509 -44.394  50.508  0.00  0.00    +0.000 N 
ATOM      7  C   UNL     1     -35.120 -44.388  50.455  0.00  0.00    +0.000 A 
ATOM      8  O   UNL     1     -34.474 -43.729  49.643  0.00  0.00    +0.000 OA
ATOM      9  N   UNL     1     -34.492 -45.208  51.388  0.00  0.00    +0.000 NA
ATOM     10  C   UNL     1     -35.198 -45.918  52.231  0.00  0.00    +0.000 A 
ATOM     11  N   UNL     1     -36.582 -45.943  52.259  0.00  0.00    +0.000 NA
ATOM     12  C   UNL     1     -36.983 -45.211  51.446  0.00  0.00    +0.000 A 
ATOM     13  N   UNL     1     -34.542 -46.700  53.126  0.00  0.00    +0.000 N 
ATOM     14  H   UNL     1     -35.072 -47.496  53.454  0.00  0.00    +0.000 HD
ATOM     15  H   UNL     1     -33.585 -46.904  52.860  0.00  0.00    +0.000 HD
ENDBRANCH   5   6
BRANCH   2  16
ATOM     16  O2* UNL     1     -37.281 -44.684  47.452  0.00  0.00    +0.000 OA
ATOM     17  H2* UNL     1     -37.076 -44.372  46.543  0.00  0.00    +0.000 HD
ENDBRANCH   2  16
BRANCH   3  18
ATOM     18  O3* UNL     1     -39.501 -43.017  46.981  0.00  0.00    +0.000 OA
ATOM     19  H3* UNL     1     -40.427 -42.931  47.275  0.00  0.00    +0.000 HD
ENDBRANCH   3  18
BRANCH   4  20
ATOM     20  C5* UNL     1     -40.337 -41.602  49.549  0.00  0.00    +0.000 C 
BRANCH  20  21
ATOM     21  O5* UNL     1     -41.484 -40.981  49.806  0.00  0.00    +0.000 OA
ATOM     22  H5* UNL     1     -41.319 -40.039  49.986  0.00  0.00    +0.000 HD
ENDBRANCH  20  21
ENDBRANCH   4  20
TORSDOF 5
ENDMDL
MODEL 6
REMARK VINA RESULT:      -5.0     10.458     12.713
REMARK  Name = 5azacytidine.pdbqt.pdb
REMARK  5 active torsions:
REMARK  status: ('A' for Active; 'I' for Inactive)
REMARK    1  A    between atoms: C2*_2  and  O2*_16
REMARK    2  A    between atoms: C3*_3  and  O3*_21
REMARK    3  A    between atoms: C4*_4  and  C5*_18
REMARK    4  A    between atoms: C1*_5  and  N_6
REMARK    5  A    between atoms: C5*_18  and  O5*_19
REMARK                            x       y       z     vdW  Elec       q    Type
REMARK                         _______ _______ _______ _____ _____    ______ ____
ROOT
ATOM      1  O4* UNL     1     -34.253 -60.280  44.012  0.00  0.00    +0.000 OA
ATOM      2  C2* UNL     1     -34.521 -61.759  45.762  0.00  0.00    +0.000 A 
ATOM      3  C3* UNL     1     -35.475 -62.084  44.746  0.00  0.00    +0.000 A 
ATOM      4  C4* UNL     1     -35.288 -61.163  43.661  0.00  0.00    +0.000 A 
ATOM      5  C1* UNL     1     -33.778 -60.612  45.299  0.00  0.00    +0.000 A 
ENDROOT
BRANCH   5   6
ATOM      6  N   UNL     1     -32.812 -59.868  45.909  0.00  0.00    +0.000 N 
ATOM      7  C   UNL     1     -32.867 -59.283  47.168  0.00  0.00    +0.000 A 
ATOM      8  O   UNL     1     -33.851 -59.342  47.902  0.00  0.00    +0.000 OA
ATOM      9  N   UNL     1     -31.718 -58.594  47.548  0.00  0.00    +0.000 NA
ATOM     10  C   UNL     1     -30.687 -58.526  46.743  0.00  0.00    +0.000 A 
ATOM     11  N   UNL     1     -30.650 -59.085  45.478  0.00  0.00    +0.000 NA
ATOM     12  C   UNL     1     -31.657 -59.640  45.287  0.00  0.00    +0.000 A 
ATOM     13  N   UNL     1     -29.588 -57.846  47.158  0.00  0.00    +0.000 N 
ATOM     14  H   UNL     1     -29.016 -57.478  46.410  0.00  0.00    +0.000 HD
ATOM     15  H   UNL     1     -29.774 -57.196  47.913  0.00  0.00    +0.000 HD
ENDBRANCH   5   6
BRANCH   2  16
ATOM     16  O2* UNL     1     -34.805 -62.035  47.071  0.00  0.00    +0.000 OA
ATOM     17  H2* UNL     1     -34.684 -61.248  47.647  0.00  0.00    +0.000 HD
ENDBRANCH   2  16
BRANCH   3  18
ATOM     18  O3* UNL     1     -36.701 -62.597  45.067  0.00  0.00    +0.000 OA
ATOM     19  H3* UNL     1     -37.104 -63.009  44.279  0.00  0.00    +0.000 HD
ENDBRANCH   3  18
BRANCH   4  20
ATOM     20  C5* UNL     1     -36.156 -60.919  42.580  0.00  0.00    +0.000 C 
BRANCH  20  21
ATOM     21  O5* UNL     1     -36.977 -60.698  41.558  0.00  0.00    +0.000 OA
ATOM     22  H5* UNL     1     -37.138 -61.528  41.075  0.00  0.00    +0.000 HD
ENDBRANCH  20  21
ENDBRANCH   4  20
TORSDOF 5
ENDMDL
MODEL 7
REMARK VINA RESULT:      -4.9      7.412     10.144
REMARK  Name = 5azacytidine.pdbqt.pdb
REMARK  5 active torsions:
REMARK  status: ('A' for Active; 'I' for Inactive)
REMARK    1  A    between atoms: C2*_2  and  O2*_16
REMARK    2  A    between atoms: C3*_3  and  O3*_21
REMARK    3  A    between atoms: C4*_4  and  C5*_18
REMARK    4  A    between atoms: C1*_5  and  N_6
REMARK    5  A    between atoms: C5*_18  and  O5*_19
REMARK                            x       y       z     vdW  Elec       q    Type
REMARK                         _______ _______ _______ _____ _____    ______ ____
ROOT
ATOM      1  O4* UNL     1     -38.261 -42.305  50.273  0.00  0.00    +0.000 OA
ATOM      2  C2* UNL     1     -37.318 -43.979  48.997  0.00  0.00    +0.000 A 
ATOM      3  C3* UNL     1     -38.501 -43.519  48.335  0.00  0.00    +0.000 A 
ATOM      4  C4* UNL     1     -39.069 -42.472  49.135  0.00  0.00    +0.000 A 
ATOM      5  C1* UNL     1     -37.192 -43.226  50.221  0.00  0.00    +0.000 A 
ENDROOT
BRANCH   5   6
ATOM      6  N   UNL     1     -36.291 -43.320  51.238  0.00  0.00    +0.000 N 
ATOM      7  C   UNL     1     -35.927 -44.463  51.940  0.00  0.00    +0.000 A 
ATOM      8  O   UNL     1     -36.421 -45.570  51.738  0.00  0.00    +0.000 OA
ATOM      9  N   UNL     1     -34.958 -44.268  52.921  0.00  0.00    +0.000 NA
ATOM     10  C   UNL     1     -34.458 -43.077  53.135  0.00  0.00    +0.000 A 
ATOM     11  N   UNL     1     -34.847 -41.937  52.453  0.00  0.00    +0.000 NA
ATOM     12  C   UNL     1     -35.646 -42.233  51.657  0.00  0.00    +0.000 A 
ATOM     13  N   UNL     1     -33.514 -42.936  54.099  0.00  0.00    +0.000 N 
ATOM     14  H   UNL     1     -33.460 -42.010  54.500  0.00  0.00    +0.000 HD
ATOM     15  H   UNL     1     -33.506 -43.694  54.772  0.00  0.00    +0.000 HD
ENDBRANCH   5   6
BRANCH   2  16
ATOM     16  O2* UNL     1     -36.904 -45.271  48.823  0.00  0.00    +0.000 OA
ATOM     17  H2* UNL     1     -37.660 -45.896  48.778  0.00  0.00    +0.000 HD
ENDBRANCH   2  16
BRANCH   3  18
ATOM     18  O3* UNL     1     -39.271 -44.370  47.592  0.00  0.00    +0.000 OA
ATOM     19  H3* UNL     1     -38.836 -44.548  46.737  0.00  0.00    +0.000 HD
ENDBRANCH   3  18
BRANCH   4  20
ATOM     20  C5* UNL     1     -40.358 -41.915  49.035  0.00  0.00    +0.000 C 
BRANCH  20  21
ATOM     21  O5* UNL     1     -41.579 -41.398  48.941  0.00  0.00    +0.000 OA
ATOM     22  H5* UNL     1     -42.135 -41.960  48.373  0.00  0.00    +0.000 HD
ENDBRANCH  20  21
ENDBRANCH   4  20
TORSDOF 5
ENDMDL
MODEL 8
REMARK VINA RESULT:      -4.7     37.660     38.932
REMARK  Name = 5azacytidine.pdbqt.pdb
REMARK  5 active torsions:
REMARK  status: ('A' for Active; 'I' for Inactive)
REMARK    1  A    between atoms: C2*_2  and  O2*_16
REMARK    2  A    between atoms: C3*_3  and  O3*_21
REMARK    3  A    between atoms: C4*_4  and  C5*_18
REMARK    4  A    between atoms: C1*_5  and  N_6
REMARK    5  A    between atoms: C5*_18  and  O5*_19
REMARK                            x       y       z     vdW  Elec       q    Type
REMARK                         _______ _______ _______ _____ _____    ______ ____
ROOT
ATOM      1  O4* UNL     1     -56.585 -46.985  21.694  0.00  0.00    +0.000 OA
ATOM      2  C2* UNL     1     -55.429 -47.873  19.907  0.00  0.00    +0.000 A 
ATOM      3  C3* UNL     1     -56.758 -47.561  19.475  0.00  0.00    +0.000 A 
ATOM      4  C4* UNL     1     -57.459 -47.000  20.594  0.00  0.00    +0.000 A 
ATOM      5  C1* UNL     1     -55.342 -47.529  21.305  0.00  0.00    +0.000 A 
ENDROOT
BRANCH   5   6
ATOM      6  N   UNL     1     -54.329 -47.690  22.203  0.00  0.00    +0.000 N 
ATOM      7  C   UNL     1     -53.603 -48.848  22.456  0.00  0.00    +0.000 A 
ATOM      8  O   UNL     1     -53.820 -49.921  21.898  0.00  0.00    +0.000 OA
ATOM      9  N   UNL     1     -52.605 -48.718  23.418  0.00  0.00    +0.000 NA
ATOM     10  C   UNL     1     -52.403 -47.571  24.017  0.00  0.00    +0.000 A 
ATOM     11  N   UNL     1     -53.149 -46.429  23.781  0.00  0.00    +0.000 NA
ATOM     12  C   UNL     1     -53.936 -46.664  22.954  0.00  0.00    +0.000 A 
ATOM     13  N   UNL     1     -51.415 -47.491  24.944  0.00  0.00    +0.000 N 
ATOM     14  H   UNL     1     -51.551 -46.769  25.639  0.00  0.00    +0.000 HD
ATOM     15  H   UNL     1     -51.133 -48.391  25.314  0.00  0.00    +0.000 HD
ENDBRANCH   5   6
BRANCH   2  16
ATOM     16  O2* UNL     1     -54.742 -48.891  19.304  0.00  0.00    +0.000 OA
ATOM     17  H2* UNL     1     -53.770 -48.764  19.364  0.00  0.00    +0.000 HD
ENDBRANCH   2  16
BRANCH   3  18
ATOM     18  O3* UNL     1     -57.385 -48.313  18.521  0.00  0.00    +0.000 OA
ATOM     19  H3* UNL     1     -56.841 -48.342  17.712  0.00  0.00    +0.000 HD
ENDBRANCH   3  18
BRANCH   4  20
ATOM     20  C5* UNL     1     -58.846 -46.801  20.728  0.00  0.00    +0.000 C 
BRANCH  20  21
ATOM     21  O5* UNL     1     -60.158 -46.620  20.849  0.00  0.00    +0.000 OA
ATOM     22  H5* UNL     1     -60.586 -47.454  21.113  0.00  0.00    +0.000 HD
ENDBRANCH  20  21
ENDBRANCH   4  20
TORSDOF 5
ENDMDL
MODEL 9
REMARK VINA RESULT:      -4.7      4.152      5.640
REMARK  Name = 5azacytidine.pdbqt.pdb
REMARK  5 active torsions:
REMARK  status: ('A' for Active; 'I' for Inactive)
REMARK    1  A    between atoms: C2*_2  and  O2*_16
REMARK    2  A    between atoms: C3*_3  and  O3*_21
REMARK    3  A    between atoms: C4*_4  and  C5*_18
REMARK    4  A    between atoms: C1*_5  and  N_6
REMARK    5  A    between atoms: C5*_18  and  O5*_19
REMARK                            x       y       z     vdW  Elec       q    Type
REMARK                         _______ _______ _______ _____ _____    ______ ____
ROOT
ATOM      1  O4* UNL     1     -29.714 -54.355  56.699  0.00  0.00    +0.000 OA
ATOM      2  C2* UNL     1     -29.868 -52.227  57.577  0.00  0.00    +0.000 A 
ATOM      3  C3* UNL     1     -29.170 -53.053  58.514  0.00  0.00    +0.000 A 
ATOM      4  C4* UNL     1     -29.074 -54.369  57.950  0.00  0.00    +0.000 A 
ATOM      5  C1* UNL     1     -30.223 -53.061  56.454  0.00  0.00    +0.000 A 
ENDROOT
BRANCH   5   6
ATOM      6  N   UNL     1     -30.949 -52.788  55.334  0.00  0.00    +0.000 N 
ATOM      7  C   UNL     1     -32.296 -52.453  55.262  0.00  0.00    +0.000 A 
ATOM      8  O   UNL     1     -33.034 -52.392  56.243  0.00  0.00    +0.000 OA
ATOM      9  N   UNL     1     -32.773 -52.203  53.978  0.00  0.00    +0.000 NA
ATOM     10  C   UNL     1     -31.976 -52.293  52.943  0.00  0.00    +0.000 A 
ATOM     11  N   UNL     1     -30.643 -52.656  53.018  0.00  0.00    +0.000 NA
ATOM     12  C   UNL     1     -30.365 -52.824  54.138  0.00  0.00    +0.000 A 
ATOM     13  N   UNL     1     -32.485 -52.036  51.712  0.00  0.00    +0.000 N 
ATOM     14  H   UNL     1     -31.995 -52.491  50.953  0.00  0.00    +0.000 HD
ATOM     15  H   UNL     1     -33.495 -52.104  51.668  0.00  0.00    +0.000 HD
ENDBRANCH   5   6
BRANCH   2  16
ATOM     16  O2* UNL     1     -30.596 -51.160  58.025  0.00  0.00    +0.000 OA
ATOM     17  H2* UNL     1     -31.243 -51.422  58.716  0.00  0.00    +0.000 HD
ENDBRANCH   2  16
BRANCH   3  18
ATOM     18  O3* UNL     1     -29.281 -52.842  59.861  0.00  0.00    +0.000 OA
ATOM     19  H3* UNL     1     -30.157 -52.464  60.065  0.00  0.00    +0.000 HD
ENDBRANCH   3  18
BRANCH   4  20
ATOM     20  C5* UNL     1     -28.723 -55.564  58.606  0.00  0.00    +0.000 C 
BRANCH  20  21
ATOM     21  O5* UNL     1     -28.402 -56.696  59.226  0.00  0.00    +0.000 OA
ATOM     22  H5* UNL     1     -28.953 -57.425  58.893  0.00  0.00    +0.000 HD
ENDBRANCH  20  21
ENDBRANCH   4  20
TORSDOF 5
ENDMDL
