MODEL 1
REMARK VINA RESULT:      -8.1      0.000      0.000
REMARK  Name = 60953_Capecitabine.pdbqt.pdb
REMARK  6 active torsions:
REMARK  status: ('A' for Active; 'I' for Inactive)
REMARK    1  A    between atoms: N_4  and  C_16
REMARK    2  A    between atoms: C_11  and  O_23
REMARK    3  A    between atoms: C_14  and  O_19
REMARK    4  A    between atoms: C_15  and  O_21
REMARK    5  A    between atoms: O_23  and  C_24
REMARK    6  A    between atoms: C_25  and  C_26
REMARK                            x       y       z     vdW  Elec       q    Type
REMARK                         _______ _______ _______ _____ _____    ______ ____
ROOT
ATOM      1  F   UNL     1     -31.972 -46.769  51.584  0.00  0.00    +0.000 F 
ATOM      2  O   UNL     1     -35.540 -50.352  53.353  0.00  0.00    +0.000 OA
ATOM      3  O   UNL     1     -36.831 -45.966  52.380  0.00  0.00    +0.000 OA
ATOM      4  N   UNL     1     -33.316 -49.814  52.949  0.00  0.00    +0.000 N 
ATOM      5  N   UNL     1     -35.072 -48.188  52.772  0.00  0.00    +0.000 NA
ATOM      6  N   UNL     1     -34.519 -45.992  52.123  0.00  0.00    +0.000 N 
ATOM      7  C   UNL     1     -32.496 -48.798  52.615  0.00  0.00    +0.000 C 
ATOM      8  C   UNL     1     -34.698 -49.509  53.052  0.00  0.00    +0.000 C 
ATOM      9  C   UNL     1     -32.714 -47.551  52.388  0.00  0.00    +0.000 C 
ATOM     10  C   UNL     1     -34.187 -47.290  52.450  0.00  0.00    +0.000 C 
ATOM     11  C   UNL     1     -35.775 -45.428  52.086  0.00  0.00    +0.000 C 
ATOM     12  H   UNL     1     -33.778 -45.361  51.850  0.00  0.00    +0.000 HD
ENDROOT
BRANCH   4  16
ATOM     13  O   UNL     1     -32.008 -51.700  52.179  0.00  0.00    +0.000 OA
ATOM     14  C   UNL     1     -32.797 -51.910  54.336  0.00  0.00    +0.000 A 
ATOM     15  C   UNL     1     -32.100 -53.112  53.992  0.00  0.00    +0.000 A 
ATOM     16  C   UNL     1     -32.755 -51.043  53.182  0.00  0.00    +0.000 A 
ATOM     17  C   UNL     1     -31.605 -52.959  52.651  0.00  0.00    +0.000 A 
ATOM     18  C   UNL     1     -31.035 -53.955  51.702  0.00  0.00    +0.000 C 
BRANCH  14  19
ATOM     19  O   UNL     1     -33.812 -51.959  55.249  0.00  0.00    +0.000 OA
ATOM     20  H   UNL     1     -34.429 -51.199  55.159  0.00  0.00    +0.000 HD
ENDBRANCH  14  19
BRANCH  15  21
ATOM     21  O   UNL     1     -32.461 -54.318  54.535  0.00  0.00    +0.000 OA
ATOM     22  H   UNL     1     -33.355 -54.573  54.235  0.00  0.00    +0.000 HD
ENDBRANCH  15  21
ENDBRANCH   4  16
BRANCH  11  23
ATOM     23  O   UNL     1     -35.653 -44.131  51.670  0.00  0.00    +0.000 OA
BRANCH  23  24
ATOM     24  C   UNL     1     -36.671 -43.655  50.956  0.00  0.00    +0.000 C 
ATOM     25  C   UNL     1     -37.844 -43.106  50.137  0.00  0.00    +0.000 C 
BRANCH  25  26
ATOM     26  C   UNL     1     -39.017 -42.558  49.319  0.00  0.00    +0.000 C 
ATOM     27  C   UNL     1     -40.190 -42.016  48.498  0.00  0.00    +0.000 C 
ATOM     28  C   UNL     1     -41.368 -41.486  47.672  0.00  0.00    +0.000 C 
ENDBRANCH  25  26
ENDBRANCH  23  24
ENDBRANCH  11  23
TORSDOF 6
ENDMDL
MODEL 2
REMARK VINA RESULT:      -7.9     31.993     33.878
REMARK  Name = 60953_Capecitabine.pdbqt.pdb
REMARK  6 active torsions:
REMARK  status: ('A' for Active; 'I' for Inactive)
REMARK    1  A    between atoms: N_4  and  C_16
REMARK    2  A    between atoms: C_11  and  O_23
REMARK    3  A    between atoms: C_14  and  O_19
REMARK    4  A    between atoms: C_15  and  O_21
REMARK    5  A    between atoms: O_23  and  C_24
REMARK    6  A    between atoms: C_25  and  C_26
REMARK                            x       y       z     vdW  Elec       q    Type
REMARK                         _______ _______ _______ _____ _____    ______ ____
ROOT
ATOM      1  F   UNL     1     -61.780 -64.440  38.601  0.00  0.00    +0.000 F 
ATOM      2  O   UNL     1     -60.945 -64.309  43.891  0.00  0.00    +0.000 OA
ATOM      3  O   UNL     1     -64.111 -67.206  42.038  0.00  0.00    +0.000 OA
ATOM      4  N   UNL     1     -60.556 -63.359  41.807  0.00  0.00    +0.000 N 
ATOM      5  N   UNL     1     -62.165 -65.110  42.128  0.00  0.00    +0.000 NA
ATOM      6  N   UNL     1     -63.348 -65.917  40.257  0.00  0.00    +0.000 N 
ATOM      7  C   UNL     1     -60.939 -63.399  40.515  0.00  0.00    +0.000 C 
ATOM      8  C   UNL     1     -61.207 -64.257  42.692  0.00  0.00    +0.000 C 
ATOM      9  C   UNL     1     -61.830 -64.094  39.899  0.00  0.00    +0.000 C 
ATOM     10  C   UNL     1     -62.446 -65.064  40.859  0.00  0.00    +0.000 C 
ATOM     11  C   UNL     1     -64.086 -66.917  40.851  0.00  0.00    +0.000 C 
ATOM     12  H   UNL     1     -63.488 -65.842  39.259  0.00  0.00    +0.000 HD
ENDROOT
BRANCH   4  16
ATOM     13  O   UNL     1     -58.397 -62.333  41.424  0.00  0.00    +0.000 OA
ATOM     14  C   UNL     1     -59.524 -61.515  43.263  0.00  0.00    +0.000 A 
ATOM     15  C   UNL     1     -58.248 -60.871  43.194  0.00  0.00    +0.000 A 
ATOM     16  C   UNL     1     -59.595 -62.450  42.164  0.00  0.00    +0.000 A 
ATOM     17  C   UNL     1     -57.566 -61.383  42.037  0.00  0.00    +0.000 A 
ATOM     18  C   UNL     1     -56.143 -61.264  41.612  0.00  0.00    +0.000 C 
BRANCH  14  19
ATOM     19  O   UNL     1     -60.129 -61.679  44.477  0.00  0.00    +0.000 OA
ATOM     20  H   UNL     1     -59.696 -62.378  45.016  0.00  0.00    +0.000 HD
ENDBRANCH  14  19
BRANCH  15  21
ATOM     21  O   UNL     1     -57.606 -60.451  44.329  0.00  0.00    +0.000 OA
ATOM     22  H   UNL     1     -57.887 -59.546  44.564  0.00  0.00    +0.000 HD
ENDBRANCH  15  21
ENDBRANCH   4  16
BRANCH  11  23
ATOM     23  O   UNL     1     -64.818 -67.546  39.883  0.00  0.00    +0.000 OA
BRANCH  23  24
ATOM     24  C   UNL     1     -64.668 -67.076  38.647  0.00  0.00    +0.000 C 
ATOM     25  C   UNL     1     -64.495 -66.533  37.224  0.00  0.00    +0.000 C 
BRANCH  25  26
ATOM     26  C   UNL     1     -64.322 -65.989  35.803  0.00  0.00    +0.000 C 
ATOM     27  C   UNL     1     -64.154 -65.449  34.380  0.00  0.00    +0.000 C 
ATOM     28  C   UNL     1     -63.998 -64.915  32.952  0.00  0.00    +0.000 C 
ENDBRANCH  25  26
ENDBRANCH  23  24
ENDBRANCH  11  23
TORSDOF 6
ENDMDL
MODEL 3
REMARK VINA RESULT:      -7.5      2.658      4.184
REMARK  Name = 60953_Capecitabine.pdbqt.pdb
REMARK  6 active torsions:
REMARK  status: ('A' for Active; 'I' for Inactive)
REMARK    1  A    between atoms: N_4  and  C_16
REMARK    2  A    between atoms: C_11  and  O_23
REMARK    3  A    between atoms: C_14  and  O_19
REMARK    4  A    between atoms: C_15  and  O_21
REMARK    5  A    between atoms: O_23  and  C_24
REMARK    6  A    between atoms: C_25  and  C_26
REMARK                            x       y       z     vdW  Elec       q    Type
REMARK                         _______ _______ _______ _____ _____    ______ ____
ROOT
ATOM      1  F   UNL     1     -31.646 -46.890  52.236  0.00  0.00    +0.000 F 
ATOM      2  O   UNL     1     -35.459 -50.513  53.249  0.00  0.00    +0.000 OA
ATOM      3  O   UNL     1     -36.563 -46.055  52.377  0.00  0.00    +0.000 OA
ATOM      4  N   UNL     1     -33.197 -49.989  53.201  0.00  0.00    +0.000 N 
ATOM      5  N   UNL     1     -34.896 -48.326  52.877  0.00  0.00    +0.000 NA
ATOM      6  N   UNL     1     -34.238 -46.104  52.453  0.00  0.00    +0.000 N 
ATOM      7  C   UNL     1     -32.329 -48.968  53.052  0.00  0.00    +0.000 C 
ATOM      8  C   UNL     1     -34.577 -49.668  53.124  0.00  0.00    +0.000 C 
ATOM      9  C   UNL     1     -32.502 -47.706  52.875  0.00  0.00    +0.000 C 
ATOM     10  C   UNL     1     -33.967 -47.425  52.742  0.00  0.00    +0.000 C 
ATOM     11  C   UNL     1     -35.471 -45.518  52.271  0.00  0.00    +0.000 C 
ATOM     12  H   UNL     1     -33.461 -45.470  52.328  0.00  0.00    +0.000 HD
ENDROOT
BRANCH   4  16
ATOM     13  O   UNL     1     -31.948 -51.917  52.439  0.00  0.00    +0.000 OA
ATOM     14  C   UNL     1     -32.774 -52.110  54.584  0.00  0.00    +0.000 A 
ATOM     15  C   UNL     1     -32.118 -53.335  54.242  0.00  0.00    +0.000 A 
ATOM     16  C   UNL     1     -32.684 -51.238  53.435  0.00  0.00    +0.000 A 
ATOM     17  C   UNL     1     -31.599 -53.193  52.909  0.00  0.00    +0.000 A 
ATOM     18  C   UNL     1     -31.053 -54.205  51.962  0.00  0.00    +0.000 C 
BRANCH  14  19
ATOM     19  O   UNL     1     -33.803 -52.126  55.482  0.00  0.00    +0.000 OA
ATOM     20  H   UNL     1     -34.304 -51.280  55.488  0.00  0.00    +0.000 HD
ENDBRANCH  14  19
BRANCH  15  21
ATOM     21  O   UNL     1     -32.530 -54.529  54.773  0.00  0.00    +0.000 OA
ATOM     22  H   UNL     1     -31.872 -55.227  54.593  0.00  0.00    +0.000 HD
ENDBRANCH  15  21
ENDBRANCH   4  16
BRANCH  11  23
ATOM     23  O   UNL     1     -35.281 -44.201  51.959  0.00  0.00    +0.000 OA
BRANCH  23  24
ATOM     24  C   UNL     1     -34.359 -43.562  52.677  0.00  0.00    +0.000 C 
ATOM     25  C   UNL     1     -33.297 -42.829  53.502  0.00  0.00    +0.000 C 
BRANCH  25  26
ATOM     26  C   UNL     1     -32.233 -42.097  54.326  0.00  0.00    +0.000 C 
ATOM     27  C   UNL     1     -31.167 -41.372  55.152  0.00  0.00    +0.000 C 
ATOM     28  C   UNL     1     -30.093 -40.657  55.979  0.00  0.00    +0.000 C 
ENDBRANCH  25  26
ENDBRANCH  23  24
ENDBRANCH  11  23
TORSDOF 6
ENDMDL
MODEL 4
REMARK VINA RESULT:      -7.0     33.571     35.415
REMARK  Name = 60953_Capecitabine.pdbqt.pdb
REMARK  6 active torsions:
REMARK  status: ('A' for Active; 'I' for Inactive)
REMARK    1  A    between atoms: N_4  and  C_16
REMARK    2  A    between atoms: C_11  and  O_23
REMARK    3  A    between atoms: C_14  and  O_19
REMARK    4  A    between atoms: C_15  and  O_21
REMARK    5  A    between atoms: O_23  and  C_24
REMARK    6  A    between atoms: C_25  and  C_26
REMARK                            x       y       z     vdW  Elec       q    Type
REMARK                         _______ _______ _______ _____ _____    ______ ____
ROOT
ATOM      1  F   UNL     1     -62.090 -65.212  38.356  0.00  0.00    +0.000 F 
ATOM      2  O   UNL     1     -61.483 -64.626  43.646  0.00  0.00    +0.000 OA
ATOM      3  O   UNL     1     -64.388 -67.853  41.912  0.00  0.00    +0.000 OA
ATOM      4  N   UNL     1     -61.068 -63.815  41.509  0.00  0.00    +0.000 N 
ATOM      5  N   UNL     1     -62.578 -65.636  41.907  0.00  0.00    +0.000 NA
ATOM      6  N   UNL     1     -63.633 -66.656  40.064  0.00  0.00    +0.000 N 
ATOM      7  C   UNL     1     -61.394 -63.977  40.211  0.00  0.00    +0.000 C 
ATOM      8  C   UNL     1     -61.699 -64.683  42.437  0.00  0.00    +0.000 C 
ATOM      9  C   UNL     1     -62.215 -64.772  39.619  0.00  0.00    +0.000 C 
ATOM     10  C   UNL     1     -62.810 -65.704  40.630  0.00  0.00    +0.000 C 
ATOM     11  C   UNL     1     -64.331 -67.654  40.707  0.00  0.00    +0.000 C 
ATOM     12  H   UNL     1     -63.736 -66.667  39.059  0.00  0.00    +0.000 HD
ENDROOT
BRANCH   4  16
ATOM     13  O   UNL     1     -58.939 -62.716  41.160  0.00  0.00    +0.000 OA
ATOM     14  C   UNL     1     -60.231 -61.775  42.823  0.00  0.00    +0.000 A 
ATOM     15  C   UNL     1     -58.986 -61.072  42.768  0.00  0.00    +0.000 A 
ATOM     16  C   UNL     1     -60.180 -62.821  41.828  0.00  0.00    +0.000 A 
ATOM     17  C   UNL     1     -58.200 -61.662  41.720  0.00  0.00    +0.000 A 
ATOM     18  C   UNL     1     -56.758 -61.510  41.378  0.00  0.00    +0.000 C 
BRANCH  14  19
ATOM     19  O   UNL     1     -60.912 -61.845  44.005  0.00  0.00    +0.000 OA
ATOM     20  H   UNL     1     -61.873 -62.009  43.871  0.00  0.00    +0.000 HD
ENDBRANCH  14  19
BRANCH  15  21
ATOM     21  O   UNL     1     -58.448 -60.500  43.891  0.00  0.00    +0.000 OA
ATOM     22  H   UNL     1     -59.138 -60.038  44.403  0.00  0.00    +0.000 HD
ENDBRANCH  15  21
ENDBRANCH   4  16
BRANCH  11  23
ATOM     23  O   UNL     1     -64.984 -68.400  39.766  0.00  0.00    +0.000 OA
BRANCH  23  24
ATOM     24  C   UNL     1     -66.215 -68.791  40.088  0.00  0.00    +0.000 C 
ATOM     25  C   UNL     1     -67.632 -69.242  40.457  0.00  0.00    +0.000 C 
BRANCH  25  26
ATOM     26  C   UNL     1     -69.049 -69.692  40.823  0.00  0.00    +0.000 C 
ATOM     27  C   UNL     1     -70.469 -70.135  41.188  0.00  0.00    +0.000 C 
ATOM     28  C   UNL     1     -71.894 -70.569  41.547  0.00  0.00    +0.000 C 
ENDBRANCH  25  26
ENDBRANCH  23  24
ENDBRANCH  11  23
TORSDOF 6
ENDMDL
MODEL 5
REMARK VINA RESULT:      -7.0      3.282      9.434
REMARK  Name = 60953_Capecitabine.pdbqt.pdb
REMARK  6 active torsions:
REMARK  status: ('A' for Active; 'I' for Inactive)
REMARK    1  A    between atoms: N_4  and  C_16
REMARK    2  A    between atoms: C_11  and  O_23
REMARK    3  A    between atoms: C_14  and  O_19
REMARK    4  A    between atoms: C_15  and  O_21
REMARK    5  A    between atoms: O_23  and  C_24
REMARK    6  A    between atoms: C_25  and  C_26
REMARK                            x       y       z     vdW  Elec       q    Type
REMARK                         _______ _______ _______ _____ _____    ______ ____
ROOT
ATOM      1  F   UNL     1     -30.891 -48.261  53.582  0.00  0.00    +0.000 F 
ATOM      2  O   UNL     1     -35.810 -46.424  52.520  0.00  0.00    +0.000 OA
ATOM      3  O   UNL     1     -35.013 -51.007  52.981  0.00  0.00    +0.000 OA
ATOM      4  N   UNL     1     -33.537 -45.983  52.715  0.00  0.00    +0.000 N 
ATOM      5  N   UNL     1     -34.411 -48.217  52.781  0.00  0.00    +0.000 NA
ATOM      6  N   UNL     1     -32.914 -50.009  53.100  0.00  0.00    +0.000 N 
ATOM      7  C   UNL     1     -32.333 -46.571  52.862  0.00  0.00    +0.000 C 
ATOM      8  C   UNL     1     -34.663 -46.844  52.656  0.00  0.00    +0.000 C 
ATOM      9  C   UNL     1     -31.978 -47.806  52.935  0.00  0.00    +0.000 C 
ATOM     10  C   UNL     1     -33.201 -48.670  52.928  0.00  0.00    +0.000 C 
ATOM     11  C   UNL     1     -33.802 -51.061  53.138  0.00  0.00    +0.000 C 
ATOM     12  H   UNL     1     -31.951 -50.280  53.242  0.00  0.00    +0.000 HD
ENDROOT
BRANCH   4  16
ATOM     13  O   UNL     1     -33.286 -43.973  51.389  0.00  0.00    +0.000 OA
ATOM     14  C   UNL     1     -33.845 -43.592  53.594  0.00  0.00    +0.000 A 
ATOM     15  C   UNL     1     -33.667 -42.326  52.949  0.00  0.00    +0.000 A 
ATOM     16  C   UNL     1     -33.576 -44.617  52.613  0.00  0.00    +0.000 A 
ATOM     17  C   UNL     1     -33.332 -42.583  51.575  0.00  0.00    +0.000 A 
ATOM     18  C   UNL     1     -32.806 -41.679  50.514  0.00  0.00    +0.000 C 
BRANCH  14  19
ATOM     19  O   UNL     1     -33.606 -43.702  54.935  0.00  0.00    +0.000 OA
ATOM     20  H   UNL     1     -34.425 -43.590  55.468  0.00  0.00    +0.000 HD
ENDBRANCH  14  19
BRANCH  15  21
ATOM     21  O   UNL     1     -33.224 -41.234  53.647  0.00  0.00    +0.000 OA
ATOM     22  H   UNL     1     -32.673 -40.665  53.076  0.00  0.00    +0.000 HD
ENDBRANCH  15  21
ENDBRANCH   4  16
BRANCH  11  23
ATOM     23  O   UNL     1     -33.100 -52.210  53.371  0.00  0.00    +0.000 OA
BRANCH  23  24
ATOM     24  C   UNL     1     -32.419 -52.251  54.515  0.00  0.00    +0.000 C 
ATOM     25  C   UNL     1     -31.635 -52.300  55.830  0.00  0.00    +0.000 C 
BRANCH  25  26
ATOM     26  C   UNL     1     -30.850 -52.351  57.144  0.00  0.00    +0.000 C 
ATOM     27  C   UNL     1     -30.061 -52.406  58.455  0.00  0.00    +0.000 C 
ATOM     28  C   UNL     1     -29.260 -52.462  59.760  0.00  0.00    +0.000 C 
ENDBRANCH  25  26
ENDBRANCH  23  24
ENDBRANCH  11  23
TORSDOF 6
ENDMDL
MODEL 6
REMARK VINA RESULT:      -6.9      3.351      9.537
REMARK  Name = 60953_Capecitabine.pdbqt.pdb
REMARK  6 active torsions:
REMARK  status: ('A' for Active; 'I' for Inactive)
REMARK    1  A    between atoms: N_4  and  C_16
REMARK    2  A    between atoms: C_11  and  O_23
REMARK    3  A    between atoms: C_14  and  O_19
REMARK    4  A    between atoms: C_15  and  O_21
REMARK    5  A    between atoms: O_23  and  C_24
REMARK    6  A    between atoms: C_25  and  C_26
REMARK                            x       y       z     vdW  Elec       q    Type
REMARK                         _______ _______ _______ _____ _____    ______ ____
ROOT
ATOM      1  F   UNL     1     -30.270 -49.095  53.651  0.00  0.00    +0.000 F 
ATOM      2  O   UNL     1     -35.548 -49.899  53.209  0.00  0.00    +0.000 OA
ATOM      3  O   UNL     1     -32.774 -53.171  55.069  0.00  0.00    +0.000 OA
ATOM      4  N   UNL     1     -33.699 -48.593  52.687  0.00  0.00    +0.000 N 
ATOM      5  N   UNL     1     -33.485 -50.733  53.750  0.00  0.00    +0.000 NA
ATOM      6  N   UNL     1     -31.333 -51.504  54.320  0.00  0.00    +0.000 N 
ATOM      7  C   UNL     1     -32.352 -48.558  52.742  0.00  0.00    +0.000 C 
ATOM      8  C   UNL     1     -34.327 -49.753  53.209  0.00  0.00    +0.000 C 
ATOM      9  C   UNL     1     -31.483 -49.407  53.164  0.00  0.00    +0.000 C 
ATOM     10  C   UNL     1     -32.193 -50.585  53.756  0.00  0.00    +0.000 C 
ATOM     11  C   UNL     1     -31.658 -52.690  54.941  0.00  0.00    +0.000 C 
ATOM     12  H   UNL     1     -30.343 -51.302  54.316  0.00  0.00    +0.000 HD
ENDROOT
BRANCH   4  16
ATOM     13  O   UNL     1     -35.450 -46.923  52.759  0.00  0.00    +0.000 OA
ATOM     14  C   UNL     1     -34.141 -46.844  50.862  0.00  0.00    +0.000 A 
ATOM     15  C   UNL     1     -35.166 -45.852  50.743  0.00  0.00    +0.000 A 
ATOM     16  C   UNL     1     -34.346 -47.527  52.118  0.00  0.00    +0.000 A 
ATOM     17  C   UNL     1     -35.963 -45.907  51.938  0.00  0.00    +0.000 A 
ATOM     18  C   UNL     1     -37.283 -45.295  52.258  0.00  0.00    +0.000 C 
BRANCH  14  19
ATOM     19  O   UNL     1     -33.619 -47.409  49.733  0.00  0.00    +0.000 OA
ATOM     20  H   UNL     1     -33.500 -48.380  49.825  0.00  0.00    +0.000 HD
ENDBRANCH  14  19
BRANCH  15  21
ATOM     21  O   UNL     1     -35.658 -45.488  49.517  0.00  0.00    +0.000 OA
ATOM     22  H   UNL     1     -34.980 -45.007  49.006  0.00  0.00    +0.000 HD
ENDBRANCH  15  21
ENDBRANCH   4  16
BRANCH  11  23
ATOM     23  O   UNL     1     -30.506 -53.270  55.394  0.00  0.00    +0.000 OA
BRANCH  23  24
ATOM     24  C   UNL     1     -29.751 -52.515  56.188  0.00  0.00    +0.000 C 
ATOM     25  C   UNL     1     -28.880 -51.644  57.101  0.00  0.00    +0.000 C 
BRANCH  25  26
ATOM     26  C   UNL     1     -28.009 -50.775  58.011  0.00  0.00    +0.000 C 
ATOM     27  C   UNL     1     -27.139 -49.899  58.918  0.00  0.00    +0.000 C 
ATOM     28  C   UNL     1     -26.277 -49.013  59.823  0.00  0.00    +0.000 C 
ENDBRANCH  25  26
ENDBRANCH  23  24
ENDBRANCH  11  23
TORSDOF 6
ENDMDL
MODEL 7
REMARK VINA RESULT:      -6.8     36.316     38.167
REMARK  Name = 60953_Capecitabine.pdbqt.pdb
REMARK  6 active torsions:
REMARK  status: ('A' for Active; 'I' for Inactive)
REMARK    1  A    between atoms: N_4  and  C_16
REMARK    2  A    between atoms: C_11  and  O_23
REMARK    3  A    between atoms: C_14  and  O_19
REMARK    4  A    between atoms: C_15  and  O_21
REMARK    5  A    between atoms: O_23  and  C_24
REMARK    6  A    between atoms: C_25  and  C_26
REMARK                            x       y       z     vdW  Elec       q    Type
REMARK                         _______ _______ _______ _____ _____    ______ ____
ROOT
ATOM      1  F   UNL     1     -64.895 -68.630  38.838  0.00  0.00    +0.000 F 
ATOM      2  O   UNL     1     -63.302 -65.746  43.063  0.00  0.00    +0.000 OA
ATOM      3  O   UNL     1     -66.284 -69.309  43.582  0.00  0.00    +0.000 OA
ATOM      4  N   UNL     1     -63.364 -65.998  40.754  0.00  0.00    +0.000 N 
ATOM      5  N   UNL     1     -64.652 -67.393  42.221  0.00  0.00    +0.000 NA
ATOM      6  N   UNL     1     -65.981 -69.098  41.284  0.00  0.00    +0.000 N 
ATOM      7  C   UNL     1     -63.927 -66.716  39.762  0.00  0.00    +0.000 C 
ATOM      8  C   UNL     1     -63.746 -66.333  42.079  0.00  0.00    +0.000 C 
ATOM      9  C   UNL     1     -64.797 -67.664  39.768  0.00  0.00    +0.000 C 
ATOM     10  C   UNL     1     -65.124 -68.021  41.185  0.00  0.00    +0.000 C 
ATOM     11  C   UNL     1     -66.477 -69.675  42.432  0.00  0.00    +0.000 C 
ATOM     12  H   UNL     1     -66.277 -69.556  40.434  0.00  0.00    +0.000 HD
ENDROOT
BRANCH   4  16
ATOM     13  O   UNL     1     -61.127 -65.073  40.756  0.00  0.00    +0.000 OA
ATOM     14  C   UNL     1     -62.703 -63.741  39.726  0.00  0.00    +0.000 A 
ATOM     15  C   UNL     1     -61.450 -63.050  39.710  0.00  0.00    +0.000 A 
ATOM     16  C   UNL     1     -62.494 -64.997  40.408  0.00  0.00    +0.000 A 
ATOM     17  C   UNL     1     -60.478 -63.898  40.344  0.00  0.00    +0.000 A 
ATOM     18  C   UNL     1     -59.097 -63.611  40.823  0.00  0.00    +0.000 C 
BRANCH  14  19
ATOM     19  O   UNL     1     -63.866 -63.024  39.734  0.00  0.00    +0.000 OA
ATOM     20  H   UNL     1     -64.418 -63.221  40.523  0.00  0.00    +0.000 HD
ENDBRANCH  14  19
BRANCH  15  21
ATOM     21  O   UNL     1     -61.398 -61.681  39.742  0.00  0.00    +0.000 OA
ATOM     22  H   UNL     1     -61.489 -61.357  40.658  0.00  0.00    +0.000 HD
ENDBRANCH  15  21
ENDBRANCH   4  16
BRANCH  11  23
ATOM     23  O   UNL     1     -67.253 -70.743  42.078  0.00  0.00    +0.000 OA
BRANCH  23  24
ATOM     24  C   UNL     1     -68.365 -70.452  41.406  0.00  0.00    +0.000 C 
ATOM     25  C   UNL     1     -69.644 -70.115  40.632  0.00  0.00    +0.000 C 
BRANCH  25  26
ATOM     26  C   UNL     1     -70.923 -69.777  39.859  0.00  0.00    +0.000 C 
ATOM     27  C   UNL     1     -72.197 -69.434  39.082  0.00  0.00    +0.000 C 
ATOM     28  C   UNL     1     -73.465 -69.088  38.294  0.00  0.00    +0.000 C 
ENDBRANCH  25  26
ENDBRANCH  23  24
ENDBRANCH  11  23
TORSDOF 6
ENDMDL
MODEL 8
REMARK VINA RESULT:      -6.8     34.513     36.332
REMARK  Name = 60953_Capecitabine.pdbqt.pdb
REMARK  6 active torsions:
REMARK  status: ('A' for Active; 'I' for Inactive)
REMARK    1  A    between atoms: N_4  and  C_16
REMARK    2  A    between atoms: C_11  and  O_23
REMARK    3  A    between atoms: C_14  and  O_19
REMARK    4  A    between atoms: C_15  and  O_21
REMARK    5  A    between atoms: O_23  and  C_24
REMARK    6  A    between atoms: C_25  and  C_26
REMARK                            x       y       z     vdW  Elec       q    Type
REMARK                         _______ _______ _______ _____ _____    ______ ____
ROOT
ATOM      1  F   UNL     1     -63.154 -67.605  39.291  0.00  0.00    +0.000 F 
ATOM      2  O   UNL     1     -63.297 -63.719  42.976  0.00  0.00    +0.000 OA
ATOM      3  O   UNL     1     -66.942 -66.584  42.373  0.00  0.00    +0.000 OA
ATOM      4  N   UNL     1     -62.207 -64.684  41.165  0.00  0.00    +0.000 N 
ATOM      5  N   UNL     1     -64.393 -65.391  41.859  0.00  0.00    +0.000 NA
ATOM      6  N   UNL     1     -65.438 -67.149  40.690  0.00  0.00    +0.000 N 
ATOM      7  C   UNL     1     -62.337 -65.614  40.198  0.00  0.00    +0.000 C 
ATOM      8  C   UNL     1     -63.300 -64.537  42.058  0.00  0.00    +0.000 C 
ATOM      9  C   UNL     1     -63.300 -66.410  39.889  0.00  0.00    +0.000 C 
ATOM     10  C   UNL     1     -64.402 -66.260  40.892  0.00  0.00    +0.000 C 
ATOM     11  C   UNL     1     -66.595 -67.274  41.426  0.00  0.00    +0.000 C 
ATOM     12  H   UNL     1     -65.356 -67.819  39.938  0.00  0.00    +0.000 HD
ENDROOT
BRANCH   4  16
ATOM     13  O   UNL     1     -61.094 -62.539  41.316  0.00  0.00    +0.000 OA
ATOM     14  C   UNL     1     -59.666 -64.335  41.083  0.00  0.00    +0.000 A 
ATOM     15  C   UNL     1     -58.884 -63.137  41.096  0.00  0.00    +0.000 A 
ATOM     16  C   UNL     1     -61.053 -63.946  41.195  0.00  0.00    +0.000 A 
ATOM     17  C   UNL     1     -59.788 -62.030  41.255  0.00  0.00    +0.000 A 
ATOM     18  C   UNL     1     -59.574 -60.565  41.092  0.00  0.00    +0.000 C 
BRANCH  14  19
ATOM     19  O   UNL     1     -59.206 -65.430  40.408  0.00  0.00    +0.000 OA
ATOM     20  H   UNL     1     -59.838 -65.733  39.719  0.00  0.00    +0.000 HD
ENDBRANCH  14  19
BRANCH  15  21
ATOM     21  O   UNL     1     -57.700 -63.058  40.410  0.00  0.00    +0.000 OA
ATOM     22  H   UNL     1     -57.694 -62.273  39.830  0.00  0.00    +0.000 HD
ENDBRANCH  15  21
ENDBRANCH   4  16
BRANCH  11  23
ATOM     23  O   UNL     1     -67.326 -68.307  40.910  0.00  0.00    +0.000 OA
BRANCH  23  24
ATOM     24  C   UNL     1     -66.624 -69.352  40.477  0.00  0.00    +0.000 C 
ATOM     25  C   UNL     1     -65.818 -70.557  39.978  0.00  0.00    +0.000 C 
BRANCH  25  26
ATOM     26  C   UNL     1     -65.015 -71.762  39.480  0.00  0.00    +0.000 C 
ATOM     27  C   UNL     1     -64.211 -72.963  38.975  0.00  0.00    +0.000 C 
ATOM     28  C   UNL     1     -63.401 -74.158  38.461  0.00  0.00    +0.000 C 
ENDBRANCH  25  26
ENDBRANCH  23  24
ENDBRANCH  11  23
TORSDOF 6
ENDMDL
MODEL 9
REMARK VINA RESULT:      -6.8      2.703      9.876
REMARK  Name = 60953_Capecitabine.pdbqt.pdb
REMARK  6 active torsions:
REMARK  status: ('A' for Active; 'I' for Inactive)
REMARK    1  A    between atoms: N_4  and  C_16
REMARK    2  A    between atoms: C_11  and  O_23
REMARK    3  A    between atoms: C_14  and  O_19
REMARK    4  A    between atoms: C_15  and  O_21
REMARK    5  A    between atoms: O_23  and  C_24
REMARK    6  A    between atoms: C_25  and  C_26
REMARK                            x       y       z     vdW  Elec       q    Type
REMARK                         _______ _______ _______ _____ _____    ______ ____
ROOT
ATOM      1  F   UNL     1     -30.257 -49.023  53.554  0.00  0.00    +0.000 F 
ATOM      2  O   UNL     1     -35.543 -49.827  53.216  0.00  0.00    +0.000 OA
ATOM      3  O   UNL     1     -32.739 -53.083  55.056  0.00  0.00    +0.000 OA
ATOM      4  N   UNL     1     -33.704 -48.527  52.648  0.00  0.00    +0.000 N 
ATOM      5  N   UNL     1     -33.472 -50.657  53.727  0.00  0.00    +0.000 NA
ATOM      6  N   UNL     1     -31.310 -51.425  54.265  0.00  0.00    +0.000 N 
ATOM      7  C   UNL     1     -32.356 -48.493  52.678  0.00  0.00    +0.000 C 
ATOM      8  C   UNL     1     -34.323 -49.681  53.192  0.00  0.00    +0.000 C 
ATOM      9  C   UNL     1     -31.479 -49.339  53.091  0.00  0.00    +0.000 C 
ATOM     10  C   UNL     1     -32.180 -50.510  53.708  0.00  0.00    +0.000 C 
ATOM     11  C   UNL     1     -31.625 -52.604  54.903  0.00  0.00    +0.000 C 
ATOM     12  H   UNL     1     -30.321 -51.224  54.241  0.00  0.00    +0.000 HD
ENDROOT
BRANCH   4  16
ATOM     13  O   UNL     1     -35.481 -46.885  52.713  0.00  0.00    +0.000 OA
ATOM     14  C   UNL     1     -34.151 -46.769  50.832  0.00  0.00    +0.000 A 
ATOM     15  C   UNL     1     -35.189 -45.792  50.710  0.00  0.00    +0.000 A 
ATOM     16  C   UNL     1     -34.360 -47.466  52.080  0.00  0.00    +0.000 A 
ATOM     17  C   UNL     1     -35.999 -45.869  51.895  0.00  0.00    +0.000 A 
ATOM     18  C   UNL     1     -37.332 -45.280  52.205  0.00  0.00    +0.000 C 
BRANCH  14  19
ATOM     19  O   UNL     1     -33.607 -47.316  49.705  0.00  0.00    +0.000 OA
ATOM     20  H   UNL     1     -32.859 -46.782  49.357  0.00  0.00    +0.000 HD
ENDBRANCH  14  19
BRANCH  15  21
ATOM     21  O   UNL     1     -35.674 -45.425  49.482  0.00  0.00    +0.000 OA
ATOM     22  H   UNL     1     -35.680 -44.453  49.395  0.00  0.00    +0.000 HD
ENDBRANCH  15  21
ENDBRANCH   4  16
BRANCH  11  23
ATOM     23  O   UNL     1     -30.465 -53.181  55.340  0.00  0.00    +0.000 OA
BRANCH  23  24
ATOM     24  C   UNL     1     -29.884 -54.027  54.492  0.00  0.00    +0.000 C 
ATOM     25  C   UNL     1     -29.216 -54.998  53.514  0.00  0.00    +0.000 C 
BRANCH  25  26
ATOM     26  C   UNL     1     -28.550 -55.969  52.535  0.00  0.00    +0.000 C 
ATOM     27  C   UNL     1     -27.878 -56.941  51.561  0.00  0.00    +0.000 C 
ATOM     28  C   UNL     1     -27.200 -57.920  50.596  0.00  0.00    +0.000 C 
ENDBRANCH  25  26
ENDBRANCH  23  24
ENDBRANCH  11  23
TORSDOF 6
ENDMDL
