MODEL 1
REMARK VINA RESULT:      -5.7      0.000      0.000
REMARK  Name = 6223_Gliotoxin.pdbqt.pdb
REMARK  3 active torsions:
REMARK  status: ('A' for Active; 'I' for Inactive)
REMARK    1  A    between atoms: C_10  and  C_21
REMARK    2  A    between atoms: C_14  and  O_19
REMARK    3  A    between atoms: C_21  and  O_22
REMARK                            x       y       z     vdW  Elec       q    Type
REMARK                         _______ _______ _______ _____ _____    ______ ____
ROOT
ATOM      1  S   UNL     1     -29.187 -52.163  52.947  0.00  0.00    +0.000 S 
ATOM      2  S   UNL     1     -30.242 -53.830  53.554  0.00  0.00    +0.000 S 
ATOM      3  O   UNL     1     -33.374 -52.025  53.839  0.00  0.00    +0.000 OA
ATOM      4  O   UNL     1     -28.844 -50.810  56.215  0.00  0.00    +0.000 OA
ATOM      5  N   UNL     1     -31.407 -50.835  53.841  0.00  0.00    +0.000 N 
ATOM      6  N   UNL     1     -30.553 -52.394  55.896  0.00  0.00    +0.000 N 
ATOM      7  C   UNL     1     -29.926 -50.904  54.041  0.00  0.00    +0.000 C 
ATOM      8  C   UNL     1     -31.793 -49.602  53.312  0.00  0.00    +0.000 A 
ATOM      9  C   UNL     1     -29.526 -49.545  53.683  0.00  0.00    +0.000 C 
ATOM     10  C   UNL     1     -31.369 -53.081  54.841  0.00  0.00    +0.000 C 
ATOM     11  C   UNL     1     -30.582 -48.709  53.295  0.00  0.00    +0.000 A 
ATOM     12  C   UNL     1     -32.184 -51.948  54.138  0.00  0.00    +0.000 C 
ATOM     13  C   UNL     1     -29.709 -51.317  55.498  0.00  0.00    +0.000 C 
ATOM     14  C   UNL     1     -32.980 -49.261  52.493  0.00  0.00    +0.000 A 
ATOM     15  C   UNL     1     -30.608 -47.820  52.344  0.00  0.00    +0.000 A 
ATOM     16  C   UNL     1     -32.711 -48.159  51.611  0.00  0.00    +0.000 A 
ATOM     17  C   UNL     1     -30.542 -52.986  57.233  0.00  0.00    +0.000 C 
ATOM     18  C   UNL     1     -31.763 -47.449  51.401  0.00  0.00    +0.000 A 
ENDROOT
BRANCH  14  19
ATOM     19  O   UNL     1     -33.967 -50.160  52.205  0.00  0.00    +0.000 OA
ATOM     20  H   UNL     1     -34.572 -50.319  52.957  0.00  0.00    +0.000 HD
ENDBRANCH  14  19
BRANCH  10  21
ATOM     21  C   UNL     1     -32.279 -54.143  55.349  0.00  0.00    +0.000 C 
BRANCH  21  22
ATOM     22  O   UNL     1     -33.086 -55.109  55.795  0.00  0.00    +0.000 OA
ATOM     23  H   UNL     1     -32.633 -55.674  56.449  0.00  0.00    +0.000 HD
ENDBRANCH  21  22
ENDBRANCH  10  21
TORSDOF 3
ENDMDL
MODEL 2
REMARK VINA RESULT:      -5.7     36.174     37.629
REMARK  Name = 6223_Gliotoxin.pdbqt.pdb
REMARK  3 active torsions:
REMARK  status: ('A' for Active; 'I' for Inactive)
REMARK    1  A    between atoms: C_10  and  C_21
REMARK    2  A    between atoms: C_14  and  O_19
REMARK    3  A    between atoms: C_21  and  O_22
REMARK                            x       y       z     vdW  Elec       q    Type
REMARK                         _______ _______ _______ _____ _____    ______ ____
ROOT
ATOM      1  S   UNL     1     -62.383 -69.250  39.427  0.00  0.00    +0.000 S 
ATOM      2  S   UNL     1     -64.018 -70.069  40.384  0.00  0.00    +0.000 S 
ATOM      3  O   UNL     1     -64.602 -67.118  42.406  0.00  0.00    +0.000 OA
ATOM      4  O   UNL     1     -60.125 -69.857  42.103  0.00  0.00    +0.000 OA
ATOM      5  N   UNL     1     -62.533 -67.411  41.450  0.00  0.00    +0.000 N 
ATOM      6  N   UNL     1     -62.418 -69.857  42.627  0.00  0.00    +0.000 N 
ATOM      7  C   UNL     1     -61.590 -68.394  40.831  0.00  0.00    +0.000 C 
ATOM      8  C   UNL     1     -62.078 -66.101  41.292  0.00  0.00    +0.000 A 
ATOM      9  C   UNL     1     -60.499 -67.519  40.410  0.00  0.00    +0.000 C 
ATOM     10  C   UNL     1     -63.764 -69.431  42.120  0.00  0.00    +0.000 C 
ATOM     11  C   UNL     1     -60.696 -66.161  40.698  0.00  0.00    +0.000 A 
ATOM     12  C   UNL     1     -63.705 -67.872  42.035  0.00  0.00    +0.000 C 
ATOM     13  C   UNL     1     -61.262 -69.418  41.920  0.00  0.00    +0.000 C 
ATOM     14  C   UNL     1     -62.850 -64.837  41.250  0.00  0.00    +0.000 A 
ATOM     15  C   UNL     1     -60.400 -65.124  39.969  0.00  0.00    +0.000 A 
ATOM     16  C   UNL     1     -62.197 -63.847  40.438  0.00  0.00    +0.000 A 
ATOM     17  C   UNL     1     -62.385 -70.838  43.712  0.00  0.00    +0.000 C 
ATOM     18  C   UNL     1     -61.173 -63.805  39.808  0.00  0.00    +0.000 A 
ENDROOT
BRANCH  14  19
ATOM     19  O   UNL     1     -64.197 -64.782  41.467  0.00  0.00    +0.000 OA
ATOM     20  H   UNL     1     -64.672 -64.242  40.803  0.00  0.00    +0.000 HD
ENDBRANCH  14  19
BRANCH  10  21
ATOM     21  C   UNL     1     -64.913 -69.868  42.958  0.00  0.00    +0.000 C 
BRANCH  21  22
ATOM     22  O   UNL     1     -65.937 -70.253  43.725  0.00  0.00    +0.000 OA
ATOM     23  H   UNL     1     -66.325 -69.496  44.202  0.00  0.00    +0.000 HD
ENDBRANCH  21  22
ENDBRANCH  10  21
TORSDOF 3
ENDMDL
MODEL 3
REMARK VINA RESULT:      -5.6     21.910     23.986
REMARK  Name = 6223_Gliotoxin.pdbqt.pdb
REMARK  3 active torsions:
REMARK  status: ('A' for Active; 'I' for Inactive)
REMARK    1  A    between atoms: C_10  and  C_21
REMARK    2  A    between atoms: C_14  and  O_19
REMARK    3  A    between atoms: C_21  and  O_22
REMARK                            x       y       z     vdW  Elec       q    Type
REMARK                         _______ _______ _______ _____ _____    ______ ____
ROOT
ATOM      1  S   UNL     1     -42.670 -54.640  31.733  0.00  0.00    +0.000 S 
ATOM      2  S   UNL     1     -41.372 -55.234  33.224  0.00  0.00    +0.000 S 
ATOM      3  O   UNL     1     -42.380 -52.576  35.474  0.00  0.00    +0.000 OA
ATOM      4  O   UNL     1     -40.603 -51.998  30.560  0.00  0.00    +0.000 OA
ATOM      5  N   UNL     1     -42.827 -52.354  33.230  0.00  0.00    +0.000 N 
ATOM      6  N   UNL     1     -40.190 -52.783  32.738  0.00  0.00    +0.000 N 
ATOM      7  C   UNL     1     -42.485 -52.829  31.853  0.00  0.00    +0.000 C 
ATOM      8  C   UNL     1     -43.962 -51.543  33.221  0.00  0.00    +0.000 A 
ATOM      9  C   UNL     1     -43.470 -52.109  31.050  0.00  0.00    +0.000 C 
ATOM     10  C   UNL     1     -40.789 -53.577  33.860  0.00  0.00    +0.000 C 
ATOM     11  C   UNL     1     -44.339 -51.292  31.786  0.00  0.00    +0.000 A 
ATOM     12  C   UNL     1     -42.058 -52.782  34.305  0.00  0.00    +0.000 C 
ATOM     13  C   UNL     1     -41.018 -52.459  31.625  0.00  0.00    +0.000 C 
ATOM     14  C   UNL     1     -44.944 -51.288  34.302  0.00  0.00    +0.000 A 
ATOM     15  C   UNL     1     -45.614 -51.096  31.612  0.00  0.00    +0.000 A 
ATOM     16  C   UNL     1     -46.247 -50.995  33.772  0.00  0.00    +0.000 A 
ATOM     17  C   UNL     1     -38.748 -52.541  32.778  0.00  0.00    +0.000 C 
ATOM     18  C   UNL     1     -46.713 -50.894  32.667  0.00  0.00    +0.000 A 
ENDROOT
BRANCH  14  19
ATOM     19  O   UNL     1     -44.801 -51.782  35.567  0.00  0.00    +0.000 OA
ATOM     20  H   UNL     1     -43.951 -51.532  35.984  0.00  0.00    +0.000 HD
ENDBRANCH  14  19
BRANCH  10  21
ATOM     21  C   UNL     1     -39.882 -53.808  35.016  0.00  0.00    +0.000 C 
BRANCH  21  22
ATOM     22  O   UNL     1     -39.083 -54.015  36.066  0.00  0.00    +0.000 OA
ATOM     23  H   UNL     1     -38.894 -53.182  36.537  0.00  0.00    +0.000 HD
ENDBRANCH  21  22
ENDBRANCH  10  21
TORSDOF 3
ENDMDL
MODEL 4
REMARK VINA RESULT:      -5.6     36.026     37.461
REMARK  Name = 6223_Gliotoxin.pdbqt.pdb
REMARK  3 active torsions:
REMARK  status: ('A' for Active; 'I' for Inactive)
REMARK    1  A    between atoms: C_10  and  C_21
REMARK    2  A    between atoms: C_14  and  O_19
REMARK    3  A    between atoms: C_21  and  O_22
REMARK                            x       y       z     vdW  Elec       q    Type
REMARK                         _______ _______ _______ _____ _____    ______ ____
ROOT
ATOM      1  S   UNL     1     -60.929 -76.742  50.814  0.00  0.00    +0.000 S 
ATOM      2  S   UNL     1     -60.866 -75.394  52.376  0.00  0.00    +0.000 S 
ATOM      3  O   UNL     1     -57.459 -74.379  51.665  0.00  0.00    +0.000 OA
ATOM      4  O   UNL     1     -59.137 -79.285  52.533  0.00  0.00    +0.000 OA
ATOM      5  N   UNL     1     -58.215 -76.381  50.825  0.00  0.00    +0.000 N 
ATOM      6  N   UNL     1     -58.916 -77.092  53.352  0.00  0.00    +0.000 N 
ATOM      7  C   UNL     1     -59.252 -77.452  50.942  0.00  0.00    +0.000 C 
ATOM      8  C   UNL     1     -57.445 -76.541  49.672  0.00  0.00    +0.000 A 
ATOM      9  C   UNL     1     -58.915 -78.302  49.802  0.00  0.00    +0.000 C 
ATOM     10  C   UNL     1     -59.122 -75.650  52.991  0.00  0.00    +0.000 C 
ATOM     11  C   UNL     1     -57.827 -77.853  49.042  0.00  0.00    +0.000 A 
ATOM     12  C   UNL     1     -58.164 -75.379  51.786  0.00  0.00    +0.000 C 
ATOM     13  C   UNL     1     -59.075 -78.071  52.330  0.00  0.00    +0.000 C 
ATOM     14  C   UNL     1     -56.709 -75.524  48.884  0.00  0.00    +0.000 A 
ATOM     15  C   UNL     1     -57.677 -77.869  47.749  0.00  0.00    +0.000 A 
ATOM     16  C   UNL     1     -56.626 -75.892  47.497  0.00  0.00    +0.000 A 
ATOM     17  C   UNL     1     -58.736 -77.413  54.767  0.00  0.00    +0.000 C 
ATOM     18  C   UNL     1     -56.995 -76.831  46.843  0.00  0.00    +0.000 A 
ENDROOT
BRANCH  14  19
ATOM     19  O   UNL     1     -56.612 -74.217  49.266  0.00  0.00    +0.000 OA
ATOM     20  H   UNL     1     -57.431 -73.874  49.677  0.00  0.00    +0.000 HD
ENDBRANCH  14  19
BRANCH  10  21
ATOM     21  C   UNL     1     -58.862 -74.687  54.094  0.00  0.00    +0.000 C 
BRANCH  21  22
ATOM     22  O   UNL     1     -58.648 -73.817  55.084  0.00  0.00    +0.000 OA
ATOM     23  H   UNL     1     -57.919 -74.112  55.662  0.00  0.00    +0.000 HD
ENDBRANCH  21  22
ENDBRANCH  10  21
TORSDOF 3
ENDMDL
MODEL 5
REMARK VINA RESULT:      -5.3     24.202     25.859
REMARK  Name = 6223_Gliotoxin.pdbqt.pdb
REMARK  3 active torsions:
REMARK  status: ('A' for Active; 'I' for Inactive)
REMARK    1  A    between atoms: C_10  and  C_21
REMARK    2  A    between atoms: C_14  and  O_19
REMARK    3  A    between atoms: C_21  and  O_22
REMARK                            x       y       z     vdW  Elec       q    Type
REMARK                         _______ _______ _______ _____ _____    ______ ____
ROOT
ATOM      1  S   UNL     1     -42.278 -52.007  33.346  0.00  0.00    +0.000 S 
ATOM      2  S   UNL     1     -41.505 -52.835  31.621  0.00  0.00    +0.000 S 
ATOM      3  O   UNL     1     -44.510 -52.196  29.696  0.00  0.00    +0.000 OA
ATOM      4  O   UNL     1     -44.208 -54.860  34.219  0.00  0.00    +0.000 OA
ATOM      5  N   UNL     1     -44.647 -52.205  31.991  0.00  0.00    +0.000 N 
ATOM      6  N   UNL     1     -43.531 -54.682  31.974  0.00  0.00    +0.000 N 
ATOM      7  C   UNL     1     -43.988 -52.637  33.262  0.00  0.00    +0.000 C 
ATOM      8  C   UNL     1     -45.714 -51.341  32.238  0.00  0.00    +0.000 A 
ATOM      9  C   UNL     1     -44.862 -52.024  34.260  0.00  0.00    +0.000 C 
ATOM     10  C   UNL     1     -43.009 -53.716  30.951  0.00  0.00    +0.000 C 
ATOM     11  C   UNL     1     -45.930 -51.289  33.727  0.00  0.00    +0.000 A 
ATOM     12  C   UNL     1     -44.132 -52.644  30.777  0.00  0.00    +0.000 C 
ATOM     13  C   UNL     1     -43.957 -54.167  33.231  0.00  0.00    +0.000 C 
ATOM     14  C   UNL     1     -46.297 -50.293  31.367  0.00  0.00    +0.000 A 
ATOM     15  C   UNL     1     -46.425 -50.158  34.140  0.00  0.00    +0.000 A 
ATOM     16  C   UNL     1     -46.862 -49.220  32.138  0.00  0.00    +0.000 A 
ATOM     17  C   UNL     1     -43.405 -56.109  31.679  0.00  0.00    +0.000 C 
ATOM     18  C   UNL     1     -46.984 -48.990  33.312  0.00  0.00    +0.000 A 
ENDROOT
BRANCH  14  19
ATOM     19  O   UNL     1     -45.891 -50.088  30.080  0.00  0.00    +0.000 OA
ATOM     20  H   UNL     1     -46.338 -50.675  29.437  0.00  0.00    +0.000 HD
ENDBRANCH  14  19
BRANCH  10  21
ATOM     21  C   UNL     1     -42.657 -54.324  29.640  0.00  0.00    +0.000 C 
BRANCH  21  22
ATOM     22  O   UNL     1     -42.331 -54.884  28.472  0.00  0.00    +0.000 OA
ATOM     23  H   UNL     1     -41.732 -54.309  27.960  0.00  0.00    +0.000 HD
ENDBRANCH  21  22
ENDBRANCH  10  21
TORSDOF 3
ENDMDL
MODEL 6
REMARK VINA RESULT:      -5.3     42.601     44.230
REMARK  Name = 6223_Gliotoxin.pdbqt.pdb
REMARK  3 active torsions:
REMARK  status: ('A' for Active; 'I' for Inactive)
REMARK    1  A    between atoms: C_10  and  C_21
REMARK    2  A    between atoms: C_14  and  O_19
REMARK    3  A    between atoms: C_21  and  O_22
REMARK                            x       y       z     vdW  Elec       q    Type
REMARK                         _______ _______ _______ _____ _____    ______ ____
ROOT
ATOM      1  S   UNL     1     -75.227 -62.194  46.434  0.00  0.00    +0.000 S 
ATOM      2  S   UNL     1     -74.295 -60.827  45.200  0.00  0.00    +0.000 S 
ATOM      3  O   UNL     1     -71.439 -62.976  44.595  0.00  0.00    +0.000 OA
ATOM      4  O   UNL     1     -73.246 -61.433  49.285  0.00  0.00    +0.000 OA
ATOM      5  N   UNL     1     -72.763 -63.386  46.429  0.00  0.00    +0.000 N 
ATOM      6  N   UNL     1     -72.378 -60.807  47.191  0.00  0.00    +0.000 N 
ATOM      7  C   UNL     1     -73.785 -62.818  47.362  0.00  0.00    +0.000 C 
ATOM      8  C   UNL     1     -72.607 -64.760  46.620  0.00  0.00    +0.000 A 
ATOM      9  C   UNL     1     -74.106 -63.985  48.180  0.00  0.00    +0.000 C 
ATOM     10  C   UNL     1     -72.514 -61.046  45.716  0.00  0.00    +0.000 C 
ATOM     11  C   UNL     1     -73.410 -65.151  47.831  0.00  0.00    +0.000 A 
ATOM     12  C   UNL     1     -72.154 -62.551  45.501  0.00  0.00    +0.000 C 
ATOM     13  C   UNL     1     -73.107 -61.649  48.079  0.00  0.00    +0.000 C 
ATOM     14  C   UNL     1     -72.155 -65.796  45.662  0.00  0.00    +0.000 A 
ATOM     15  C   UNL     1     -73.846 -66.377  47.791  0.00  0.00    +0.000 A 
ATOM     16  C   UNL     1     -72.742 -67.076  45.955  0.00  0.00    +0.000 A 
ATOM     17  C   UNL     1     -71.644 -59.615  47.616  0.00  0.00    +0.000 C 
ATOM     18  C   UNL     1     -73.490 -67.495  46.798  0.00  0.00    +0.000 A 
ENDROOT
BRANCH  14  19
ATOM     19  O   UNL     1     -71.715 -65.503  44.403  0.00  0.00    +0.000 OA
ATOM     20  H   UNL     1     -72.434 -65.487  43.739  0.00  0.00    +0.000 HD
ENDBRANCH  14  19
BRANCH  10  21
ATOM     21  C   UNL     1     -71.663 -60.175  44.861  0.00  0.00    +0.000 C 
BRANCH  21  22
ATOM     22  O   UNL     1     -70.886 -59.393  44.108  0.00  0.00    +0.000 OA
ATOM     23  H   UNL     1     -70.596 -59.856  43.299  0.00  0.00    +0.000 HD
ENDBRANCH  21  22
ENDBRANCH  10  21
TORSDOF 3
ENDMDL
MODEL 7
REMARK VINA RESULT:      -5.3      4.147      5.336
REMARK  Name = 6223_Gliotoxin.pdbqt.pdb
REMARK  3 active torsions:
REMARK  status: ('A' for Active; 'I' for Inactive)
REMARK    1  A    between atoms: C_10  and  C_21
REMARK    2  A    between atoms: C_14  and  O_19
REMARK    3  A    between atoms: C_21  and  O_22
REMARK                            x       y       z     vdW  Elec       q    Type
REMARK                         _______ _______ _______ _____ _____    ______ ____
ROOT
ATOM      1  S   UNL     1     -27.832 -52.754  53.921  0.00  0.00    +0.000 S 
ATOM      2  S   UNL     1     -28.576 -53.114  52.029  0.00  0.00    +0.000 S 
ATOM      3  O   UNL     1     -31.820 -54.167  53.256  0.00  0.00    +0.000 OA
ATOM      4  O   UNL     1     -27.160 -56.169  54.640  0.00  0.00    +0.000 OA
ATOM      5  N   UNL     1     -30.033 -54.182  54.702  0.00  0.00    +0.000 N 
ATOM      6  N   UNL     1     -28.695 -55.730  52.913  0.00  0.00    +0.000 N 
ATOM      7  C   UNL     1     -28.542 -54.178  54.816  0.00  0.00    +0.000 C 
ATOM      8  C   UNL     1     -30.640 -53.984  55.943  0.00  0.00    +0.000 A 
ATOM      9  C   UNL     1     -28.366 -54.075  56.263  0.00  0.00    +0.000 C 
ATOM     10  C   UNL     1     -29.575 -54.661  52.334  0.00  0.00    +0.000 C 
ATOM     11  C   UNL     1     -29.561 -54.010  56.992  0.00  0.00    +0.000 A 
ATOM     12  C   UNL     1     -30.616 -54.326  53.449  0.00  0.00    +0.000 C 
ATOM     13  C   UNL     1     -28.057 -55.473  54.161  0.00  0.00    +0.000 C 
ATOM     14  C   UNL     1     -31.969 -53.411  56.258  0.00  0.00    +0.000 A 
ATOM     15  C   UNL     1     -29.837 -53.285  58.037  0.00  0.00    +0.000 A 
ATOM     16  C   UNL     1     -31.972 -52.762  57.541  0.00  0.00    +0.000 A 
ATOM     17  C   UNL     1     -28.411 -56.896  52.077  0.00  0.00    +0.000 C 
ATOM     18  C   UNL     1     -31.159 -52.595  58.411  0.00  0.00    +0.000 A 
ENDROOT
BRANCH  14  19
ATOM     19  O   UNL     1     -32.874 -53.061  55.298  0.00  0.00    +0.000 OA
ATOM     20  H   UNL     1     -32.640 -53.397  54.409  0.00  0.00    +0.000 HD
ENDBRANCH  14  19
BRANCH  10  21
ATOM     21  C   UNL     1     -30.263 -55.037  51.070  0.00  0.00    +0.000 C 
BRANCH  21  22
ATOM     22  O   UNL     1     -30.897 -55.370  49.943  0.00  0.00    +0.000 OA
ATOM     23  H   UNL     1     -31.845 -55.144  49.990  0.00  0.00    +0.000 HD
ENDBRANCH  21  22
ENDBRANCH  10  21
TORSDOF 3
ENDMDL
MODEL 8
REMARK VINA RESULT:      -5.3     45.349     46.921
REMARK  Name = 6223_Gliotoxin.pdbqt.pdb
REMARK  3 active torsions:
REMARK  status: ('A' for Active; 'I' for Inactive)
REMARK    1  A    between atoms: C_10  and  C_21
REMARK    2  A    between atoms: C_14  and  O_19
REMARK    3  A    between atoms: C_21  and  O_22
REMARK                            x       y       z     vdW  Elec       q    Type
REMARK                         _______ _______ _______ _____ _____    ______ ____
ROOT
ATOM      1  S   UNL     1     -65.182 -73.841  28.427  0.00  0.00    +0.000 S 
ATOM      2  S   UNL     1     -64.133 -72.876  26.934  0.00  0.00    +0.000 S 
ATOM      3  O   UNL     1     -63.382 -69.999  29.009  0.00  0.00    +0.000 OA
ATOM      4  O   UNL     1     -68.157 -71.948  27.985  0.00  0.00    +0.000 OA
ATOM      5  N   UNL     1     -65.120 -71.376  29.615  0.00  0.00    +0.000 N 
ATOM      6  N   UNL     1     -66.170 -71.019  27.134  0.00  0.00    +0.000 N 
ATOM      7  C   UNL     1     -66.079 -72.426  29.150  0.00  0.00    +0.000 C 
ATOM      8  C   UNL     1     -65.165 -71.224  31.001  0.00  0.00    +0.000 A 
ATOM      9  C   UNL     1     -66.754 -72.769  30.399  0.00  0.00    +0.000 C 
ATOM     10  C   UNL     1     -64.675 -71.110  27.211  0.00  0.00    +0.000 C 
ATOM     11  C   UNL     1     -66.302 -72.061  31.521  0.00  0.00    +0.000 A 
ATOM     12  C   UNL     1     -64.308 -70.741  28.684  0.00  0.00    +0.000 C 
ATOM     13  C   UNL     1     -66.940 -71.772  28.067  0.00  0.00    +0.000 C 
ATOM     14  C   UNL     1     -64.113 -70.742  31.928  0.00  0.00    +0.000 A 
ATOM     15  C   UNL     1     -66.115 -72.493  32.734  0.00  0.00    +0.000 A 
ATOM     16  C   UNL     1     -64.248 -71.334  33.231  0.00  0.00    +0.000 A 
ATOM     17  C   UNL     1     -66.744 -70.300  25.998  0.00  0.00    +0.000 C 
ATOM     18  C   UNL     1     -65.017 -72.106  33.738  0.00  0.00    +0.000 A 
ENDROOT
BRANCH  14  19
ATOM     19  O   UNL     1     -62.908 -70.265  31.500  0.00  0.00    +0.000 OA
ATOM     20  H   UNL     1     -62.355 -69.911  32.225  0.00  0.00    +0.000 HD
ENDBRANCH  14  19
BRANCH  10  21
ATOM     21  C   UNL     1     -63.946 -70.236  26.254  0.00  0.00    +0.000 C 
BRANCH  21  22
ATOM     22  O   UNL     1     -63.277 -69.463  25.394  0.00  0.00    +0.000 OA
ATOM     23  H   UNL     1     -63.222 -69.880  24.513  0.00  0.00    +0.000 HD
ENDBRANCH  21  22
ENDBRANCH  10  21
TORSDOF 3
ENDMDL
MODEL 9
REMARK VINA RESULT:      -5.2      9.371     12.123
REMARK  Name = 6223_Gliotoxin.pdbqt.pdb
REMARK  3 active torsions:
REMARK  status: ('A' for Active; 'I' for Inactive)
REMARK    1  A    between atoms: C_10  and  C_21
REMARK    2  A    between atoms: C_14  and  O_19
REMARK    3  A    between atoms: C_21  and  O_22
REMARK                            x       y       z     vdW  Elec       q    Type
REMARK                         _______ _______ _______ _____ _____    ______ ____
ROOT
ATOM      1  S   UNL     1     -36.820 -40.499  49.192  0.00  0.00    +0.000 S 
ATOM      2  S   UNL     1     -38.702 -40.686  48.365  0.00  0.00    +0.000 S 
ATOM      3  O   UNL     1     -38.916 -44.232  49.085  0.00  0.00    +0.000 OA
ATOM      4  O   UNL     1     -35.113 -41.823  46.370  0.00  0.00    +0.000 OA
ATOM      5  N   UNL     1     -36.846 -43.233  49.056  0.00  0.00    +0.000 N 
ATOM      6  N   UNL     1     -37.403 -42.324  46.557  0.00  0.00    +0.000 N 
ATOM      7  C   UNL     1     -36.057 -42.047  48.597  0.00  0.00    +0.000 C 
ATOM      8  C   UNL     1     -36.110 -44.023  49.940  0.00  0.00    +0.000 A 
ATOM      9  C   UNL     1     -34.761 -42.308  49.218  0.00  0.00    +0.000 C 
ATOM     10  C   UNL     1     -38.551 -42.345  47.522  0.00  0.00    +0.000 C 
ATOM     11  C   UNL     1     -34.706 -43.483  49.981  0.00  0.00    +0.000 A 
ATOM     12  C   UNL     1     -38.156 -43.385  48.619  0.00  0.00    +0.000 C 
ATOM     13  C   UNL     1     -36.098 -42.070  47.068  0.00  0.00    +0.000 C 
ATOM     14  C   UNL     1     -36.588 -44.933  51.008  0.00  0.00    +0.000 A 
ATOM     15  C   UNL     1     -34.105 -43.687  51.117  0.00  0.00    +0.000 A 
ATOM     16  C   UNL     1     -35.639 -45.024  52.084  0.00  0.00    +0.000 A 
ATOM     17  C   UNL     1     -37.720 -42.391  45.130  0.00  0.00    +0.000 C 
ATOM     18  C   UNL     1     -34.556 -44.552  52.305  0.00  0.00    +0.000 A 
ENDROOT
BRANCH  14  19
ATOM     19  O   UNL     1     -37.909 -45.202  51.218  0.00  0.00    +0.000 OA
ATOM     20  H   UNL     1     -38.501 -44.485  50.912  0.00  0.00    +0.000 HD
ENDBRANCH  14  19
BRANCH  10  21
ATOM     21  C   UNL     1     -39.867 -42.692  46.921  0.00  0.00    +0.000 C 
BRANCH  21  22
ATOM     22  O   UNL     1     -41.050 -42.985  46.375  0.00  0.00    +0.000 OA
ATOM     23  H   UNL     1     -41.717 -42.306  46.593  0.00  0.00    +0.000 HD
ENDBRANCH  21  22
ENDBRANCH  10  21
TORSDOF 3
ENDMDL
