MODEL 1
REMARK VINA RESULT:      -6.6      0.000      0.000
REMARK  Name = 6256_Trifluridine.pdbqt.pdb
REMARK  5 active torsions:
REMARK  status: ('A' for Active; 'I' for Inactive)
REMARK    1  A    between atoms: N_3  and  C1*_11
REMARK    2  A    between atoms: C_7  and  C_23
REMARK    3  A    between atoms: C3*_12  and  O3*_15
REMARK    4  A    between atoms: C4*_14  and  C5*_17
REMARK    5  A    between atoms: C5*_17  and  O5*_18
REMARK                            x       y       z     vdW  Elec       q    Type
REMARK                         _______ _______ _______ _____ _____    ______ ____
ROOT
ATOM      1  O   UNL     1     -59.661 -67.311  41.523  0.00  0.00    +0.000 OA
ATOM      2  O   UNL     1     -62.653 -68.710  38.337  0.00  0.00    +0.000 OA
ATOM      3  N   UNL     1     -60.886 -65.661  40.345  0.00  0.00    +0.000 N 
ATOM      4  N   UNL     1     -61.178 -67.949  39.922  0.00  0.00    +0.000 N 
ATOM      5  C   UNL     1     -61.820 -65.538  39.382  0.00  0.00    +0.000 A 
ATOM      6  C   UNL     1     -60.490 -66.975  40.685  0.00  0.00    +0.000 A 
ATOM      7  C   UNL     1     -62.493 -66.352  38.637  0.00  0.00    +0.000 A 
ATOM      8  C   UNL     1     -62.143 -67.767  38.924  0.00  0.00    +0.000 A 
ATOM      9  H   UNL     1     -60.929 -68.907  40.126  0.00  0.00    +0.000 HD
ENDROOT
BRANCH   3  11
ATOM     10  O4* UNL     1     -60.902 -64.007  42.109  0.00  0.00    +0.000 OA
ATOM     11  C1* UNL     1     -60.376 -64.535  40.925  0.00  0.00    +0.000 A 
ATOM     12  C3* UNL     1     -59.161 -62.663  41.384  0.00  0.00    +0.000 A 
ATOM     13  C2* UNL     1     -59.322 -63.719  40.470  0.00  0.00    +0.000 A 
ATOM     14  C4* UNL     1     -60.163 -62.853  42.402  0.00  0.00    +0.000 A 
BRANCH  12  15
ATOM     15  O3* UNL     1     -58.734 -61.411  41.042  0.00  0.00    +0.000 OA
ATOM     16  H3* UNL     1     -57.944 -61.160  41.553  0.00  0.00    +0.000 HD
ENDBRANCH  12  15
BRANCH  14  17
ATOM     17  C5* UNL     1     -60.543 -61.949  43.413  0.00  0.00    +0.000 C 
BRANCH  17  18
ATOM     18  O5* UNL     1     -60.905 -61.095  44.366  0.00  0.00    +0.000 OA
ATOM     19  H5* UNL     1     -61.319 -60.307  43.972  0.00  0.00    +0.000 HD
ENDBRANCH  17  18
ENDBRANCH  14  17
ENDBRANCH   3  11
BRANCH   7  23
ATOM     20  F   UNL     1     -63.677 -64.748  37.392  0.00  0.00    +0.000 F 
ATOM     21  F   UNL     1     -63.097 -66.583  36.385  0.00  0.00    +0.000 F 
ATOM     22  F   UNL     1     -64.692 -66.630  37.856  0.00  0.00    +0.000 F 
ATOM     23  C   UNL     1     -63.484 -66.077  37.589  0.00  0.00    +0.000 C 
ENDBRANCH   7  23
TORSDOF 5
ENDMDL
MODEL 2
REMARK VINA RESULT:      -5.9     34.262     35.023
REMARK  Name = 6256_Trifluridine.pdbqt.pdb
REMARK  5 active torsions:
REMARK  status: ('A' for Active; 'I' for Inactive)
REMARK    1  A    between atoms: N_3  and  C1*_11
REMARK    2  A    between atoms: C_7  and  C_23
REMARK    3  A    between atoms: C3*_12  and  O3*_15
REMARK    4  A    between atoms: C4*_14  and  C5*_17
REMARK    5  A    between atoms: C5*_17  and  O5*_18
REMARK                            x       y       z     vdW  Elec       q    Type
REMARK                         _______ _______ _______ _____ _____    ______ ____
ROOT
ATOM      1  O   UNL     1     -31.783 -51.343  50.681  0.00  0.00    +0.000 OA
ATOM      2  O   UNL     1     -31.408 -54.734  53.750  0.00  0.00    +0.000 OA
ATOM      3  N   UNL     1     -32.299 -50.861  52.942  0.00  0.00    +0.000 N 
ATOM      4  N   UNL     1     -31.608 -52.997  52.264  0.00  0.00    +0.000 N 
ATOM      5  C   UNL     1     -32.351 -51.448  54.154  0.00  0.00    +0.000 A 
ATOM      6  C   UNL     1     -31.895 -51.671  51.857  0.00  0.00    +0.000 A 
ATOM      7  C   UNL     1     -32.116 -52.631  54.618  0.00  0.00    +0.000 A 
ATOM      8  C   UNL     1     -31.681 -53.560  53.544  0.00  0.00    +0.000 A 
ATOM      9  H   UNL     1     -31.315 -53.618  51.523  0.00  0.00    +0.000 HD
ENDROOT
BRANCH   3  11
ATOM     10  O4* UNL     1     -33.967 -49.110  52.897  0.00  0.00    +0.000 OA
ATOM     11  C1* UNL     1     -32.639 -49.543  52.826  0.00  0.00    +0.000 A 
ATOM     12  C3* UNL     1     -32.590 -47.284  52.536  0.00  0.00    +0.000 A 
ATOM     13  C2* UNL     1     -31.793 -48.440  52.597  0.00  0.00    +0.000 A 
ATOM     14  C4* UNL     1     -33.952 -47.721  52.718  0.00  0.00    +0.000 A 
BRANCH  12  15
ATOM     15  O3* UNL     1     -32.299 -46.191  51.770  0.00  0.00    +0.000 OA
ATOM     16  H3* UNL     1     -32.786 -46.216  50.927  0.00  0.00    +0.000 HD
ENDBRANCH  12  15
BRANCH  14  17
ATOM     17  C5* UNL     1     -35.128 -46.969  52.528  0.00  0.00    +0.000 C 
BRANCH  17  18
ATOM     18  O5* UNL     1     -36.236 -46.258  52.345  0.00  0.00    +0.000 OA
ATOM     19  H5* UNL     1     -36.315 -45.992  51.413  0.00  0.00    +0.000 HD
ENDBRANCH  17  18
ENDBRANCH  14  17
ENDBRANCH   3  11
BRANCH   7  23
ATOM     20  F   UNL     1     -32.870 -54.352  56.031  0.00  0.00    +0.000 F 
ATOM     21  F   UNL     1     -31.019 -53.348  56.560  0.00  0.00    +0.000 F 
ATOM     22  F   UNL     1     -32.907 -52.306  56.807  0.00  0.00    +0.000 F 
ATOM     23  C   UNL     1     -32.238 -53.152  55.985  0.00  0.00    +0.000 C 
ENDBRANCH   7  23
TORSDOF 5
ENDMDL
MODEL 3
REMARK VINA RESULT:      -5.6     34.210     36.222
REMARK  Name = 6256_Trifluridine.pdbqt.pdb
REMARK  5 active torsions:
REMARK  status: ('A' for Active; 'I' for Inactive)
REMARK    1  A    between atoms: N_3  and  C1*_11
REMARK    2  A    between atoms: C_7  and  C_23
REMARK    3  A    between atoms: C3*_12  and  O3*_15
REMARK    4  A    between atoms: C4*_14  and  C5*_17
REMARK    5  A    between atoms: C5*_17  and  O5*_18
REMARK                            x       y       z     vdW  Elec       q    Type
REMARK                         _______ _______ _______ _____ _____    ______ ____
ROOT
ATOM      1  O   UNL     1     -29.610 -51.687  52.857  0.00  0.00    +0.000 OA
ATOM      2  O   UNL     1     -28.625 -53.743  56.841  0.00  0.00    +0.000 OA
ATOM      3  N   UNL     1     -31.265 -51.683  54.551  0.00  0.00    +0.000 N 
ATOM      4  N   UNL     1     -29.174 -52.693  54.875  0.00  0.00    +0.000 N 
ATOM      5  C   UNL     1     -31.477 -52.112  55.811  0.00  0.00    +0.000 A 
ATOM      6  C   UNL     1     -30.006 -51.978  53.980  0.00  0.00    +0.000 A 
ATOM      7  C   UNL     1     -30.792 -52.764  56.693  0.00  0.00    +0.000 A 
ATOM      8  C   UNL     1     -29.444 -53.120  56.180  0.00  0.00    +0.000 A 
ATOM      9  H   UNL     1     -28.261 -52.930  54.512  0.00  0.00    +0.000 HD
ENDROOT
BRANCH   3  11
ATOM     10  O4* UNL     1     -32.016 -49.817  53.210  0.00  0.00    +0.000 OA
ATOM     11  C1* UNL     1     -32.258 -51.007  53.904  0.00  0.00    +0.000 A 
ATOM     12  C3* UNL     1     -34.270 -50.331  53.072  0.00  0.00    +0.000 A 
ATOM     13  C2* UNL     1     -33.629 -51.324  53.834  0.00  0.00    +0.000 A 
ATOM     14  C4* UNL     1     -33.247 -49.389  52.694  0.00  0.00    +0.000 A 
BRANCH  12  15
ATOM     15  O3* UNL     1     -35.560 -49.927  53.267  0.00  0.00    +0.000 OA
ATOM     16  H3* UNL     1     -36.183 -50.510  52.799  0.00  0.00    +0.000 HD
ENDBRANCH  12  15
BRANCH  14  17
ATOM     17  C5* UNL     1     -33.422 -48.120  52.109  0.00  0.00    +0.000 C 
BRANCH  17  18
ATOM     18  O5* UNL     1     -33.585 -46.923  51.553  0.00  0.00    +0.000 OA
ATOM     19  H5* UNL     1     -33.111 -46.246  52.066  0.00  0.00    +0.000 HD
ENDBRANCH  17  18
ENDBRANCH  14  17
ENDBRANCH   3  11
BRANCH   7  23
ATOM     20  F   UNL     1     -30.269 -52.783  58.985  0.00  0.00    +0.000 F 
ATOM     21  F   UNL     1     -32.366 -52.686  58.427  0.00  0.00    +0.000 F 
ATOM     22  F   UNL     1     -31.272 -54.541  58.154  0.00  0.00    +0.000 F 
ATOM     23  C   UNL     1     -31.160 -53.194  58.048  0.00  0.00    +0.000 C 
ENDBRANCH   7  23
TORSDOF 5
ENDMDL
MODEL 4
REMARK VINA RESULT:      -5.5      3.022      4.065
REMARK  Name = 6256_Trifluridine.pdbqt.pdb
REMARK  5 active torsions:
REMARK  status: ('A' for Active; 'I' for Inactive)
REMARK    1  A    between atoms: N_3  and  C1*_11
REMARK    2  A    between atoms: C_7  and  C_23
REMARK    3  A    between atoms: C3*_12  and  O3*_15
REMARK    4  A    between atoms: C4*_14  and  C5*_17
REMARK    5  A    between atoms: C5*_17  and  O5*_18
REMARK                            x       y       z     vdW  Elec       q    Type
REMARK                         _______ _______ _______ _____ _____    ______ ____
ROOT
ATOM      1  O   UNL     1     -61.798 -68.407  38.231  0.00  0.00    +0.000 OA
ATOM      2  O   UNL     1     -65.556 -70.275  40.087  0.00  0.00    +0.000 OA
ATOM      3  N   UNL     1     -63.125 -67.058  39.654  0.00  0.00    +0.000 N 
ATOM      4  N   UNL     1     -63.687 -69.287  39.195  0.00  0.00    +0.000 N 
ATOM      5  C   UNL     1     -64.246 -67.108  40.402  0.00  0.00    +0.000 A 
ATOM      6  C   UNL     1     -62.767 -68.236  38.962  0.00  0.00    +0.000 A 
ATOM      7  C   UNL     1     -65.138 -68.004  40.670  0.00  0.00    +0.000 A 
ATOM      8  C   UNL     1     -64.844 -69.287  39.983  0.00  0.00    +0.000 A 
ATOM      9  H   UNL     1     -63.475 -70.153  38.720  0.00  0.00    +0.000 HD
ENDROOT
BRANCH   3  11
ATOM     10  O4* UNL     1     -61.123 -65.787  40.132  0.00  0.00    +0.000 OA
ATOM     11  C1* UNL     1     -62.413 -65.894  39.601  0.00  0.00    +0.000 A 
ATOM     12  C3* UNL     1     -61.756 -63.739  39.255  0.00  0.00    +0.000 A 
ATOM     13  C2* UNL     1     -62.812 -64.650  39.073  0.00  0.00    +0.000 A 
ATOM     14  C4* UNL     1     -60.707 -64.465  39.926  0.00  0.00    +0.000 A 
BRANCH  12  15
ATOM     15  O3* UNL     1     -61.925 -62.399  39.458  0.00  0.00    +0.000 OA
ATOM     16  H3* UNL     1     -62.395 -61.989  38.711  0.00  0.00    +0.000 HD
ENDBRANCH  12  15
BRANCH  14  17
ATOM     17  C5* UNL     1     -59.538 -63.941  40.512  0.00  0.00    +0.000 C 
BRANCH  17  18
ATOM     18  O5* UNL     1     -58.435 -63.448  41.067  0.00  0.00    +0.000 OA
ATOM     19  H5* UNL     1     -58.649 -62.666  41.604  0.00  0.00    +0.000 HD
ENDBRANCH  17  18
ENDBRANCH  14  17
ENDBRANCH   3  11
BRANCH   7  23
ATOM     20  F   UNL     1     -67.464 -68.306  40.835  0.00  0.00    +0.000 F 
ATOM     21  F   UNL     1     -66.263 -68.718  42.597  0.00  0.00    +0.000 F 
ATOM     22  F   UNL     1     -66.567 -66.662  41.967  0.00  0.00    +0.000 F 
ATOM     23  C   UNL     1     -66.347 -67.916  41.499  0.00  0.00    +0.000 C 
ENDBRANCH   7  23
TORSDOF 5
ENDMDL
MODEL 5
REMARK VINA RESULT:      -5.5     34.761     36.262
REMARK  Name = 6256_Trifluridine.pdbqt.pdb
REMARK  5 active torsions:
REMARK  status: ('A' for Active; 'I' for Inactive)
REMARK    1  A    between atoms: N_3  and  C1*_11
REMARK    2  A    between atoms: C_7  and  C_23
REMARK    3  A    between atoms: C3*_12  and  O3*_15
REMARK    4  A    between atoms: C4*_14  and  C5*_17
REMARK    5  A    between atoms: C5*_17  and  O5*_18
REMARK                            x       y       z     vdW  Elec       q    Type
REMARK                         _______ _______ _______ _____ _____    ______ ____
ROOT
ATOM      1  O   UNL     1     -32.285 -62.624  65.222  0.00  0.00    +0.000 OA
ATOM      2  O   UNL     1     -31.288 -64.895  61.360  0.00  0.00    +0.000 OA
ATOM      3  N   UNL     1     -33.978 -63.966  64.250  0.00  0.00    +0.000 N 
ATOM      4  N   UNL     1     -31.844 -63.790  63.294  0.00  0.00    +0.000 N 
ATOM      5  C   UNL     1     -34.196 -64.779  63.198  0.00  0.00    +0.000 A 
ATOM      6  C   UNL     1     -32.692 -63.388  64.354  0.00  0.00    +0.000 A 
ATOM      7  C   UNL     1     -33.499 -65.197  62.193  0.00  0.00    +0.000 A 
ATOM      8  C   UNL     1     -32.123 -64.640  62.216  0.00  0.00    +0.000 A 
ATOM      9  H   UNL     1     -30.912 -63.402  63.321  0.00  0.00    +0.000 HD
ENDROOT
BRANCH   3  11
ATOM     10  O4* UNL     1     -34.884 -64.092  66.489  0.00  0.00    +0.000 OA
ATOM     11  C1* UNL     1     -34.990 -63.743  65.139  0.00  0.00    +0.000 A 
ATOM     12  C3* UNL     1     -36.973 -63.170  66.106  0.00  0.00    +0.000 A 
ATOM     13  C2* UNL     1     -36.262 -63.190  64.893  0.00  0.00    +0.000 A 
ATOM     14  C4* UNL     1     -36.098 -63.746  67.096  0.00  0.00    +0.000 A 
BRANCH  12  15
ATOM     15  O3* UNL     1     -38.329 -63.304  66.203  0.00  0.00    +0.000 OA
ATOM     16  H3* UNL     1     -38.585 -64.242  66.241  0.00  0.00    +0.000 HD
ENDBRANCH  12  15
BRANCH  14  17
ATOM     17  C5* UNL     1     -36.426 -64.138  68.409  0.00  0.00    +0.000 C 
BRANCH  17  18
ATOM     18  O5* UNL     1     -36.739 -64.509  69.647  0.00  0.00    +0.000 OA
ATOM     19  H5* UNL     1     -37.702 -64.461  69.779  0.00  0.00    +0.000 HD
ENDBRANCH  17  18
ENDBRANCH  14  17
ENDBRANCH   3  11
BRANCH   7  23
ATOM     20  F   UNL     1     -33.272 -67.295  61.155  0.00  0.00    +0.000 F 
ATOM     21  F   UNL     1     -35.215 -66.328  61.069  0.00  0.00    +0.000 F 
ATOM     22  F   UNL     1     -33.581 -65.550  59.871  0.00  0.00    +0.000 F 
ATOM     23  C   UNL     1     -33.876 -66.082  61.083  0.00  0.00    +0.000 C 
ENDBRANCH   7  23
TORSDOF 5
ENDMDL
MODEL 6
REMARK VINA RESULT:      -5.5     21.017     23.167
REMARK  Name = 6256_Trifluridine.pdbqt.pdb
REMARK  5 active torsions:
REMARK  status: ('A' for Active; 'I' for Inactive)
REMARK    1  A    between atoms: N_3  and  C1*_11
REMARK    2  A    between atoms: C_7  and  C_23
REMARK    3  A    between atoms: C3*_12  and  O3*_15
REMARK    4  A    between atoms: C4*_14  and  C5*_17
REMARK    5  A    between atoms: C5*_17  and  O5*_18
REMARK                            x       y       z     vdW  Elec       q    Type
REMARK                         _______ _______ _______ _____ _____    ______ ____
ROOT
ATOM      1  O   UNL     1     -42.637 -52.949  30.520  0.00  0.00    +0.000 OA
ATOM      2  O   UNL     1     -45.542 -49.674  29.141  0.00  0.00    +0.000 OA
ATOM      3  N   UNL     1     -44.019 -51.927  32.150  0.00  0.00    +0.000 N 
ATOM      4  N   UNL     1     -44.116 -51.308  29.890  0.00  0.00    +0.000 N 
ATOM      5  C   UNL     1     -44.975 -50.985  32.273  0.00  0.00    +0.000 A 
ATOM      6  C   UNL     1     -43.505 -52.149  30.853  0.00  0.00    +0.000 A 
ATOM      7  C   UNL     1     -45.585 -50.177  31.469  0.00  0.00    +0.000 A 
ATOM      8  C   UNL     1     -45.108 -50.338  30.072  0.00  0.00    +0.000 A 
ATOM      9  H   UNL     1     -43.781 -51.427  28.945  0.00  0.00    +0.000 HD
ENDROOT
BRANCH   3  11
ATOM     10  O4* UNL     1     -44.187 -53.806  33.665  0.00  0.00    +0.000 OA
ATOM     11  C1* UNL     1     -43.602 -52.600  33.262  0.00  0.00    +0.000 A 
ATOM     12  C3* UNL     1     -42.531 -53.223  35.175  0.00  0.00    +0.000 A 
ATOM     13  C2* UNL     1     -42.599 -52.232  34.181  0.00  0.00    +0.000 A 
ATOM     14  C4* UNL     1     -43.538 -54.200  34.842  0.00  0.00    +0.000 A 
BRANCH  12  15
ATOM     15  O3* UNL     1     -42.187 -52.984  36.476  0.00  0.00    +0.000 OA
ATOM     16  H3* UNL     1     -41.223 -53.036  36.597  0.00  0.00    +0.000 HD
ENDBRANCH  12  15
BRANCH  14  17
ATOM     17  C5* UNL     1     -44.000 -55.264  35.641  0.00  0.00    +0.000 C 
BRANCH  17  18
ATOM     18  O5* UNL     1     -44.438 -56.266  36.397  0.00  0.00    +0.000 OA
ATOM     19  H5* UNL     1     -43.714 -56.887  36.586  0.00  0.00    +0.000 HD
ENDBRANCH  17  18
ENDBRANCH  14  17
ENDBRANCH   3  11
BRANCH   7  23
ATOM     20  F   UNL     1     -47.642 -49.212  30.864  0.00  0.00    +0.000 F 
ATOM     21  F   UNL     1     -47.164 -49.331  32.979  0.00  0.00    +0.000 F 
ATOM     22  F   UNL     1     -46.116 -47.902  31.725  0.00  0.00    +0.000 F 
ATOM     23  C   UNL     1     -46.611 -49.164  31.745  0.00  0.00    +0.000 C 
ENDBRANCH   7  23
TORSDOF 5
ENDMDL
MODEL 7
REMARK VINA RESULT:      -5.4     27.273     29.307
REMARK  Name = 6256_Trifluridine.pdbqt.pdb
REMARK  5 active torsions:
REMARK  status: ('A' for Active; 'I' for Inactive)
REMARK    1  A    between atoms: N_3  and  C1*_11
REMARK    2  A    between atoms: C_7  and  C_23
REMARK    3  A    between atoms: C3*_12  and  O3*_15
REMARK    4  A    between atoms: C4*_14  and  C5*_17
REMARK    5  A    between atoms: C5*_17  and  O5*_18
REMARK                            x       y       z     vdW  Elec       q    Type
REMARK                         _______ _______ _______ _____ _____    ______ ____
ROOT
ATOM      1  O   UNL     1     -31.279 -59.398  43.167  0.00  0.00    +0.000 OA
ATOM      2  O   UNL     1     -30.996 -57.116  47.139  0.00  0.00    +0.000 OA
ATOM      3  N   UNL     1     -33.035 -59.667  44.734  0.00  0.00    +0.000 N 
ATOM      4  N   UNL     1     -31.198 -58.277  45.169  0.00  0.00    +0.000 N 
ATOM      5  C   UNL     1     -33.419 -59.258  45.959  0.00  0.00    +0.000 A 
ATOM      6  C   UNL     1     -31.811 -59.157  44.245  0.00  0.00    +0.000 A 
ATOM      7  C   UNL     1     -32.934 -58.474  46.866  0.00  0.00    +0.000 A 
ATOM      8  C   UNL     1     -31.639 -57.885  46.439  0.00  0.00    +0.000 A 
ATOM      9  H   UNL     1     -30.317 -57.885  44.867  0.00  0.00    +0.000 HD
ENDROOT
BRANCH   3  11
ATOM     10  O4* UNL     1     -34.864 -60.104  43.213  0.00  0.00    +0.000 OA
ATOM     11  C1* UNL     1     -33.828 -60.540  44.046  0.00  0.00    +0.000 A 
ATOM     12  C3* UNL     1     -34.809 -62.419  43.209  0.00  0.00    +0.000 A 
ATOM     13  C2* UNL     1     -33.793 -61.949  44.058  0.00  0.00    +0.000 A 
ATOM     14  C4* UNL     1     -35.477 -61.251  42.692  0.00  0.00    +0.000 A 
BRANCH  12  15
ATOM     15  O3* UNL     1     -35.487 -63.591  43.399  0.00  0.00    +0.000 OA
ATOM     16  H3* UNL     1     -35.042 -64.328  42.946  0.00  0.00    +0.000 HD
ENDBRANCH  12  15
BRANCH  14  17
ATOM     17  C5* UNL     1     -36.686 -61.202  41.972  0.00  0.00    +0.000 C 
BRANCH  17  18
ATOM     18  O5* UNL     1     -37.826 -61.157  41.289  0.00  0.00    +0.000 OA
ATOM     19  H5* UNL     1     -38.226 -60.273  41.359  0.00  0.00    +0.000 HD
ENDBRANCH  17  18
ENDBRANCH  14  17
ENDBRANCH   3  11
BRANCH   7  23
ATOM     20  F   UNL     1     -32.536 -58.305  49.176  0.00  0.00    +0.000 F 
ATOM     21  F   UNL     1     -33.831 -56.821  48.262  0.00  0.00    +0.000 F 
ATOM     22  F   UNL     1     -34.552 -58.851  48.527  0.00  0.00    +0.000 F 
ATOM     23  C   UNL     1     -33.455 -58.128  48.194  0.00  0.00    +0.000 C 
ENDBRANCH   7  23
TORSDOF 5
ENDMDL
MODEL 8
REMARK VINA RESULT:      -5.4     35.542     38.493
REMARK  Name = 6256_Trifluridine.pdbqt.pdb
REMARK  5 active torsions:
REMARK  status: ('A' for Active; 'I' for Inactive)
REMARK    1  A    between atoms: N_3  and  C1*_11
REMARK    2  A    between atoms: C_7  and  C_23
REMARK    3  A    between atoms: C3*_12  and  O3*_15
REMARK    4  A    between atoms: C4*_14  and  C5*_17
REMARK    5  A    between atoms: C5*_17  and  O5*_18
REMARK                            x       y       z     vdW  Elec       q    Type
REMARK                         _______ _______ _______ _____ _____    ______ ____
ROOT
ATOM      1  O   UNL     1     -44.967 -48.728  72.544  0.00  0.00    +0.000 OA
ATOM      2  O   UNL     1     -48.354 -50.410  69.944  0.00  0.00    +0.000 OA
ATOM      3  N   UNL     1     -45.724 -47.421  70.720  0.00  0.00    +0.000 N 
ATOM      4  N   UNL     1     -46.664 -49.513  71.211  0.00  0.00    +0.000 N 
ATOM      5  C   UNL     1     -46.624 -47.443  69.717  0.00  0.00    +0.000 A 
ATOM      6  C   UNL     1     -45.700 -48.542  71.580  0.00  0.00    +0.000 A 
ATOM      7  C   UNL     1     -47.527 -48.270  69.303  0.00  0.00    +0.000 A 
ATOM      8  C   UNL     1     -47.577 -49.488  70.150  0.00  0.00    +0.000 A 
ATOM      9  H   UNL     1     -46.686 -50.337  71.795  0.00  0.00    +0.000 HD
ENDROOT
BRANCH   3  11
ATOM     10  O4* UNL     1     -43.504 -46.472  70.857  0.00  0.00    +0.000 OA
ATOM     11  C1* UNL     1     -44.897 -46.342  70.848  0.00  0.00    +0.000 A 
ATOM     12  C3* UNL     1     -44.061 -44.240  71.120  0.00  0.00    +0.000 A 
ATOM     13  C2* UNL     1     -45.247 -44.988  71.018  0.00  0.00    +0.000 A 
ATOM     14  C4* UNL     1     -42.977 -45.185  71.025  0.00  0.00    +0.000 A 
BRANCH  12  15
ATOM     15  O3* UNL     1     -43.936 -43.098  71.861  0.00  0.00    +0.000 OA
ATOM     16  H3* UNL     1     -43.429 -42.423  71.378  0.00  0.00    +0.000 HD
ENDBRANCH  12  15
BRANCH  14  17
ATOM     17  C5* UNL     1     -41.612 -44.954  71.283  0.00  0.00    +0.000 C 
BRANCH  17  18
ATOM     18  O5* UNL     1     -40.322 -44.740  71.525  0.00  0.00    +0.000 OA
ATOM     19  H5* UNL     1     -39.782 -45.066  70.784  0.00  0.00    +0.000 HD
ENDBRANCH  17  18
ENDBRANCH  14  17
ENDBRANCH   3  11
BRANCH   7  23
ATOM     20  F   UNL     1     -48.233 -49.160  67.245  0.00  0.00    +0.000 F 
ATOM     21  F   UNL     1     -49.742 -48.290  68.541  0.00  0.00    +0.000 F 
ATOM     22  F   UNL     1     -48.343 -46.990  67.508  0.00  0.00    +0.000 F 
ATOM     23  C   UNL     1     -48.440 -48.177  68.157  0.00  0.00    +0.000 C 
ENDBRANCH   7  23
TORSDOF 5
ENDMDL
MODEL 9
REMARK VINA RESULT:      -5.3      4.293      5.772
REMARK  Name = 6256_Trifluridine.pdbqt.pdb
REMARK  5 active torsions:
REMARK  status: ('A' for Active; 'I' for Inactive)
REMARK    1  A    between atoms: N_3  and  C1*_11
REMARK    2  A    between atoms: C_7  and  C_23
REMARK    3  A    between atoms: C3*_12  and  O3*_15
REMARK    4  A    between atoms: C4*_14  and  C5*_17
REMARK    5  A    between atoms: C5*_17  and  O5*_18
REMARK                            x       y       z     vdW  Elec       q    Type
REMARK                         _______ _______ _______ _____ _____    ______ ____
ROOT
ATOM      1  O   UNL     1     -64.159 -68.849  41.662  0.00  0.00    +0.000 OA
ATOM      2  O   UNL     1     -60.094 -70.759  42.604  0.00  0.00    +0.000 OA
ATOM      3  N   UNL     1     -62.226 -67.897  40.678  0.00  0.00    +0.000 N 
ATOM      4  N   UNL     1     -62.097 -69.765  42.090  0.00  0.00    +0.000 N 
ATOM      5  C   UNL     1     -60.889 -68.056  40.627  0.00  0.00    +0.000 A 
ATOM      6  C   UNL     1     -62.948 -68.814  41.475  0.00  0.00    +0.000 A 
ATOM      7  C   UNL     1     -60.036 -68.876  41.146  0.00  0.00    +0.000 A 
ATOM      8  C   UNL     1     -60.705 -69.885  42.006  0.00  0.00    +0.000 A 
ATOM      9  H   UNL     1     -62.566 -70.443  42.673  0.00  0.00    +0.000 HD
ENDROOT
BRANCH   3  11
ATOM     10  O4* UNL     1     -63.065 -66.971  38.607  0.00  0.00    +0.000 OA
ATOM     11  C1* UNL     1     -62.802 -66.876  39.978  0.00  0.00    +0.000 A 
ATOM     12  C3* UNL     1     -63.719 -64.882  39.363  0.00  0.00    +0.000 A 
ATOM     13  C2* UNL     1     -63.187 -65.604  40.446  0.00  0.00    +0.000 A 
ATOM     14  C4* UNL     1     -63.629 -65.749  38.216  0.00  0.00    +0.000 A 
BRANCH  12  15
ATOM     15  O3* UNL     1     -63.630 -63.525  39.228  0.00  0.00    +0.000 OA
ATOM     16  H3* UNL     1     -64.256 -63.074  39.821  0.00  0.00    +0.000 HD
ENDBRANCH  12  15
BRANCH  14  17
ATOM     17  C5* UNL     1     -63.835 -65.410  36.864  0.00  0.00    +0.000 C 
BRANCH  17  18
ATOM     18  O5* UNL     1     -64.027 -65.092  35.587  0.00  0.00    +0.000 OA
ATOM     19  H5* UNL     1     -64.208 -64.140  35.501  0.00  0.00    +0.000 HD
ENDBRANCH  17  18
ENDBRANCH  14  17
ENDBRANCH   3  11
BRANCH   7  23
ATOM     20  F   UNL     1     -58.074 -67.863  40.338  0.00  0.00    +0.000 F 
ATOM     21  F   UNL     1     -57.965 -68.903  42.242  0.00  0.00    +0.000 F 
ATOM     22  F   UNL     1     -58.139 -70.049  40.406  0.00  0.00    +0.000 F 
ATOM     23  C   UNL     1     -58.573 -68.923  41.023  0.00  0.00    +0.000 C 
ENDBRANCH   7  23
TORSDOF 5
ENDMDL
