REMARK  Name = 6323266_Tipiracil.pdbqt.pdb
REMARK  2 active torsions:
REMARK  status: ('A' for Active; 'I' for Inactive)
REMARK    1  A    between atoms: C_6  and  C_12
REMARK    2  A    between atoms: C_12  and  N_13
REMARK                            x       y       z     vdW  Elec       q    Type
REMARK                         _______ _______ _______ _____ _____    ______ ____
ROOT
ATOM      1 CL   UNL     1       0.998   2.764  -0.232  0.00  0.00    +0.000 Cl
ATOM      2  O   UNL     1       3.761   1.724   0.325  0.00  0.00    +0.000 OA
ATOM      3  O   UNL     1       2.785  -2.699   0.303  0.00  0.00    +0.000 OA
ATOM      4  N   UNL     1       1.109  -1.214  -0.066  0.00  0.00    +0.000 N 
ATOM      5  N   UNL     1       3.266  -0.483   0.302  0.00  0.00    +0.000 N 
ATOM      6  C   UNL     1       0.655   0.073  -0.201  0.00  0.00    +0.000 A 
ATOM      7  C   UNL     1       1.484   1.119  -0.085  0.00  0.00    +0.000 A 
ATOM      8  C   UNL     1       2.921   0.839   0.194  0.00  0.00    +0.000 A 
ATOM      9  C   UNL     1       2.410  -1.538   0.186  0.00  0.00    +0.000 A 
ATOM     10  H   UNL     1       0.458  -1.991  -0.155  0.00  0.00    +0.000 HD
ATOM     11  H   UNL     1       4.235  -0.695   0.491  0.00  0.00    +0.000 HD
ENDROOT
BRANCH   6  12
ATOM     12  C   UNL     1      -0.735   0.207  -0.465  0.00  0.00    +0.000 C 
BRANCH  12  13
ATOM     13  N   UNL     1      -2.160   0.215  -0.732  0.00  0.00    +0.000 N 
ATOM     14  N   UNL     1      -2.613  -2.152  -0.194  0.00  0.00    +0.000 NA
ATOM     15  C   UNL     1      -2.954   1.303  -0.161  0.00  0.00    +0.000 C 
ATOM     16  C   UNL     1      -4.265   1.089   0.587  0.00  0.00    +0.000 C 
ATOM     17  C   UNL     1      -4.047  -0.412   0.391  0.00  0.00    +0.000 C 
ATOM     18  C   UNL     1      -2.847  -0.895  -0.257  0.00  0.00    +0.000 C 
ATOM     19  H   UNL     1      -3.381  -2.642   0.279  0.00  0.00    +0.000 HD
ENDBRANCH  12  13
ENDBRANCH   6  12
TORSDOF 2
