MODEL 1
REMARK VINA RESULT:      -6.5      0.000      0.000
REMARK  Name = 6323266_Tipiracil.pdbqt.pdb
REMARK  2 active torsions:
REMARK  status: ('A' for Active; 'I' for Inactive)
REMARK    1  A    between atoms: C_6  and  C_12
REMARK    2  A    between atoms: C_12  and  N_13
REMARK                            x       y       z     vdW  Elec       q    Type
REMARK                         _______ _______ _______ _____ _____    ______ ____
ROOT
ATOM      1 CL   UNL     1     -59.171 -63.496  40.499  0.00  0.00    +0.000 Cl
ATOM      2  O   UNL     1     -57.943 -61.427  42.297  0.00  0.00    +0.000 OA
ATOM      3  O   UNL     1     -61.392 -60.989  45.201  0.00  0.00    +0.000 OA
ATOM      4  N   UNL     1     -61.599 -62.452  43.479  0.00  0.00    +0.000 N 
ATOM      5  N   UNL     1     -59.666 -61.222  43.748  0.00  0.00    +0.000 N 
ATOM      6  C   UNL     1     -61.098 -63.067  42.360  0.00  0.00    +0.000 A 
ATOM      7  C   UNL     1     -59.874 -62.779  41.897  0.00  0.00    +0.000 A 
ATOM      8  C   UNL     1     -59.071 -61.767  42.640  0.00  0.00    +0.000 A 
ATOM      9  C   UNL     1     -60.915 -61.522  44.205  0.00  0.00    +0.000 A 
ATOM     10  H   UNL     1     -62.533 -62.686  43.808  0.00  0.00    +0.000 HD
ATOM     11  H   UNL     1     -59.139 -60.534  44.266  0.00  0.00    +0.000 HD
ENDROOT
BRANCH   6  12
ATOM     12  C   UNL     1     -61.961 -64.012  41.742  0.00  0.00    +0.000 C 
BRANCH  12  13
ATOM     13  N   UNL     1     -62.827 -64.909  41.003  0.00  0.00    +0.000 N 
ATOM     14  N   UNL     1     -64.408 -63.215  40.147  0.00  0.00    +0.000 NA
ATOM     15  C   UNL     1     -62.197 -65.892  40.122  0.00  0.00    +0.000 C 
ATOM     16  C   UNL     1     -62.635 -66.141  38.683  0.00  0.00    +0.000 C 
ATOM     17  C   UNL     1     -63.653 -65.016  38.876  0.00  0.00    +0.000 C 
ATOM     18  C   UNL     1     -63.699 -64.281  40.121  0.00  0.00    +0.000 C 
ATOM     19  H   UNL     1     -64.896 -63.082  39.254  0.00  0.00    +0.000 HD
ENDBRANCH  12  13
ENDBRANCH   6  12
TORSDOF 2
ENDMDL
MODEL 2
REMARK VINA RESULT:      -5.9      3.405      6.009
REMARK  Name = 6323266_Tipiracil.pdbqt.pdb
REMARK  2 active torsions:
REMARK  status: ('A' for Active; 'I' for Inactive)
REMARK    1  A    between atoms: C_6  and  C_12
REMARK    2  A    between atoms: C_12  and  N_13
REMARK                            x       y       z     vdW  Elec       q    Type
REMARK                         _______ _______ _______ _____ _____    ______ ____
ROOT
ATOM      1 CL   UNL     1     -63.374 -64.751  43.776  0.00  0.00    +0.000 Cl
ATOM      2  O   UNL     1     -65.243 -66.245  41.960  0.00  0.00    +0.000 OA
ATOM      3  O   UNL     1     -62.719 -66.100  38.201  0.00  0.00    +0.000 OA
ATOM      4  N   UNL     1     -61.918 -65.125  40.088  0.00  0.00    +0.000 N 
ATOM      5  N   UNL     1     -63.971 -66.177  40.090  0.00  0.00    +0.000 N 
ATOM      6  C   UNL     1     -62.043 -64.793  41.412  0.00  0.00    +0.000 A 
ATOM      7  C   UNL     1     -63.132 -65.134  42.115  0.00  0.00    +0.000 A 
ATOM      8  C   UNL     1     -64.205 -65.891  41.410  0.00  0.00    +0.000 A 
ATOM      9  C   UNL     1     -62.860 -65.819  39.386  0.00  0.00    +0.000 A 
ATOM     10  H   UNL     1     -61.083 -64.851  39.575  0.00  0.00    +0.000 HD
ATOM     11  H   UNL     1     -64.686 -66.689  39.594  0.00  0.00    +0.000 HD
ENDROOT
BRANCH   6  12
ATOM     12  C   UNL     1     -60.953 -64.070  41.968  0.00  0.00    +0.000 C 
BRANCH  12  13
ATOM     13  N   UNL     1     -59.898 -63.226  42.494  0.00  0.00    +0.000 N 
ATOM     14  N   UNL     1     -58.406 -63.291  40.528  0.00  0.00    +0.000 NA
ATOM     15  C   UNL     1     -60.287 -61.966  43.128  0.00  0.00    +0.000 C 
ATOM     16  C   UNL     1     -59.626 -60.627  42.821  0.00  0.00    +0.000 C 
ATOM     17  C   UNL     1     -58.774 -61.368  41.789  0.00  0.00    +0.000 C 
ATOM     18  C   UNL     1     -58.985 -62.779  41.548  0.00  0.00    +0.000 C 
ATOM     19  H   UNL     1     -57.813 -62.597  40.059  0.00  0.00    +0.000 HD
ENDBRANCH  12  13
ENDBRANCH   6  12
TORSDOF 2
ENDMDL
MODEL 3
REMARK VINA RESULT:      -5.5     26.620     27.683
REMARK  Name = 6323266_Tipiracil.pdbqt.pdb
REMARK  2 active torsions:
REMARK  status: ('A' for Active; 'I' for Inactive)
REMARK    1  A    between atoms: C_6  and  C_12
REMARK    2  A    between atoms: C_12  and  N_13
REMARK                            x       y       z     vdW  Elec       q    Type
REMARK                         _______ _______ _______ _____ _____    ______ ____
ROOT
ATOM      1 CL   UNL     1     -32.199 -58.241  45.971  0.00  0.00    +0.000 Cl
ATOM      2  O   UNL     1     -33.097 -57.032  48.571  0.00  0.00    +0.000 OA
ATOM      3  O   UNL     1     -36.399 -59.981  49.528  0.00  0.00    +0.000 OA
ATOM      4  N   UNL     1     -35.209 -60.264  47.617  0.00  0.00    +0.000 N 
ATOM      5  N   UNL     1     -34.738 -58.515  49.046  0.00  0.00    +0.000 N 
ATOM      6  C   UNL     1     -34.217 -59.877  46.753  0.00  0.00    +0.000 A 
ATOM      7  C   UNL     1     -33.459 -58.801  47.002  0.00  0.00    +0.000 A 
ATOM      8  C   UNL     1     -33.728 -58.035  48.253  0.00  0.00    +0.000 A 
ATOM      9  C   UNL     1     -35.504 -59.611  48.777  0.00  0.00    +0.000 A 
ATOM     10  H   UNL     1     -35.773 -61.084  47.403  0.00  0.00    +0.000 HD
ATOM     11  H   UNL     1     -34.937 -58.012  49.898  0.00  0.00    +0.000 HD
ENDROOT
BRANCH   6  12
ATOM     12  C   UNL     1     -34.060 -60.689  45.597  0.00  0.00    +0.000 C 
BRANCH  12  13
ATOM     13  N   UNL     1     -33.773 -61.507  44.436  0.00  0.00    +0.000 N 
ATOM     14  N   UNL     1     -35.750 -62.981  44.570  0.00  0.00    +0.000 NA
ATOM     15  C   UNL     1     -33.401 -60.825  43.196  0.00  0.00    +0.000 C 
ATOM     16  C   UNL     1     -34.013 -61.148  41.838  0.00  0.00    +0.000 C 
ATOM     17  C   UNL     1     -34.905 -62.157  42.562  0.00  0.00    +0.000 C 
ATOM     18  C   UNL     1     -34.834 -62.292  44.001  0.00  0.00    +0.000 C 
ATOM     19  H   UNL     1     -36.382 -63.392  43.874  0.00  0.00    +0.000 HD
ENDBRANCH  12  13
ENDBRANCH   6  12
TORSDOF 2
ENDMDL
MODEL 4
REMARK VINA RESULT:      -5.4      4.199      6.583
REMARK  Name = 6323266_Tipiracil.pdbqt.pdb
REMARK  2 active torsions:
REMARK  status: ('A' for Active; 'I' for Inactive)
REMARK    1  A    between atoms: C_6  and  C_12
REMARK    2  A    between atoms: C_12  and  N_13
REMARK                            x       y       z     vdW  Elec       q    Type
REMARK                         _______ _______ _______ _____ _____    ______ ____
ROOT
ATOM      1 CL   UNL     1     -65.114 -67.348  42.300  0.00  0.00    +0.000 Cl
ATOM      2  O   UNL     1     -65.938 -68.063  39.501  0.00  0.00    +0.000 OA
ATOM      3  O   UNL     1     -63.485 -64.951  37.308  0.00  0.00    +0.000 OA
ATOM      4  N   UNL     1     -63.370 -65.027  39.573  0.00  0.00    +0.000 N 
ATOM      5  N   UNL     1     -64.701 -66.512  38.414  0.00  0.00    +0.000 N 
ATOM      6  C   UNL     1     -63.737 -65.577  40.775  0.00  0.00    +0.000 A 
ATOM      7  C   UNL     1     -64.596 -66.603  40.837  0.00  0.00    +0.000 A 
ATOM      8  C   UNL     1     -65.141 -67.132  39.555  0.00  0.00    +0.000 A 
ATOM      9  C   UNL     1     -63.830 -65.465  38.366  0.00  0.00    +0.000 A 
ATOM     10  H   UNL     1     -62.719 -64.245  39.554  0.00  0.00    +0.000 HD
ATOM     11  H   UNL     1     -65.059 -66.855  37.534  0.00  0.00    +0.000 HD
ENDROOT
BRANCH   6  12
ATOM     12  C   UNL     1     -63.148 -64.984  41.924  0.00  0.00    +0.000 C 
BRANCH  12  13
ATOM     13  N   UNL     1     -62.511 -64.497  43.132  0.00  0.00    +0.000 N 
ATOM     14  N   UNL     1     -60.230 -64.233  42.223  0.00  0.00    +0.000 NA
ATOM     15  C   UNL     1     -63.178 -63.423  43.869  0.00  0.00    +0.000 C 
ATOM     16  C   UNL     1     -62.464 -62.172  44.368  0.00  0.00    +0.000 C 
ATOM     17  C   UNL     1     -61.202 -62.713  43.696  0.00  0.00    +0.000 C 
ATOM     18  C   UNL     1     -61.249 -63.947  42.943  0.00  0.00    +0.000 C 
ATOM     19  H   UNL     1     -59.488 -63.535  42.348  0.00  0.00    +0.000 HD
ENDBRANCH  12  13
ENDBRANCH   6  12
TORSDOF 2
ENDMDL
MODEL 5
REMARK VINA RESULT:      -4.9     33.470     35.655
REMARK  Name = 6323266_Tipiracil.pdbqt.pdb
REMARK  2 active torsions:
REMARK  status: ('A' for Active; 'I' for Inactive)
REMARK    1  A    between atoms: C_6  and  C_12
REMARK    2  A    between atoms: C_12  and  N_13
REMARK                            x       y       z     vdW  Elec       q    Type
REMARK                         _______ _______ _______ _____ _____    ______ ____
ROOT
ATOM      1 CL   UNL     1     -46.097 -43.411  69.304  0.00  0.00    +0.000 Cl
ATOM      2  O   UNL     1     -43.742 -44.050  71.057  0.00  0.00    +0.000 OA
ATOM      3  O   UNL     1     -44.237 -48.551  71.159  0.00  0.00    +0.000 OA
ATOM      4  N   UNL     1     -45.725 -47.321  69.967  0.00  0.00    +0.000 N 
ATOM      5  N   UNL     1     -43.991 -46.298  71.094  0.00  0.00    +0.000 N 
ATOM      6  C   UNL     1     -46.190 -46.115  69.508  0.00  0.00    +0.000 A 
ATOM      7  C   UNL     1     -45.578 -44.967  69.828  0.00  0.00    +0.000 A 
ATOM      8  C   UNL     1     -44.371 -45.042  70.700  0.00  0.00    +0.000 A 
ATOM      9  C   UNL     1     -44.627 -47.459  70.764  0.00  0.00    +0.000 A 
ATOM     10  H   UNL     1     -46.210 -48.179  69.712  0.00  0.00    +0.000 HD
ATOM     11  H   UNL     1     -43.176 -46.372  71.685  0.00  0.00    +0.000 HD
ENDROOT
BRANCH   6  12
ATOM     12  C   UNL     1     -47.347 -46.177  68.687  0.00  0.00    +0.000 C 
BRANCH  12  13
ATOM     13  N   UNL     1     -48.522 -46.369  67.859  0.00  0.00    +0.000 N 
ATOM     14  N   UNL     1     -48.402 -48.829  67.675  0.00  0.00    +0.000 NA
ATOM     15  C   UNL     1     -49.753 -45.683  68.254  0.00  0.00    +0.000 C 
ATOM     16  C   UNL     1     -51.113 -46.366  68.330  0.00  0.00    +0.000 C 
ATOM     17  C   UNL     1     -50.401 -47.664  67.947  0.00  0.00    +0.000 C 
ATOM     18  C   UNL     1     -48.965 -47.683  67.774  0.00  0.00    +0.000 C 
ATOM     19  H   UNL     1     -49.102 -49.580  67.678  0.00  0.00    +0.000 HD
ENDBRANCH  12  13
ENDBRANCH   6  12
TORSDOF 2
ENDMDL
MODEL 6
REMARK VINA RESULT:      -4.9     25.299     26.492
REMARK  Name = 6323266_Tipiracil.pdbqt.pdb
REMARK  2 active torsions:
REMARK  status: ('A' for Active; 'I' for Inactive)
REMARK    1  A    between atoms: C_6  and  C_12
REMARK    2  A    between atoms: C_12  and  N_13
REMARK                            x       y       z     vdW  Elec       q    Type
REMARK                         _______ _______ _______ _____ _____    ______ ____
ROOT
ATOM      1 CL   UNL     1     -34.166 -64.040  41.898  0.00  0.00    +0.000 Cl
ATOM      2  O   UNL     1     -33.138 -64.961  44.567  0.00  0.00    +0.000 OA
ATOM      3  O   UNL     1     -34.911 -61.652  47.100  0.00  0.00    +0.000 OA
ATOM      4  N   UNL     1     -35.284 -61.625  44.862  0.00  0.00    +0.000 N 
ATOM      5  N   UNL     1     -34.036 -63.310  45.825  0.00  0.00    +0.000 N 
ATOM      6  C   UNL     1     -35.127 -62.171  43.613  0.00  0.00    +0.000 A 
ATOM      7  C   UNL     1     -34.420 -63.293  43.428  0.00  0.00    +0.000 A 
ATOM      8  C   UNL     1     -33.809 -63.935  44.627  0.00  0.00    +0.000 A 
ATOM      9  C   UNL     1     -34.755 -62.164  45.998  0.00  0.00    +0.000 A 
ATOM     10  H   UNL     1     -35.823 -60.770  44.975  0.00  0.00    +0.000 HD
ATOM     11  H   UNL     1     -33.631 -63.728  46.650  0.00  0.00    +0.000 HD
ENDROOT
BRANCH   6  12
ATOM     12  C   UNL     1     -35.757 -61.464  42.553  0.00  0.00    +0.000 C 
BRANCH  12  13
ATOM     13  N   UNL     1     -36.505 -60.738  41.546  0.00  0.00    +0.000 N 
ATOM     14  N   UNL     1     -35.148 -58.675  41.545  0.00  0.00    +0.000 NA
ATOM     15  C   UNL     1     -36.842 -61.442  40.309  0.00  0.00    +0.000 C 
ATOM     16  C   UNL     1     -36.628 -60.855  38.918  0.00  0.00    +0.000 C 
ATOM     17  C   UNL     1     -36.012 -59.636  39.607  0.00  0.00    +0.000 C 
ATOM     18  C   UNL     1     -35.866 -59.611  41.047  0.00  0.00    +0.000 C 
ATOM     19  H   UNL     1     -34.826 -58.033  40.812  0.00  0.00    +0.000 HD
ENDBRANCH  12  13
ENDBRANCH   6  12
TORSDOF 2
ENDMDL
MODEL 7
REMARK VINA RESULT:      -4.7     23.224     24.799
REMARK  Name = 6323266_Tipiracil.pdbqt.pdb
REMARK  2 active torsions:
REMARK  status: ('A' for Active; 'I' for Inactive)
REMARK    1  A    between atoms: C_6  and  C_12
REMARK    2  A    between atoms: C_12  and  N_13
REMARK                            x       y       z     vdW  Elec       q    Type
REMARK                         _______ _______ _______ _____ _____    ______ ____
ROOT
ATOM      1 CL   UNL     1     -64.807 -43.237  53.699  0.00  0.00    +0.000 Cl
ATOM      2  O   UNL     1     -63.775 -41.591  55.990  0.00  0.00    +0.000 OA
ATOM      3  O   UNL     1     -62.524 -37.935  53.627  0.00  0.00    +0.000 OA
ATOM      4  N   UNL     1     -63.438 -39.689  52.514  0.00  0.00    +0.000 N 
ATOM      5  N   UNL     1     -63.162 -39.766  54.803  0.00  0.00    +0.000 N 
ATOM      6  C   UNL     1     -63.987 -40.946  52.499  0.00  0.00    +0.000 A 
ATOM      7  C   UNL     1     -64.136 -41.653  53.627  0.00  0.00    +0.000 A 
ATOM      8  C   UNL     1     -63.689 -41.027  54.904  0.00  0.00    +0.000 A 
ATOM      9  C   UNL     1     -63.012 -39.059  53.646  0.00  0.00    +0.000 A 
ATOM     10  H   UNL     1     -63.332 -39.174  51.642  0.00  0.00    +0.000 HD
ATOM     11  H   UNL     1     -62.853 -39.323  55.656  0.00  0.00    +0.000 HD
ENDROOT
BRANCH   6  12
ATOM     12  C   UNL     1     -64.373 -41.430  51.220  0.00  0.00    +0.000 C 
BRANCH  12  13
ATOM     13  N   UNL     1     -64.847 -41.823  49.908  0.00  0.00    +0.000 N 
ATOM     14  N   UNL     1     -66.491 -43.514  50.641  0.00  0.00    +0.000 NA
ATOM     15  C   UNL     1     -65.199 -40.762  48.964  0.00  0.00    +0.000 C 
ATOM     16  C   UNL     1     -66.491 -40.745  48.156  0.00  0.00    +0.000 C 
ATOM     17  C   UNL     1     -66.880 -42.030  48.888  0.00  0.00    +0.000 C 
ATOM     18  C   UNL     1     -66.016 -42.574  49.913  0.00  0.00    +0.000 C 
ATOM     19  H   UNL     1     -67.431 -43.779  50.325  0.00  0.00    +0.000 HD
ENDBRANCH  12  13
ENDBRANCH   6  12
TORSDOF 2
ENDMDL
MODEL 8
REMARK VINA RESULT:      -4.6     12.261     13.440
REMARK  Name = 6323266_Tipiracil.pdbqt.pdb
REMARK  2 active torsions:
REMARK  status: ('A' for Active; 'I' for Inactive)
REMARK    1  A    between atoms: C_6  and  C_12
REMARK    2  A    between atoms: C_12  and  N_13
REMARK                            x       y       z     vdW  Elec       q    Type
REMARK                         _______ _______ _______ _____ _____    ______ ____
ROOT
ATOM      1 CL   UNL     1     -62.262 -74.708  47.675  0.00  0.00    +0.000 Cl
ATOM      2  O   UNL     1     -62.745 -72.935  45.299  0.00  0.00    +0.000 OA
ATOM      3  O   UNL     1     -58.499 -71.458  44.744  0.00  0.00    +0.000 OA
ATOM      4  N   UNL     1     -58.933 -72.908  46.434  0.00  0.00    +0.000 N 
ATOM      5  N   UNL     1     -60.620 -72.211  45.023  0.00  0.00    +0.000 N 
ATOM      6  C   UNL     1     -59.803 -73.692  47.148  0.00  0.00    +0.000 A 
ATOM      7  C   UNL     1     -61.102 -73.758  46.830  0.00  0.00    +0.000 A 
ATOM      8  C   UNL     1     -61.575 -72.951  45.669  0.00  0.00    +0.000 A 
ATOM      9  C   UNL     1     -59.300 -72.150  45.361  0.00  0.00    +0.000 A 
ATOM     10  H   UNL     1     -57.951 -72.873  46.699  0.00  0.00    +0.000 HD
ATOM     11  H   UNL     1     -60.919 -71.656  44.233  0.00  0.00    +0.000 HD
ENDROOT
BRANCH   6  12
ATOM     12  C   UNL     1     -59.230 -74.412  48.231  0.00  0.00    +0.000 C 
BRANCH  12  13
ATOM     13  N   UNL     1     -58.709 -75.249  49.294  0.00  0.00    +0.000 N 
ATOM     14  N   UNL     1     -56.427 -74.310  49.371  0.00  0.00    +0.000 NA
ATOM     15  C   UNL     1     -59.523 -75.402  50.501  0.00  0.00    +0.000 C 
ATOM     16  C   UNL     1     -58.972 -75.256  51.915  0.00  0.00    +0.000 C 
ATOM     17  C   UNL     1     -57.627 -74.908  51.276  0.00  0.00    +0.000 C 
ATOM     18  C   UNL     1     -57.505 -74.819  49.837  0.00  0.00    +0.000 C 
ATOM     19  H   UNL     1     -55.770 -74.092  50.129  0.00  0.00    +0.000 HD
ENDBRANCH  12  13
ENDBRANCH   6  12
TORSDOF 2
ENDMDL
MODEL 9
REMARK VINA RESULT:      -4.5     15.271     15.881
REMARK  Name = 6323266_Tipiracil.pdbqt.pdb
REMARK  2 active torsions:
REMARK  status: ('A' for Active; 'I' for Inactive)
REMARK    1  A    between atoms: C_6  and  C_12
REMARK    2  A    between atoms: C_12  and  N_13
REMARK                            x       y       z     vdW  Elec       q    Type
REMARK                         _______ _______ _______ _____ _____    ______ ____
ROOT
ATOM      1 CL   UNL     1     -44.480 -60.605  36.597  0.00  0.00    +0.000 Cl
ATOM      2  O   UNL     1     -43.161 -61.261  39.216  0.00  0.00    +0.000 OA
ATOM      3  O   UNL     1     -46.474 -63.802  40.971  0.00  0.00    +0.000 OA
ATOM      4  N   UNL     1     -46.766 -62.910  38.905  0.00  0.00    +0.000 N 
ATOM      5  N   UNL     1     -44.816 -62.537  40.080  0.00  0.00    +0.000 N 
ATOM      6  C   UNL     1     -46.319 -62.159  37.848  0.00  0.00    +0.000 A 
ATOM      7  C   UNL     1     -45.115 -61.570  37.874  0.00  0.00    +0.000 A 
ATOM      8  C   UNL     1     -44.274 -61.761  39.089  0.00  0.00    +0.000 A 
ATOM      9  C   UNL     1     -46.046 -63.126  40.043  0.00  0.00    +0.000 A 
ATOM     10  H   UNL     1     -47.686 -63.344  38.862  0.00  0.00    +0.000 HD
ATOM     11  H   UNL     1     -44.263 -62.679  40.912  0.00  0.00    +0.000 HD
ENDROOT
BRANCH   6  12
ATOM     12  C   UNL     1     -47.214 -62.053  36.750  0.00  0.00    +0.000 C 
BRANCH  12  13
ATOM     13  N   UNL     1     -48.041 -62.010  35.560  0.00  0.00    +0.000 N 
ATOM     14  N   UNL     1     -48.384 -59.566  35.480  0.00  0.00    +0.000 NA
ATOM     15  C   UNL     1     -47.592 -62.765  34.390  0.00  0.00    +0.000 C 
ATOM     16  C   UNL     1     -47.546 -62.190  32.979  0.00  0.00    +0.000 C 
ATOM     17  C   UNL     1     -48.019 -60.867  33.583  0.00  0.00    +0.000 C 
ATOM     18  C   UNL     1     -48.207 -60.744  35.012  0.00  0.00    +0.000 C 
ATOM     19  H   UNL     1     -48.423 -58.875  34.722  0.00  0.00    +0.000 HD
ENDBRANCH  12  13
ENDBRANCH   6  12
TORSDOF 2
ENDMDL
