MODEL 1
REMARK VINA RESULT:      -6.0      0.000      0.000
REMARK  Name = 6325056_Deoxyelephantopin.pdbqt.pdb
REMARK  3 active torsions:
REMARK  status: ('A' for Active; 'I' for Inactive)
REMARK    1  A    between atoms: C_6  and  O_20
REMARK    2  A    between atoms: O_20  and  C_22
REMARK    3  A    between atoms: C_22  and  C_23
REMARK                            x       y       z     vdW  Elec       q    Type
REMARK                         _______ _______ _______ _____ _____    ______ ____
ROOT
ATOM      1  O   UNL     1     -39.867 -40.850  49.053  0.00  0.00    +0.000 OA
ATOM      2  O   UNL     1     -34.483 -40.293  52.690  0.00  0.00    +0.000 OA
ATOM      3  O   UNL     1     -41.157 -42.060  47.587  0.00  0.00    +0.000 OA
ATOM      4  O   UNL     1     -34.333 -42.581  53.052  0.00  0.00    +0.000 OA
ATOM      5  C   UNL     1     -38.169 -42.432  49.482  0.00  0.00    +0.000 C 
ATOM      6  C   UNL     1     -37.003 -43.101  50.062  0.00  0.00    +0.000 C 
ATOM      7  C   UNL     1     -38.680 -41.101  49.753  0.00  0.00    +0.000 C 
ATOM      8  C   UNL     1     -35.790 -42.432  50.370  0.00  0.00    +0.000 C 
ATOM      9  C   UNL     1     -39.124 -42.991  48.549  0.00  0.00    +0.000 C 
ATOM     10  C   UNL     1     -34.653 -41.690  50.820  0.00  0.00    +0.000 C 
ATOM     11  C   UNL     1     -38.116 -40.058  50.525  0.00  0.00    +0.000 C 
ATOM     12  C   UNL     1     -34.799 -39.576  51.517  0.00  0.00    +0.000 C 
ATOM     13  C   UNL     1     -36.115 -39.025  51.499  0.00  0.00    +0.000 C 
ATOM     14  C   UNL     1     -37.504 -38.985  51.237  0.00  0.00    +0.000 C 
ATOM     15  C   UNL     1     -34.470 -40.364  50.396  0.00  0.00    +0.000 C 
ATOM     16  C   UNL     1     -40.180 -41.971  48.310  0.00  0.00    +0.000 C 
ATOM     17  C   UNL     1     -34.434 -41.625  52.304  0.00  0.00    +0.000 C 
ATOM     18  C   UNL     1     -39.046 -44.178  47.937  0.00  0.00    +0.000 C 
ATOM     19  C   UNL     1     -38.266 -37.720  51.463  0.00  0.00    +0.000 C 
ENDROOT
BRANCH   6  20
ATOM     20  O   UNL     1     -36.950 -44.505  50.099  0.00  0.00    +0.000 OA
BRANCH  20  22
ATOM     21  O   UNL     1     -37.711 -44.873  52.240  0.00  0.00    +0.000 OA
ATOM     22  C   UNL     1     -36.875 -45.057  51.359  0.00  0.00    +0.000 C 
BRANCH  22  23
ATOM     23  C   UNL     1     -35.636 -45.910  51.475  0.00  0.00    +0.000 C 
ATOM     24  C   UNL     1     -35.368 -46.827  52.657  0.00  0.00    +0.000 C 
ATOM     25  C   UNL     1     -34.717 -45.957  50.503  0.00  0.00    +0.000 C 
ENDBRANCH  22  23
ENDBRANCH  20  22
ENDBRANCH   6  20
TORSDOF 3
ENDMDL
MODEL 2
REMARK VINA RESULT:      -5.9     19.958     23.497
REMARK  Name = 6325056_Deoxyelephantopin.pdbqt.pdb
REMARK  3 active torsions:
REMARK  status: ('A' for Active; 'I' for Inactive)
REMARK    1  A    between atoms: C_6  and  O_20
REMARK    2  A    between atoms: O_20  and  C_22
REMARK    3  A    between atoms: C_22  and  C_23
REMARK                            x       y       z     vdW  Elec       q    Type
REMARK                         _______ _______ _______ _____ _____    ______ ____
ROOT
ATOM      1  O   UNL     1     -55.059 -42.174  33.271  0.00  0.00    +0.000 OA
ATOM      2  O   UNL     1     -52.422 -41.301  39.172  0.00  0.00    +0.000 OA
ATOM      3  O   UNL     1     -56.907 -42.209  31.907  0.00  0.00    +0.000 OA
ATOM      4  O   UNL     1     -54.022 -39.739  39.800  0.00  0.00    +0.000 OA
ATOM      5  C   UNL     1     -56.060 -41.422  35.273  0.00  0.00    +0.000 C 
ATOM      6  C   UNL     1     -56.243 -40.932  36.639  0.00  0.00    +0.000 C 
ATOM      7  C   UNL     1     -54.836 -41.841  34.614  0.00  0.00    +0.000 C 
ATOM      8  C   UNL     1     -55.527 -41.440  37.755  0.00  0.00    +0.000 C 
ATOM      9  C   UNL     1     -57.068 -41.529  34.239  0.00  0.00    +0.000 C 
ATOM     10  C   UNL     1     -54.667 -41.861  38.818  0.00  0.00    +0.000 C 
ATOM     11  C   UNL     1     -53.540 -42.024  35.151  0.00  0.00    +0.000 C 
ATOM     12  C   UNL     1     -52.564 -42.517  38.471  0.00  0.00    +0.000 C 
ATOM     13  C   UNL     1     -52.133 -42.468  37.112  0.00  0.00    +0.000 C 
ATOM     14  C   UNL     1     -52.257 -42.286  35.715  0.00  0.00    +0.000 C 
ATOM     15  C   UNL     1     -53.872 -43.006  38.662  0.00  0.00    +0.000 C 
ATOM     16  C   UNL     1     -56.399 -41.996  32.995  0.00  0.00    +0.000 C 
ATOM     17  C   UNL     1     -53.715 -40.834  39.362  0.00  0.00    +0.000 C 
ATOM     18  C   UNL     1     -58.383 -41.326  34.379  0.00  0.00    +0.000 C 
ATOM     19  C   UNL     1     -51.112 -42.627  34.817  0.00  0.00    +0.000 C 
ENDROOT
BRANCH   6  20
ATOM     20  O   UNL     1     -57.336 -40.103  36.945  0.00  0.00    +0.000 OA
BRANCH  20  22
ATOM     21  O   UNL     1     -56.180 -38.175  37.439  0.00  0.00    +0.000 OA
ATOM     22  C   UNL     1     -57.042 -39.004  37.722  0.00  0.00    +0.000 C 
BRANCH  22  23
ATOM     23  C   UNL     1     -57.932 -38.980  38.938  0.00  0.00    +0.000 C 
ATOM     24  C   UNL     1     -59.190 -38.132  39.029  0.00  0.00    +0.000 C 
ATOM     25  C   UNL     1     -57.699 -39.760  40.001  0.00  0.00    +0.000 C 
ENDBRANCH  22  23
ENDBRANCH  20  22
ENDBRANCH   6  20
TORSDOF 3
ENDMDL
MODEL 3
REMARK VINA RESULT:      -5.9     34.802     37.870
REMARK  Name = 6325056_Deoxyelephantopin.pdbqt.pdb
REMARK  3 active torsions:
REMARK  status: ('A' for Active; 'I' for Inactive)
REMARK    1  A    between atoms: C_6  and  O_20
REMARK    2  A    between atoms: O_20  and  C_22
REMARK    3  A    between atoms: C_22  and  C_23
REMARK                            x       y       z     vdW  Elec       q    Type
REMARK                         _______ _______ _______ _____ _____    ______ ____
ROOT
ATOM      1  O   UNL     1     -65.245 -70.150  39.866  0.00  0.00    +0.000 OA
ATOM      2  O   UNL     1     -62.163 -64.525  41.042  0.00  0.00    +0.000 OA
ATOM      3  O   UNL     1     -65.182 -72.350  39.209  0.00  0.00    +0.000 OA
ATOM      4  O   UNL     1     -60.193 -65.583  41.667  0.00  0.00    +0.000 OA
ATOM      5  C   UNL     1     -62.935 -69.667  39.854  0.00  0.00    +0.000 C 
ATOM      6  C   UNL     1     -61.654 -68.984  40.040  0.00  0.00    +0.000 C 
ATOM      7  C   UNL     1     -64.276 -69.164  40.091  0.00  0.00    +0.000 C 
ATOM      8  C   UNL     1     -61.453 -67.608  39.755  0.00  0.00    +0.000 C 
ATOM      9  C   UNL     1     -63.143 -71.042  39.453  0.00  0.00    +0.000 C 
ATOM     10  C   UNL     1     -61.339 -66.189  39.617  0.00  0.00    +0.000 C 
ATOM     11  C   UNL     1     -64.703 -67.856  40.419  0.00  0.00    +0.000 C 
ATOM     12  C   UNL     1     -63.051 -64.807  39.983  0.00  0.00    +0.000 C 
ATOM     13  C   UNL     1     -64.264 -65.442  40.384  0.00  0.00    +0.000 C 
ATOM     14  C   UNL     1     -65.133 -66.520  40.669  0.00  0.00    +0.000 C 
ATOM     15  C   UNL     1     -62.345 -65.467  38.957  0.00  0.00    +0.000 C 
ATOM     16  C   UNL     1     -64.605 -71.311  39.481  0.00  0.00    +0.000 C 
ATOM     17  C   UNL     1     -61.103 -65.406  40.877  0.00  0.00    +0.000 C 
ATOM     18  C   UNL     1     -62.207 -71.909  39.048  0.00  0.00    +0.000 C 
ATOM     19  C   UNL     1     -66.573 -66.253  40.971  0.00  0.00    +0.000 C 
ENDROOT
BRANCH   6  20
ATOM     20  O   UNL     1     -60.488 -69.734  40.270  0.00  0.00    +0.000 OA
BRANCH  20  22
ATOM     21  O   UNL     1     -60.769 -70.079  42.528  0.00  0.00    +0.000 OA
ATOM     22  C   UNL     1     -60.057 -69.765  41.578  0.00  0.00    +0.000 C 
BRANCH  22  23
ATOM     23  C   UNL     1     -58.604 -69.368  41.651  0.00  0.00    +0.000 C 
ATOM     24  C   UNL     1     -57.579 -70.123  42.481  0.00  0.00    +0.000 C 
ATOM     25  C   UNL     1     -58.111 -68.353  40.930  0.00  0.00    +0.000 C 
ENDBRANCH  22  23
ENDBRANCH  20  22
ENDBRANCH   6  20
TORSDOF 3
ENDMDL
MODEL 4
REMARK VINA RESULT:      -5.9     12.563     14.809
REMARK  Name = 6325056_Deoxyelephantopin.pdbqt.pdb
REMARK  3 active torsions:
REMARK  status: ('A' for Active; 'I' for Inactive)
REMARK    1  A    between atoms: C_6  and  O_20
REMARK    2  A    between atoms: O_20  and  C_22
REMARK    3  A    between atoms: C_22  and  C_23
REMARK                            x       y       z     vdW  Elec       q    Type
REMARK                         _______ _______ _______ _____ _____    ______ ____
ROOT
ATOM      1  O   UNL     1     -26.387 -52.933  54.410  0.00  0.00    +0.000 OA
ATOM      2  O   UNL     1     -31.475 -51.899  58.356  0.00  0.00    +0.000 OA
ATOM      3  O   UNL     1     -25.422 -54.089  52.675  0.00  0.00    +0.000 OA
ATOM      4  O   UNL     1     -33.021 -52.545  56.749  0.00  0.00    +0.000 OA
ATOM      5  C   UNL     1     -28.549 -53.880  54.361  0.00  0.00    +0.000 C 
ATOM      6  C   UNL     1     -29.964 -54.134  54.632  0.00  0.00    +0.000 C 
ATOM      7  C   UNL     1     -27.655 -52.934  55.004  0.00  0.00    +0.000 C 
ATOM      8  C   UNL     1     -30.527 -54.115  55.935  0.00  0.00    +0.000 C 
ATOM      9  C   UNL     1     -27.735 -54.481  53.325  0.00  0.00    +0.000 C 
ATOM     10  C   UNL     1     -31.082 -53.918  57.239  0.00  0.00    +0.000 C 
ATOM     11  C   UNL     1     -27.871 -52.121  56.142  0.00  0.00    +0.000 C 
ATOM     12  C   UNL     1     -30.229 -52.464  58.700  0.00  0.00    +0.000 C 
ATOM     13  C   UNL     1     -29.099 -51.730  58.230  0.00  0.00    +0.000 C 
ATOM     14  C   UNL     1     -28.066 -51.367  57.336  0.00  0.00    +0.000 C 
ATOM     15  C   UNL     1     -30.235 -53.830  58.354  0.00  0.00    +0.000 C 
ATOM     16  C   UNL     1     -26.388 -53.854  53.382  0.00  0.00    +0.000 C 
ATOM     17  C   UNL     1     -32.016 -52.753  57.406  0.00  0.00    +0.000 C 
ATOM     18  C   UNL     1     -28.089 -55.478  52.505  0.00  0.00    +0.000 C 
ATOM     19  C   UNL     1     -27.028 -50.380  57.762  0.00  0.00    +0.000 C 
ENDROOT
BRANCH   6  20
ATOM     20  O   UNL     1     -30.785 -54.668  53.624  0.00  0.00    +0.000 OA
BRANCH  20  22
ATOM     21  O   UNL     1     -32.570 -53.228  53.425  0.00  0.00    +0.000 OA
ATOM     22  C   UNL     1     -31.563 -53.750  52.952  0.00  0.00    +0.000 C 
BRANCH  22  23
ATOM     23  C   UNL     1     -30.988 -53.491  51.583  0.00  0.00    +0.000 C 
ATOM     24  C   UNL     1     -30.148 -52.269  51.253  0.00  0.00    +0.000 C 
ATOM     25  C   UNL     1     -31.133 -54.365  50.578  0.00  0.00    +0.000 C 
ENDBRANCH  22  23
ENDBRANCH  20  22
ENDBRANCH   6  20
TORSDOF 3
ENDMDL
MODEL 5
REMARK VINA RESULT:      -5.8     29.177     31.494
REMARK  Name = 6325056_Deoxyelephantopin.pdbqt.pdb
REMARK  3 active torsions:
REMARK  status: ('A' for Active; 'I' for Inactive)
REMARK    1  A    between atoms: C_6  and  O_20
REMARK    2  A    between atoms: O_20  and  C_22
REMARK    3  A    between atoms: C_22  and  C_23
REMARK                            x       y       z     vdW  Elec       q    Type
REMARK                         _______ _______ _______ _____ _____    ______ ____
ROOT
ATOM      1  O   UNL     1     -66.975 -44.103  43.337  0.00  0.00    +0.000 OA
ATOM      2  O   UNL     1     -66.976 -38.883  39.428  0.00  0.00    +0.000 OA
ATOM      3  O   UNL     1     -66.958 -46.385  43.604  0.00  0.00    +0.000 OA
ATOM      4  O   UNL     1     -65.768 -39.964  37.766  0.00  0.00    +0.000 OA
ATOM      5  C   UNL     1     -66.755 -43.978  40.990  0.00  0.00    +0.000 C 
ATOM      6  C   UNL     1     -66.569 -43.459  39.635  0.00  0.00    +0.000 C 
ATOM      7  C   UNL     1     -66.890 -43.243  42.235  0.00  0.00    +0.000 C 
ATOM      8  C   UNL     1     -67.199 -42.281  39.155  0.00  0.00    +0.000 C 
ATOM      9  C   UNL     1     -66.774 -45.366  41.400  0.00  0.00    +0.000 C 
ATOM     10  C   UNL     1     -67.716 -41.003  38.770  0.00  0.00    +0.000 C 
ATOM     11  C   UNL     1     -67.021 -41.851  42.450  0.00  0.00    +0.000 C 
ATOM     12  C   UNL     1     -68.039 -39.349  40.231  0.00  0.00    +0.000 C 
ATOM     13  C   UNL     1     -67.673 -39.653  41.576  0.00  0.00    +0.000 C 
ATOM     14  C   UNL     1     -67.236 -40.456  42.654  0.00  0.00    +0.000 C 
ATOM     15  C   UNL     1     -68.707 -40.386  39.549  0.00  0.00    +0.000 C 
ATOM     16  C   UNL     1     -66.905 -45.404  42.881  0.00  0.00    +0.000 C 
ATOM     17  C   UNL     1     -66.711 -39.912  38.535  0.00  0.00    +0.000 C 
ATOM     18  C   UNL     1     -66.759 -46.439  40.600  0.00  0.00    +0.000 C 
ATOM     19  C   UNL     1     -67.257 -39.909  44.044  0.00  0.00    +0.000 C 
ENDROOT
BRANCH   6  20
ATOM     20  O   UNL     1     -65.950 -44.258  38.658  0.00  0.00    +0.000 OA
BRANCH  20  22
ATOM     21  O   UNL     1     -64.891 -43.266  36.872  0.00  0.00    +0.000 OA
ATOM     22  C   UNL     1     -64.869 -43.684  38.027  0.00  0.00    +0.000 C 
BRANCH  22  23
ATOM     23  C   UNL     1     -63.687 -43.646  38.963  0.00  0.00    +0.000 C 
ATOM     24  C   UNL     1     -63.032 -42.352  39.419  0.00  0.00    +0.000 C 
ATOM     25  C   UNL     1     -63.176 -44.759  39.503  0.00  0.00    +0.000 C 
ENDBRANCH  22  23
ENDBRANCH  20  22
ENDBRANCH   6  20
TORSDOF 3
ENDMDL
MODEL 6
REMARK VINA RESULT:      -5.8      7.253     11.494
REMARK  Name = 6325056_Deoxyelephantopin.pdbqt.pdb
REMARK  3 active torsions:
REMARK  status: ('A' for Active; 'I' for Inactive)
REMARK    1  A    between atoms: C_6  and  O_20
REMARK    2  A    between atoms: O_20  and  C_22
REMARK    3  A    between atoms: C_22  and  C_23
REMARK                            x       y       z     vdW  Elec       q    Type
REMARK                         _______ _______ _______ _____ _____    ______ ____
ROOT
ATOM      1  O   UNL     1     -27.680 -49.616  53.277  0.00  0.00    +0.000 OA
ATOM      2  O   UNL     1     -33.735 -51.711  54.491  0.00  0.00    +0.000 OA
ATOM      3  O   UNL     1     -26.158 -48.663  51.846  0.00  0.00    +0.000 OA
ATOM      4  O   UNL     1     -34.702 -50.138  53.084  0.00  0.00    +0.000 OA
ATOM      5  C   UNL     1     -29.631 -49.430  51.962  0.00  0.00    +0.000 C 
ATOM      6  C   UNL     1     -31.030 -49.453  51.536  0.00  0.00    +0.000 C 
ATOM      7  C   UNL     1     -29.055 -49.876  53.218  0.00  0.00    +0.000 C 
ATOM      8  C   UNL     1     -31.928 -50.506  51.855  0.00  0.00    +0.000 C 
ATOM      9  C   UNL     1     -28.505 -48.880  51.236  0.00  0.00    +0.000 C 
ATOM     10  C   UNL     1     -32.837 -51.498  52.340  0.00  0.00    +0.000 C 
ATOM     11  C   UNL     1     -29.660 -50.574  54.289  0.00  0.00    +0.000 C 
ATOM     12  C   UNL     1     -32.578 -52.499  54.316  0.00  0.00    +0.000 C 
ATOM     13  C   UNL     1     -31.448 -52.062  55.070  0.00  0.00    +0.000 C 
ATOM     14  C   UNL     1     -30.255 -51.349  55.327  0.00  0.00    +0.000 C 
ATOM     15  C   UNL     1     -32.342 -52.667  52.937  0.00  0.00    +0.000 C 
ATOM     16  C   UNL     1     -27.300 -49.008  52.099  0.00  0.00    +0.000 C 
ATOM     17  C   UNL     1     -33.900 -51.030  53.293  0.00  0.00    +0.000 C 
ATOM     18  C   UNL     1     -28.511 -48.411  49.983  0.00  0.00    +0.000 C 
ATOM     19  C   UNL     1     -29.485 -51.617  56.581  0.00  0.00    +0.000 C 
ENDROOT
BRANCH   6  20
ATOM     20  O   UNL     1     -31.481 -48.544  50.563  0.00  0.00    +0.000 OA
BRANCH  20  22
ATOM     21  O   UNL     1     -33.712 -48.086  50.230  0.00  0.00    +0.000 OA
ATOM     22  C   UNL     1     -32.669 -47.911  50.855  0.00  0.00    +0.000 C 
BRANCH  22  23
ATOM     23  C   UNL     1     -32.488 -46.998  52.042  0.00  0.00    +0.000 C 
ATOM     24  C   UNL     1     -31.319 -46.036  52.178  0.00  0.00    +0.000 C 
ATOM     25  C   UNL     1     -33.391 -46.934  53.029  0.00  0.00    +0.000 C 
ENDBRANCH  22  23
ENDBRANCH  20  22
ENDBRANCH   6  20
TORSDOF 3
ENDMDL
MODEL 7
REMARK VINA RESULT:      -5.8     35.537     37.259
REMARK  Name = 6325056_Deoxyelephantopin.pdbqt.pdb
REMARK  3 active torsions:
REMARK  status: ('A' for Active; 'I' for Inactive)
REMARK    1  A    between atoms: C_6  and  O_20
REMARK    2  A    between atoms: O_20  and  C_22
REMARK    3  A    between atoms: C_22  and  C_23
REMARK                            x       y       z     vdW  Elec       q    Type
REMARK                         _______ _______ _______ _____ _____    ______ ____
ROOT
ATOM      1  O   UNL     1     -47.680 -76.178  64.611  0.00  0.00    +0.000 OA
ATOM      2  O   UNL     1     -41.610 -74.737  66.511  0.00  0.00    +0.000 OA
ATOM      3  O   UNL     1     -49.113 -77.099  63.070  0.00  0.00    +0.000 OA
ATOM      4  O   UNL     1     -40.696 -76.582  65.437  0.00  0.00    +0.000 OA
ATOM      5  C   UNL     1     -45.615 -76.771  63.634  0.00  0.00    +0.000 C 
ATOM      6  C   UNL     1     -44.181 -76.979  63.427  0.00  0.00    +0.000 C 
ATOM      7  C   UNL     1     -46.287 -76.104  64.735  0.00  0.00    +0.000 C 
ATOM      8  C   UNL     1     -43.194 -76.018  63.769  0.00  0.00    +0.000 C 
ATOM      9  C   UNL     1     -46.698 -77.258  62.806  0.00  0.00    +0.000 C 
ATOM     10  C   UNL     1     -42.226 -75.097  64.282  0.00  0.00    +0.000 C 
ATOM     11  C   UNL     1     -45.740 -75.363  65.808  0.00  0.00    +0.000 C 
ATOM     12  C   UNL     1     -42.607 -73.836  66.082  0.00  0.00    +0.000 C 
ATOM     13  C   UNL     1     -43.881 -74.029  66.695  0.00  0.00    +0.000 C 
ATOM     14  C   UNL     1     -45.188 -74.548  66.840  0.00  0.00    +0.000 C 
ATOM     15  C   UNL     1     -42.625 -73.810  64.673  0.00  0.00    +0.000 C 
ATOM     16  C   UNL     1     -47.979 -76.873  63.457  0.00  0.00    +0.000 C 
ATOM     17  C   UNL     1     -41.382 -75.576  65.429  0.00  0.00    +0.000 C 
ATOM     18  C   UNL     1     -46.588 -77.875  61.624  0.00  0.00    +0.000 C 
ATOM     19  C   UNL     1     -46.075 -74.032  67.926  0.00  0.00    +0.000 C 
ENDROOT
BRANCH   6  20
ATOM     20  O   UNL     1     -43.737 -78.051  62.633  0.00  0.00    +0.000 OA
BRANCH  20  22
ATOM     21  O   UNL     1     -41.479 -78.008  62.190  0.00  0.00    +0.000 OA
ATOM     22  C   UNL     1     -42.637 -77.785  61.848  0.00  0.00    +0.000 C 
BRANCH  22  23
ATOM     23  C   UNL     1     -43.075 -77.199  60.529  0.00  0.00    +0.000 C 
ATOM     24  C   UNL     1     -42.845 -75.745  60.150  0.00  0.00    +0.000 C 
ATOM     25  C   UNL     1     -43.644 -77.948  59.576  0.00  0.00    +0.000 C 
ENDBRANCH  22  23
ENDBRANCH  20  22
ENDBRANCH   6  20
TORSDOF 3
ENDMDL
MODEL 8
REMARK VINA RESULT:      -5.6     19.626     24.172
REMARK  Name = 6325056_Deoxyelephantopin.pdbqt.pdb
REMARK  3 active torsions:
REMARK  status: ('A' for Active; 'I' for Inactive)
REMARK    1  A    between atoms: C_6  and  O_20
REMARK    2  A    between atoms: O_20  and  C_22
REMARK    3  A    between atoms: C_22  and  C_23
REMARK                            x       y       z     vdW  Elec       q    Type
REMARK                         _______ _______ _______ _____ _____    ______ ____
ROOT
ATOM      1  O   UNL     1     -50.689 -42.668  36.255  0.00  0.00    +0.000 OA
ATOM      2  O   UNL     1     -53.130 -42.529  30.209  0.00  0.00    +0.000 OA
ATOM      3  O   UNL     1     -50.908 -42.215  38.496  0.00  0.00    +0.000 OA
ATOM      4  O   UNL     1     -55.322 -42.734  30.948  0.00  0.00    +0.000 OA
ATOM      5  C   UNL     1     -52.838 -42.036  35.512  0.00  0.00    +0.000 C 
ATOM      6  C   UNL     1     -54.016 -41.834  34.668  0.00  0.00    +0.000 C 
ATOM      7  C   UNL     1     -51.533 -42.554  35.143  0.00  0.00    +0.000 C 
ATOM      8  C   UNL     1     -53.948 -41.386  33.323  0.00  0.00    +0.000 C 
ATOM      9  C   UNL     1     -52.740 -41.824  36.941  0.00  0.00    +0.000 C 
ATOM     10  C   UNL     1     -53.823 -41.098  31.927  0.00  0.00    +0.000 C 
ATOM     11  C   UNL     1     -51.015 -42.861  33.863  0.00  0.00    +0.000 C 
ATOM     12  C   UNL     1     -52.066 -41.755  30.719  0.00  0.00    +0.000 C 
ATOM     13  C   UNL     1     -51.085 -42.501  31.437  0.00  0.00    +0.000 C 
ATOM     14  C   UNL     1     -50.470 -43.089  32.566  0.00  0.00    +0.000 C 
ATOM     15  C   UNL     1     -52.597 -40.649  31.413  0.00  0.00    +0.000 C 
ATOM     16  C   UNL     1     -51.378 -42.241  37.371  0.00  0.00    +0.000 C 
ATOM     17  C   UNL     1     -54.235 -42.184  30.975  0.00  0.00    +0.000 C 
ATOM     18  C   UNL     1     -53.667 -41.278  37.736  0.00  0.00    +0.000 C 
ATOM     19  C   UNL     1     -49.120 -43.716  32.432  0.00  0.00    +0.000 C 
ENDROOT
BRANCH   6  20
ATOM     20  O   UNL     1     -55.298 -41.832  35.244  0.00  0.00    +0.000 OA
BRANCH  20  22
ATOM     21  O   UNL     1     -55.702 -39.567  35.178  0.00  0.00    +0.000 OA
ATOM     22  C   UNL     1     -56.066 -40.722  34.968  0.00  0.00    +0.000 C 
BRANCH  22  23
ATOM     23  C   UNL     1     -57.386 -41.142  34.374  0.00  0.00    +0.000 C 
ATOM     24  C   UNL     1     -57.735 -40.949  32.907  0.00  0.00    +0.000 C 
ATOM     25  C   UNL     1     -58.317 -41.776  35.098  0.00  0.00    +0.000 C 
ENDBRANCH  22  23
ENDBRANCH  20  22
ENDBRANCH   6  20
TORSDOF 3
ENDMDL
MODEL 9
REMARK VINA RESULT:      -5.5     34.826     36.886
REMARK  Name = 6325056_Deoxyelephantopin.pdbqt.pdb
REMARK  3 active torsions:
REMARK  status: ('A' for Active; 'I' for Inactive)
REMARK    1  A    between atoms: C_6  and  O_20
REMARK    2  A    between atoms: O_20  and  C_22
REMARK    3  A    between atoms: C_22  and  C_23
REMARK                            x       y       z     vdW  Elec       q    Type
REMARK                         _______ _______ _______ _____ _____    ______ ____
ROOT
ATOM      1  O   UNL     1     -46.786 -76.937  62.959  0.00  0.00    +0.000 OA
ATOM      2  O   UNL     1     -42.756 -74.417  67.424  0.00  0.00    +0.000 OA
ATOM      3  O   UNL     1     -47.124 -77.849  60.878  0.00  0.00    +0.000 OA
ATOM      4  O   UNL     1     -40.953 -75.694  66.709  0.00  0.00    +0.000 OA
ATOM      5  C   UNL     1     -44.432 -76.759  62.935  0.00  0.00    +0.000 C 
ATOM      6  C   UNL     1     -43.048 -76.541  63.356  0.00  0.00    +0.000 C 
ATOM      7  C   UNL     1     -45.656 -76.536  63.683  0.00  0.00    +0.000 C 
ATOM      8  C   UNL     1     -42.640 -75.453  64.171  0.00  0.00    +0.000 C 
ATOM      9  C   UNL     1     -44.887 -77.322  61.681  0.00  0.00    +0.000 C 
ATOM     10  C   UNL     1     -42.302 -74.445  65.128  0.00  0.00    +0.000 C 
ATOM     11  C   UNL     1     -45.842 -75.922  64.944  0.00  0.00    +0.000 C 
ATOM     12  C   UNL     1     -43.740 -73.733  66.678  0.00  0.00    +0.000 C 
ATOM     13  C   UNL     1     -45.014 -74.373  66.658  0.00  0.00    +0.000 C 
ATOM     14  C   UNL     1     -46.031 -75.229  66.176  0.00  0.00    +0.000 C 
ATOM     15  C   UNL     1     -43.214 -73.416  65.410  0.00  0.00    +0.000 C 
ATOM     16  C   UNL     1     -46.369 -77.426  61.737  0.00  0.00    +0.000 C 
ATOM     17  C   UNL     1     -41.867 -74.920  66.484  0.00  0.00    +0.000 C 
ATOM     18  C   UNL     1     -44.132 -77.626  60.618  0.00  0.00    +0.000 C 
ATOM     19  C   UNL     1     -47.386 -75.201  66.806  0.00  0.00    +0.000 C 
ENDROOT
BRANCH   6  20
ATOM     20  O   UNL     1     -42.010 -77.270  62.750  0.00  0.00    +0.000 OA
BRANCH  20  22
ATOM     21  O   UNL     1     -39.878 -76.787  63.471  0.00  0.00    +0.000 OA
ATOM     22  C   UNL     1     -40.799 -76.618  62.676  0.00  0.00    +0.000 C 
BRANCH  22  23
ATOM     23  C   UNL     1     -40.784 -75.693  61.485  0.00  0.00    +0.000 C 
ATOM     24  C   UNL     1     -40.582 -74.191  61.602  0.00  0.00    +0.000 C 
ATOM     25  C   UNL     1     -40.888 -76.153  60.231  0.00  0.00    +0.000 C 
ENDBRANCH  22  23
ENDBRANCH  20  22
ENDBRANCH   6  20
TORSDOF 3
ENDMDL
