MODEL 1
REMARK VINA RESULT:      -6.3      0.000      0.000
REMARK  Name = 641785_Cardamonin.pdbqt.pdb
REMARK  6 active torsions:
REMARK  status: ('A' for Active; 'I' for Inactive)
REMARK    1  A    between atoms: C_1  and  C_14
REMARK    2  A    between atoms: C_2  and  O_7
REMARK    3  A    between atoms: C_3  and  O_9
REMARK    4  A    between atoms: C_6  and  O_11
REMARK    5  A    between atoms: C_14  and  C_15
REMARK    6  A    between atoms: C_16  and  C_17
REMARK                            x       y       z     vdW  Elec       q    Type
REMARK                         _______ _______ _______ _____ _____    ______ ____
ROOT
ATOM      1  C   UNL     1     -33.142 -49.335  52.843  0.00  0.00    +0.000 A 
ATOM      2  C   UNL     1     -32.132 -48.363  52.719  0.00  0.00    +0.000 A 
ATOM      3  C   UNL     1     -34.466 -48.913  53.082  0.00  0.00    +0.000 A 
ATOM      4  C   UNL     1     -32.464 -47.007  52.861  0.00  0.00    +0.000 A 
ATOM      5  C   UNL     1     -34.777 -47.562  53.231  0.00  0.00    +0.000 A 
ATOM      6  C   UNL     1     -33.771 -46.617  53.125  0.00  0.00    +0.000 A 
ENDROOT
BRANCH   2   7
ATOM      7  O   UNL     1     -30.858 -48.761  52.385  0.00  0.00    +0.000 OA
ATOM      8  C   UNL     1     -29.857 -48.465  53.318  0.00  0.00    +0.000 C 
ENDBRANCH   2   7
BRANCH   3   9
ATOM      9  O   UNL     1     -35.530 -49.774  53.188  0.00  0.00    +0.000 OA
ATOM     10  H   UNL     1     -36.117 -49.672  52.407  0.00  0.00    +0.000 HD
ENDBRANCH   3   9
BRANCH   6  11
ATOM     11  O   UNL     1     -34.088 -45.301  53.274  0.00  0.00    +0.000 OA
ATOM     12  H   UNL     1     -33.310 -44.762  53.046  0.00  0.00    +0.000 HD
ENDBRANCH   6  11
BRANCH   1  14
ATOM     13  O   UNL     1     -33.203 -51.401  51.713  0.00  0.00    +0.000 OA
ATOM     14  C   UNL     1     -32.892 -50.795  52.733  0.00  0.00    +0.000 C 
BRANCH  14  15
ATOM     15  C   UNL     1     -32.350 -51.533  53.847  0.00  0.00    +0.000 C 
ATOM     16  C   UNL     1     -31.907 -52.136  54.789  0.00  0.00    +0.000 C 
BRANCH  16  17
ATOM     17  C   UNL     1     -31.377 -52.854  55.900  0.00  0.00    +0.000 A 
ATOM     18  C   UNL     1     -32.112 -52.948  57.081  0.00  0.00    +0.000 A 
ATOM     19  C   UNL     1     -30.125 -53.459  55.806  0.00  0.00    +0.000 A 
ATOM     20  C   UNL     1     -31.594 -53.648  58.168  0.00  0.00    +0.000 A 
ATOM     21  C   UNL     1     -29.608 -54.159  56.894  0.00  0.00    +0.000 A 
ATOM     22  C   UNL     1     -30.343 -54.253  58.073  0.00  0.00    +0.000 A 
ENDBRANCH  16  17
ENDBRANCH  14  15
ENDBRANCH   1  14
TORSDOF 6
ENDMDL
MODEL 2
REMARK VINA RESULT:      -5.7     12.141     14.377
REMARK  Name = 641785_Cardamonin.pdbqt.pdb
REMARK  6 active torsions:
REMARK  status: ('A' for Active; 'I' for Inactive)
REMARK    1  A    between atoms: C_1  and  C_14
REMARK    2  A    between atoms: C_2  and  O_7
REMARK    3  A    between atoms: C_3  and  O_9
REMARK    4  A    between atoms: C_6  and  O_11
REMARK    5  A    between atoms: C_14  and  C_15
REMARK    6  A    between atoms: C_16  and  C_17
REMARK                            x       y       z     vdW  Elec       q    Type
REMARK                         _______ _______ _______ _____ _____    ______ ____
ROOT
ATOM      1  C   UNL     1     -33.313 -59.720  46.855  0.00  0.00    +0.000 A 
ATOM      2  C   UNL     1     -31.942 -59.450  46.679  0.00  0.00    +0.000 A 
ATOM      3  C   UNL     1     -34.057 -58.912  47.739  0.00  0.00    +0.000 A 
ATOM      4  C   UNL     1     -31.351 -58.404  47.403  0.00  0.00    +0.000 A 
ATOM      5  C   UNL     1     -33.451 -57.883  48.459  0.00  0.00    +0.000 A 
ATOM      6  C   UNL     1     -32.098 -57.640  48.290  0.00  0.00    +0.000 A 
ENDROOT
BRANCH   2   7
ATOM      7  O   UNL     1     -31.235 -60.168  45.743  0.00  0.00    +0.000 OA
ATOM      8  C   UNL     1     -30.814 -59.457  44.612  0.00  0.00    +0.000 C 
ENDBRANCH   2   7
BRANCH   3   9
ATOM      9  O   UNL     1     -35.402 -59.068  47.960  0.00  0.00    +0.000 OA
ATOM     10  H   UNL     1     -35.572 -59.951  48.358  0.00  0.00    +0.000 HD
ENDBRANCH   3   9
BRANCH   6  11
ATOM     11  O   UNL     1     -31.519 -56.633  49.001  0.00  0.00    +0.000 OA
ATOM     12  H   UNL     1     -30.623 -56.909  49.265  0.00  0.00    +0.000 HD
ENDBRANCH   6  11
BRANCH   1  14
ATOM     13  O   UNL     1     -34.178 -61.906  46.699  0.00  0.00    +0.000 OA
ATOM     14  C   UNL     1     -34.028 -60.817  46.154  0.00  0.00    +0.000 C 
BRANCH  14  15
ATOM     15  C   UNL     1     -34.491 -60.643  44.800  0.00  0.00    +0.000 C 
ATOM     16  C   UNL     1     -34.880 -60.480  43.674  0.00  0.00    +0.000 C 
BRANCH  16  17
ATOM     17  C   UNL     1     -35.341 -60.293  42.338  0.00  0.00    +0.000 A 
ATOM     18  C   UNL     1     -34.728 -59.348  41.517  0.00  0.00    +0.000 A 
ATOM     19  C   UNL     1     -36.405 -61.053  41.856  0.00  0.00    +0.000 A 
ATOM     20  C   UNL     1     -35.179 -59.164  40.212  0.00  0.00    +0.000 A 
ATOM     21  C   UNL     1     -36.855 -60.868  40.551  0.00  0.00    +0.000 A 
ATOM     22  C   UNL     1     -36.242 -59.924  39.730  0.00  0.00    +0.000 A 
ENDBRANCH  16  17
ENDBRANCH  14  15
ENDBRANCH   1  14
TORSDOF 6
ENDMDL
MODEL 3
REMARK VINA RESULT:      -5.6      1.605      1.978
REMARK  Name = 641785_Cardamonin.pdbqt.pdb
REMARK  6 active torsions:
REMARK  status: ('A' for Active; 'I' for Inactive)
REMARK    1  A    between atoms: C_1  and  C_14
REMARK    2  A    between atoms: C_2  and  O_7
REMARK    3  A    between atoms: C_3  and  O_9
REMARK    4  A    between atoms: C_6  and  O_11
REMARK    5  A    between atoms: C_14  and  C_15
REMARK    6  A    between atoms: C_16  and  C_17
REMARK                            x       y       z     vdW  Elec       q    Type
REMARK                         _______ _______ _______ _____ _____    ______ ____
ROOT
ATOM      1  C   UNL     1     -32.963 -50.750  52.764  0.00  0.00    +0.000 A 
ATOM      2  C   UNL     1     -32.492 -49.823  51.815  0.00  0.00    +0.000 A 
ATOM      3  C   UNL     1     -34.108 -50.425  53.521  0.00  0.00    +0.000 A 
ATOM      4  C   UNL     1     -33.155 -48.597  51.666  0.00  0.00    +0.000 A 
ATOM      5  C   UNL     1     -34.749 -49.196  53.368  0.00  0.00    +0.000 A 
ATOM      6  C   UNL     1     -34.264 -48.286  52.444  0.00  0.00    +0.000 A 
ENDROOT
BRANCH   2   7
ATOM      7  O   UNL     1     -31.439 -50.176  51.003  0.00  0.00    +0.000 OA
ATOM      8  C   UNL     1     -31.754 -50.424  49.661  0.00  0.00    +0.000 C 
ENDBRANCH   2   7
BRANCH   3   9
ATOM      9  O   UNL     1     -34.668 -51.267  54.448  0.00  0.00    +0.000 OA
ATOM     10  H   UNL     1     -35.519 -51.619  54.104  0.00  0.00    +0.000 HD
ENDBRANCH   3   9
BRANCH   6  11
ATOM     11  O   UNL     1     -34.899 -47.090  52.305  0.00  0.00    +0.000 OA
ATOM     12  H   UNL     1     -34.577 -46.481  52.994  0.00  0.00    +0.000 HD
ENDBRANCH   6  11
BRANCH   1  14
ATOM     13  O   UNL     1     -32.358 -52.945  52.162  0.00  0.00    +0.000 OA
ATOM     14  C   UNL     1     -32.320 -52.065  53.015  0.00  0.00    +0.000 C 
BRANCH  14  15
ATOM     15  C   UNL     1     -31.708 -52.352  54.289  0.00  0.00    +0.000 C 
ATOM     16  C   UNL     1     -31.201 -52.573  55.357  0.00  0.00    +0.000 C 
BRANCH  16  17
ATOM     17  C   UNL     1     -30.598 -52.841  56.620  0.00  0.00    +0.000 A 
ATOM     18  C   UNL     1     -30.389 -51.801  57.524  0.00  0.00    +0.000 A 
ATOM     19  C   UNL     1     -30.216 -54.139  56.948  0.00  0.00    +0.000 A 
ATOM     20  C   UNL     1     -29.797 -52.061  58.758  0.00  0.00    +0.000 A 
ATOM     21  C   UNL     1     -29.625 -54.399  58.183  0.00  0.00    +0.000 A 
ATOM     22  C   UNL     1     -29.416 -53.360  59.086  0.00  0.00    +0.000 A 
ENDBRANCH  16  17
ENDBRANCH  14  15
ENDBRANCH   1  14
TORSDOF 6
ENDMDL
MODEL 4
REMARK VINA RESULT:      -5.6     17.265     19.068
REMARK  Name = 641785_Cardamonin.pdbqt.pdb
REMARK  6 active torsions:
REMARK  status: ('A' for Active; 'I' for Inactive)
REMARK    1  A    between atoms: C_1  and  C_14
REMARK    2  A    between atoms: C_2  and  O_7
REMARK    3  A    between atoms: C_3  and  O_9
REMARK    4  A    between atoms: C_6  and  O_11
REMARK    5  A    between atoms: C_14  and  C_15
REMARK    6  A    between atoms: C_16  and  C_17
REMARK                            x       y       z     vdW  Elec       q    Type
REMARK                         _______ _______ _______ _____ _____    ______ ____
ROOT
ATOM      1  C   UNL     1     -35.870 -63.141  66.632  0.00  0.00    +0.000 A 
ATOM      2  C   UNL     1     -34.864 -63.092  67.617  0.00  0.00    +0.000 A 
ATOM      3  C   UNL     1     -37.218 -63.192  67.041  0.00  0.00    +0.000 A 
ATOM      4  C   UNL     1     -35.228 -63.121  68.971  0.00  0.00    +0.000 A 
ATOM      5  C   UNL     1     -37.562 -63.231  68.391  0.00  0.00    +0.000 A 
ATOM      6  C   UNL     1     -36.562 -63.202  69.349  0.00  0.00    +0.000 A 
ENDROOT
BRANCH   2   7
ATOM      7  O   UNL     1     -33.554 -62.938  67.226  0.00  0.00    +0.000 OA
ATOM      8  C   UNL     1     -32.711 -64.032  67.457  0.00  0.00    +0.000 C 
ENDBRANCH   2   7
BRANCH   3   9
ATOM      9  O   UNL     1     -38.275 -63.211  66.166  0.00  0.00    +0.000 OA
ATOM     10  H   UNL     1     -37.948 -63.382  65.255  0.00  0.00    +0.000 HD
ENDBRANCH   3   9
BRANCH   6  11
ATOM     11  O   UNL     1     -36.912 -63.242  70.665  0.00  0.00    +0.000 OA
ATOM     12  H   UNL     1     -36.105 -63.191  71.207  0.00  0.00    +0.000 HD
ENDBRANCH   6  11
BRANCH   1  14
ATOM     13  O   UNL     1     -35.845 -62.148  64.496  0.00  0.00    +0.000 OA
ATOM     14  C   UNL     1     -35.589 -63.138  65.174  0.00  0.00    +0.000 C 
BRANCH  14  15
ATOM     15  C   UNL     1     -35.084 -64.321  64.522  0.00  0.00    +0.000 C 
ATOM     16  C   UNL     1     -34.648 -65.307  63.990  0.00  0.00    +0.000 C 
BRANCH  16  17
ATOM     17  C   UNL     1     -34.135 -66.476  63.354  0.00  0.00    +0.000 A 
ATOM     18  C   UNL     1     -33.815 -66.445  61.998  0.00  0.00    +0.000 A 
ATOM     19  C   UNL     1     -33.958 -67.647  64.088  0.00  0.00    +0.000 A 
ATOM     20  C   UNL     1     -33.315 -67.587  61.376  0.00  0.00    +0.000 A 
ATOM     21  C   UNL     1     -33.459 -68.788  63.465  0.00  0.00    +0.000 A 
ATOM     22  C   UNL     1     -33.138 -68.757  62.110  0.00  0.00    +0.000 A 
ENDBRANCH  16  17
ENDBRANCH  14  15
ENDBRANCH   1  14
TORSDOF 6
ENDMDL
MODEL 5
REMARK VINA RESULT:      -5.3     30.568     32.701
REMARK  Name = 641785_Cardamonin.pdbqt.pdb
REMARK  6 active torsions:
REMARK  status: ('A' for Active; 'I' for Inactive)
REMARK    1  A    between atoms: C_1  and  C_14
REMARK    2  A    between atoms: C_2  and  O_7
REMARK    3  A    between atoms: C_3  and  O_9
REMARK    4  A    between atoms: C_6  and  O_11
REMARK    5  A    between atoms: C_14  and  C_15
REMARK    6  A    between atoms: C_16  and  C_17
REMARK                            x       y       z     vdW  Elec       q    Type
REMARK                         _______ _______ _______ _____ _____    ______ ____
ROOT
ATOM      1  C   UNL     1     -50.910 -77.491  61.508  0.00  0.00    +0.000 A 
ATOM      2  C   UNL     1     -51.650 -76.985  62.594  0.00  0.00    +0.000 A 
ATOM      3  C   UNL     1     -51.326 -77.177  60.198  0.00  0.00    +0.000 A 
ATOM      4  C   UNL     1     -52.790 -76.206  62.344  0.00  0.00    +0.000 A 
ATOM      5  C   UNL     1     -52.467 -76.410  59.967  0.00  0.00    +0.000 A 
ATOM      6  C   UNL     1     -53.197 -75.935  61.044  0.00  0.00    +0.000 A 
ENDROOT
BRANCH   2   7
ATOM      7  O   UNL     1     -51.192 -77.201  63.873  0.00  0.00    +0.000 OA
ATOM      8  C   UNL     1     -50.800 -76.062  64.587  0.00  0.00    +0.000 C 
ENDBRANCH   2   7
BRANCH   3   9
ATOM      9  O   UNL     1     -50.661 -77.591  59.072  0.00  0.00    +0.000 OA
ATOM     10  H   UNL     1     -50.502 -76.823  58.480  0.00  0.00    +0.000 HD
ENDBRANCH   3   9
BRANCH   6  11
ATOM     11  O   UNL     1     -54.310 -75.188  60.804  0.00  0.00    +0.000 OA
ATOM     12  H   UNL     1     -54.980 -75.751  60.376  0.00  0.00    +0.000 HD
ENDBRANCH   6  11
BRANCH   1  14
ATOM     13  O   UNL     1     -49.747 -79.535  61.385  0.00  0.00    +0.000 OA
ATOM     14  C   UNL     1     -49.703 -78.342  61.665  0.00  0.00    +0.000 C 
BRANCH  14  15
ATOM     15  C   UNL     1     -48.488 -77.797  62.218  0.00  0.00    +0.000 C 
ATOM     16  C   UNL     1     -47.479 -77.351  62.695  0.00  0.00    +0.000 C 
BRANCH  16  17
ATOM     17  C   UNL     1     -46.282 -76.817  63.256  0.00  0.00    +0.000 A 
ATOM     18  C   UNL     1     -46.326 -76.147  64.478  0.00  0.00    +0.000 A 
ATOM     19  C   UNL     1     -45.072 -76.964  62.582  0.00  0.00    +0.000 A 
ATOM     20  C   UNL     1     -45.157 -75.624  65.025  0.00  0.00    +0.000 A 
ATOM     21  C   UNL     1     -43.903 -76.440  63.131  0.00  0.00    +0.000 A 
ATOM     22  C   UNL     1     -43.947 -75.770  64.351  0.00  0.00    +0.000 A 
ENDBRANCH  16  17
ENDBRANCH  14  15
ENDBRANCH   1  14
TORSDOF 6
ENDMDL
MODEL 6
REMARK VINA RESULT:      -5.3     30.474     32.756
REMARK  Name = 641785_Cardamonin.pdbqt.pdb
REMARK  6 active torsions:
REMARK  status: ('A' for Active; 'I' for Inactive)
REMARK    1  A    between atoms: C_1  and  C_14
REMARK    2  A    between atoms: C_2  and  O_7
REMARK    3  A    between atoms: C_3  and  O_9
REMARK    4  A    between atoms: C_6  and  O_11
REMARK    5  A    between atoms: C_14  and  C_15
REMARK    6  A    between atoms: C_16  and  C_17
REMARK                            x       y       z     vdW  Elec       q    Type
REMARK                         _______ _______ _______ _____ _____    ______ ____
ROOT
ATOM      1  C   UNL     1     -50.959 -77.430  61.841  0.00  0.00    +0.000 A 
ATOM      2  C   UNL     1     -51.258 -77.117  60.501  0.00  0.00    +0.000 A 
ATOM      3  C   UNL     1     -51.762 -76.881  62.862  0.00  0.00    +0.000 A 
ATOM      4  C   UNL     1     -52.326 -76.251  60.221  0.00  0.00    +0.000 A 
ATOM      5  C   UNL     1     -52.812 -76.014  62.567  0.00  0.00    +0.000 A 
ATOM      6  C   UNL     1     -53.084 -75.699  61.246  0.00  0.00    +0.000 A 
ENDROOT
BRANCH   2   7
ATOM      7  O   UNL     1     -50.545 -77.729  59.497  0.00  0.00    +0.000 OA
ATOM      8  C   UNL     1     -51.156 -78.837  58.897  0.00  0.00    +0.000 C 
ENDBRANCH   2   7
BRANCH   3   9
ATOM      9  O   UNL     1     -51.578 -77.145  64.196  0.00  0.00    +0.000 OA
ATOM     10  H   UNL     1     -52.215 -77.834  64.488  0.00  0.00    +0.000 HD
ENDBRANCH   3   9
BRANCH   6  11
ATOM     11  O   UNL     1     -54.113 -74.850  60.972  0.00  0.00    +0.000 OA
ATOM     12  H   UNL     1     -54.893 -75.124  61.486  0.00  0.00    +0.000 HD
ENDBRANCH   6  11
BRANCH   1  14
ATOM     13  O   UNL     1     -49.982 -79.534  62.246  0.00  0.00    +0.000 OA
ATOM     14  C   UNL     1     -49.838 -78.316  62.244  0.00  0.00    +0.000 C 
BRANCH  14  15
ATOM     15  C   UNL     1     -48.592 -77.758  62.710  0.00  0.00    +0.000 C 
ATOM     16  C   UNL     1     -47.559 -77.276  63.091  0.00  0.00    +0.000 C 
BRANCH  16  17
ATOM     17  C   UNL     1     -46.332 -76.710  63.545  0.00  0.00    +0.000 A 
ATOM     18  C   UNL     1     -46.292 -76.013  64.752  0.00  0.00    +0.000 A 
ATOM     19  C   UNL     1     -45.176 -76.852  62.781  0.00  0.00    +0.000 A 
ATOM     20  C   UNL     1     -45.093 -75.459  65.194  0.00  0.00    +0.000 A 
ATOM     21  C   UNL     1     -43.977 -76.298  63.225  0.00  0.00    +0.000 A 
ATOM     22  C   UNL     1     -43.937 -75.601  64.431  0.00  0.00    +0.000 A 
ENDBRANCH  16  17
ENDBRANCH  14  15
ENDBRANCH   1  14
TORSDOF 6
ENDMDL
MODEL 7
REMARK VINA RESULT:      -5.3     15.141     18.280
REMARK  Name = 641785_Cardamonin.pdbqt.pdb
REMARK  6 active torsions:
REMARK  status: ('A' for Active; 'I' for Inactive)
REMARK    1  A    between atoms: C_1  and  C_14
REMARK    2  A    between atoms: C_2  and  O_7
REMARK    3  A    between atoms: C_3  and  O_9
REMARK    4  A    between atoms: C_6  and  O_11
REMARK    5  A    between atoms: C_14  and  C_15
REMARK    6  A    between atoms: C_16  and  C_17
REMARK                            x       y       z     vdW  Elec       q    Type
REMARK                         _______ _______ _______ _____ _____    ______ ____
ROOT
ATOM      1  C   UNL     1     -33.160 -65.778  63.027  0.00  0.00    +0.000 A 
ATOM      2  C   UNL     1     -32.819 -64.638  62.274  0.00  0.00    +0.000 A 
ATOM      3  C   UNL     1     -33.620 -66.926  62.352  0.00  0.00    +0.000 A 
ATOM      4  C   UNL     1     -32.970 -64.667  60.880  0.00  0.00    +0.000 A 
ATOM      5  C   UNL     1     -33.774 -66.935  60.966  0.00  0.00    +0.000 A 
ATOM      6  C   UNL     1     -33.453 -65.801  60.239  0.00  0.00    +0.000 A 
ENDROOT
BRANCH   2   7
ATOM      7  O   UNL     1     -32.273 -63.551  62.917  0.00  0.00    +0.000 OA
ATOM      8  C   UNL     1     -32.150 -62.384  62.153  0.00  0.00    +0.000 C 
ENDBRANCH   2   7
BRANCH   3   9
ATOM      9  O   UNL     1     -33.948 -68.099  62.985  0.00  0.00    +0.000 OA
ATOM     10  H   UNL     1     -33.236 -68.761  62.844  0.00  0.00    +0.000 HD
ENDBRANCH   3   9
BRANCH   6  11
ATOM     11  O   UNL     1     -33.609 -65.823  58.886  0.00  0.00    +0.000 OA
ATOM     12  H   UNL     1     -33.381 -66.711  58.557  0.00  0.00    +0.000 HD
ENDBRANCH   6  11
BRANCH   1  14
ATOM     13  O   UNL     1     -32.226 -66.568  65.040  0.00  0.00    +0.000 OA
ATOM     14  C   UNL     1     -33.058 -65.841  64.508  0.00  0.00    +0.000 C 
BRANCH  14  15
ATOM     15  C   UNL     1     -33.982 -65.110  65.339  0.00  0.00    +0.000 C 
ATOM     16  C   UNL     1     -34.755 -64.486  66.018  0.00  0.00    +0.000 C 
BRANCH  16  17
ATOM     17  C   UNL     1     -35.669 -63.751  66.828  0.00  0.00    +0.000 A 
ATOM     18  C   UNL     1     -36.901 -63.362  66.306  0.00  0.00    +0.000 A 
ATOM     19  C   UNL     1     -35.328 -63.422  68.138  0.00  0.00    +0.000 A 
ATOM     20  C   UNL     1     -37.794 -62.642  67.097  0.00  0.00    +0.000 A 
ATOM     21  C   UNL     1     -36.222 -62.702  68.928  0.00  0.00    +0.000 A 
ATOM     22  C   UNL     1     -37.454 -62.313  68.407  0.00  0.00    +0.000 A 
ENDBRANCH  16  17
ENDBRANCH  14  15
ENDBRANCH   1  14
TORSDOF 6
ENDMDL
MODEL 8
REMARK VINA RESULT:      -5.3     20.851     22.640
REMARK  Name = 641785_Cardamonin.pdbqt.pdb
REMARK  6 active torsions:
REMARK  status: ('A' for Active; 'I' for Inactive)
REMARK    1  A    between atoms: C_1  and  C_14
REMARK    2  A    between atoms: C_2  and  O_7
REMARK    3  A    between atoms: C_3  and  O_9
REMARK    4  A    between atoms: C_6  and  O_11
REMARK    5  A    between atoms: C_14  and  C_15
REMARK    6  A    between atoms: C_16  and  C_17
REMARK                            x       y       z     vdW  Elec       q    Type
REMARK                         _______ _______ _______ _____ _____    ______ ____
ROOT
ATOM      1  C   UNL     1     -43.876 -54.280  34.126  0.00  0.00    +0.000 A 
ATOM      2  C   UNL     1     -43.683 -53.727  32.845  0.00  0.00    +0.000 A 
ATOM      3  C   UNL     1     -44.552 -53.517  35.100  0.00  0.00    +0.000 A 
ATOM      4  C   UNL     1     -44.143 -52.428  32.582  0.00  0.00    +0.000 A 
ATOM      5  C   UNL     1     -44.994 -52.224  34.825  0.00  0.00    +0.000 A 
ATOM      6  C   UNL     1     -44.781 -51.685  33.567  0.00  0.00    +0.000 A 
ENDROOT
BRANCH   2   7
ATOM      7  O   UNL     1     -43.116 -54.503  31.861  0.00  0.00    +0.000 OA
ATOM      8  C   UNL     1     -41.849 -54.106  31.418  0.00  0.00    +0.000 C 
ENDBRANCH   2   7
BRANCH   3   9
ATOM      9  O   UNL     1     -44.821 -53.971  36.367  0.00  0.00    +0.000 OA
ATOM     10  H   UNL     1     -44.255 -53.497  37.015  0.00  0.00    +0.000 HD
ENDBRANCH   3   9
BRANCH   6  11
ATOM     11  O   UNL     1     -45.217 -50.420  33.313  0.00  0.00    +0.000 OA
ATOM     12  H   UNL     1     -45.773 -50.433  32.514  0.00  0.00    +0.000 HD
ENDBRANCH   6  11
BRANCH   1  14
ATOM     13  O   UNL     1     -44.209 -56.555  34.637  0.00  0.00    +0.000 OA
ATOM     14  C   UNL     1     -43.407 -55.635  34.512  0.00  0.00    +0.000 C 
BRANCH  14  15
ATOM     15  C   UNL     1     -42.018 -55.871  34.817  0.00  0.00    +0.000 C 
ATOM     16  C   UNL     1     -40.859 -56.081  35.058  0.00  0.00    +0.000 C 
BRANCH  16  17
ATOM     17  C   UNL     1     -39.485 -56.327  35.350  0.00  0.00    +0.000 A 
ATOM     18  C   UNL     1     -38.962 -57.610  35.200  0.00  0.00    +0.000 A 
ATOM     19  C   UNL     1     -38.669 -55.286  35.787  0.00  0.00    +0.000 A 
ATOM     20  C   UNL     1     -37.620 -57.851  35.486  0.00  0.00    +0.000 A 
ATOM     21  C   UNL     1     -37.327 -55.528  36.073  0.00  0.00    +0.000 A 
ATOM     22  C   UNL     1     -36.804 -56.810  35.923  0.00  0.00    +0.000 A 
ENDBRANCH  16  17
ENDBRANCH  14  15
ENDBRANCH   1  14
TORSDOF 6
ENDMDL
MODEL 9
REMARK VINA RESULT:      -5.2      2.408      3.604
REMARK  Name = 641785_Cardamonin.pdbqt.pdb
REMARK  6 active torsions:
REMARK  status: ('A' for Active; 'I' for Inactive)
REMARK    1  A    between atoms: C_1  and  C_14
REMARK    2  A    between atoms: C_2  and  O_7
REMARK    3  A    between atoms: C_3  and  O_9
REMARK    4  A    between atoms: C_6  and  O_11
REMARK    5  A    between atoms: C_14  and  C_15
REMARK    6  A    between atoms: C_16  and  C_17
REMARK                            x       y       z     vdW  Elec       q    Type
REMARK                         _______ _______ _______ _____ _____    ______ ____
ROOT
ATOM      1  C   UNL     1     -32.157 -52.325  53.537  0.00  0.00    +0.000 A 
ATOM      2  C   UNL     1     -31.479 -52.001  52.346  0.00  0.00    +0.000 A 
ATOM      3  C   UNL     1     -33.271 -51.549  53.918  0.00  0.00    +0.000 A 
ATOM      4  C   UNL     1     -31.912 -50.904  51.588  0.00  0.00    +0.000 A 
ATOM      5  C   UNL     1     -33.681 -50.455  53.157  0.00  0.00    +0.000 A 
ATOM      6  C   UNL     1     -32.994 -50.135  51.998  0.00  0.00    +0.000 A 
ENDROOT
BRANCH   2   7
ATOM      7  O   UNL     1     -30.457 -52.816  51.917  0.00  0.00    +0.000 OA
ATOM      8  C   UNL     1     -30.739 -53.620  50.806  0.00  0.00    +0.000 C 
ENDBRANCH   2   7
BRANCH   3   9
ATOM      9  O   UNL     1     -34.020 -51.797  55.040  0.00  0.00    +0.000 OA
ATOM     10  H   UNL     1     -34.897 -52.157  54.779  0.00  0.00    +0.000 HD
ENDBRANCH   3   9
BRANCH   6  11
ATOM     11  O   UNL     1     -33.405 -49.064  51.266  0.00  0.00    +0.000 OA
ATOM     12  H   UNL     1     -33.024 -48.254  51.651  0.00  0.00    +0.000 HD
ENDBRANCH   6  11
BRANCH   1  14
ATOM     13  O   UNL     1     -32.160 -54.589  54.189  0.00  0.00    +0.000 OA
ATOM     14  C   UNL     1     -31.765 -53.452  54.423  0.00  0.00    +0.000 C 
BRANCH  14  15
ATOM     15  C   UNL     1     -30.979 -53.213  55.608  0.00  0.00    +0.000 C 
ATOM     16  C   UNL     1     -30.324 -53.033  56.600  0.00  0.00    +0.000 C 
BRANCH  16  17
ATOM     17  C   UNL     1     -29.548 -52.813  57.776  0.00  0.00    +0.000 A 
ATOM     18  C   UNL     1     -29.647 -53.698  58.848  0.00  0.00    +0.000 A 
ATOM     19  C   UNL     1     -28.696 -51.714  57.852  0.00  0.00    +0.000 A 
ATOM     20  C   UNL     1     -28.891 -53.482  59.998  0.00  0.00    +0.000 A 
ATOM     21  C   UNL     1     -27.940 -51.499  59.002  0.00  0.00    +0.000 A 
ATOM     22  C   UNL     1     -28.038 -52.383  60.074  0.00  0.00    +0.000 A 
ENDBRANCH  16  17
ENDBRANCH  14  15
ENDBRANCH   1  14
TORSDOF 6
ENDMDL
