MODEL 1
REMARK VINA RESULT:      -6.8      0.000      0.000
REMARK  Name = 6440856_Goniothalamin.pdbqt.pdb
REMARK  2 active torsions:
REMARK  status: ('A' for Active; 'I' for Inactive)
REMARK    1  A    between atoms: C_1  and  C_5
REMARK    2  A    between atoms: C_2  and  C_10
REMARK                            x       y       z     vdW  Elec       q    Type
REMARK                         _______ _______ _______ _____ _____    ______ ____
ROOT
ATOM      1  C   UNL     1     -46.611 -61.270  43.116  0.00  0.00    +0.000 C 
ATOM      2  C   UNL     1     -45.826 -61.710  42.320  0.00  0.00    +0.000 C 
ENDROOT
BRANCH   1   5
ATOM      3  O   UNL     1     -48.823 -60.319  43.587  0.00  0.00    +0.000 OA
ATOM      4  O   UNL     1     -50.849 -59.410  44.255  0.00  0.00    +0.000 OA
ATOM      5  C   UNL     1     -47.533 -60.754  44.055  0.00  0.00    +0.000 A 
ATOM      6  C   UNL     1     -47.314 -60.616  45.453  0.00  0.00    +0.000 A 
ATOM      7  C   UNL     1     -48.241 -60.079  46.519  0.00  0.00    +0.000 A 
ATOM      8  C   UNL     1     -49.215 -59.794  45.883  0.00  0.00    +0.000 A 
ATOM      9  C   UNL     1     -49.727 -59.810  44.527  0.00  0.00    +0.000 A 
ENDBRANCH   1   5
BRANCH   2  10
ATOM     10  C   UNL     1     -44.894 -62.233  41.376  0.00  0.00    +0.000 A 
ATOM     11  C   UNL     1     -44.624 -63.599  41.348  0.00  0.00    +0.000 A 
ATOM     12  C   UNL     1     -44.256 -61.376  40.482  0.00  0.00    +0.000 A 
ATOM     13  C   UNL     1     -43.712 -64.109  40.426  0.00  0.00    +0.000 A 
ATOM     14  C   UNL     1     -43.346 -61.887  39.559  0.00  0.00    +0.000 A 
ATOM     15  C   UNL     1     -43.075 -63.253  39.532  0.00  0.00    +0.000 A 
ENDBRANCH   2  10
TORSDOF 2
ENDMDL
MODEL 2
REMARK VINA RESULT:      -6.7      1.855      2.187
REMARK  Name = 6440856_Goniothalamin.pdbqt.pdb
REMARK  2 active torsions:
REMARK  status: ('A' for Active; 'I' for Inactive)
REMARK    1  A    between atoms: C_1  and  C_5
REMARK    2  A    between atoms: C_2  and  C_10
REMARK                            x       y       z     vdW  Elec       q    Type
REMARK                         _______ _______ _______ _____ _____    ______ ____
ROOT
ATOM      1  C   UNL     1     -47.628 -61.797  42.679  0.00  0.00    +0.000 C 
ATOM      2  C   UNL     1     -47.227 -62.366  41.701  0.00  0.00    +0.000 C 
ENDROOT
BRANCH   1   5
ATOM      3  O   UNL     1     -49.436 -60.587  43.814  0.00  0.00    +0.000 OA
ATOM      4  O   UNL     1     -51.002 -59.426  45.070  0.00  0.00    +0.000 OA
ATOM      5  C   UNL     1     -48.102 -61.130  43.832  0.00  0.00    +0.000 A 
ATOM      6  C   UNL     1     -47.381 -60.933  45.041  0.00  0.00    +0.000 A 
ATOM      7  C   UNL     1     -47.812 -60.237  46.311  0.00  0.00    +0.000 A 
ATOM      8  C   UNL     1     -48.925 -59.887  46.040  0.00  0.00    +0.000 A 
ATOM      9  C   UNL     1     -49.893 -59.928  44.961  0.00  0.00    +0.000 A 
ENDBRANCH   1   5
BRANCH   2  10
ATOM     10  C   UNL     1     -46.751 -63.043  40.539  0.00  0.00    +0.000 A 
ATOM     11  C   UNL     1     -47.106 -62.585  39.273  0.00  0.00    +0.000 A 
ATOM     12  C   UNL     1     -45.930 -64.161  40.673  0.00  0.00    +0.000 A 
ATOM     13  C   UNL     1     -46.641 -63.247  38.138  0.00  0.00    +0.000 A 
ATOM     14  C   UNL     1     -45.465 -64.822  39.539  0.00  0.00    +0.000 A 
ATOM     15  C   UNL     1     -45.821 -64.364  38.272  0.00  0.00    +0.000 A 
ENDBRANCH   2  10
TORSDOF 2
ENDMDL
MODEL 3
REMARK VINA RESULT:      -6.6      2.581      7.086
REMARK  Name = 6440856_Goniothalamin.pdbqt.pdb
REMARK  2 active torsions:
REMARK  status: ('A' for Active; 'I' for Inactive)
REMARK    1  A    between atoms: C_1  and  C_5
REMARK    2  A    between atoms: C_2  and  C_10
REMARK                            x       y       z     vdW  Elec       q    Type
REMARK                         _______ _______ _______ _____ _____    ______ ____
ROOT
ATOM      1  C   UNL     1     -45.860 -61.686  42.322  0.00  0.00    +0.000 C 
ATOM      2  C   UNL     1     -46.656 -61.233  43.099  0.00  0.00    +0.000 C 
ENDROOT
BRANCH   1   5
ATOM      3  O   UNL     1     -44.589 -63.618  41.503  0.00  0.00    +0.000 OA
ATOM      4  O   UNL     1     -43.293 -65.301  40.572  0.00  0.00    +0.000 OA
ATOM      5  C   UNL     1     -44.921 -62.220  41.411  0.00  0.00    +0.000 A 
ATOM      6  C   UNL     1     -44.251 -61.502  40.382  0.00  0.00    +0.000 A 
ATOM      7  C   UNL     1     -43.240 -61.995  39.373  0.00  0.00    +0.000 A 
ATOM      8  C   UNL     1     -43.144 -63.153  39.659  0.00  0.00    +0.000 A 
ATOM      9  C   UNL     1     -43.657 -64.135  40.595  0.00  0.00    +0.000 A 
ENDBRANCH   1   5
BRANCH   2  10
ATOM     10  C   UNL     1     -47.601 -60.694  44.022  0.00  0.00    +0.000 A 
ATOM     11  C   UNL     1     -48.818 -60.197  43.561  0.00  0.00    +0.000 A 
ATOM     12  C   UNL     1     -47.305 -60.667  45.383  0.00  0.00    +0.000 A 
ATOM     13  C   UNL     1     -49.740 -59.671  44.462  0.00  0.00    +0.000 A 
ATOM     14  C   UNL     1     -48.228 -60.141  46.284  0.00  0.00    +0.000 A 
ATOM     15  C   UNL     1     -49.445 -59.644  45.823  0.00  0.00    +0.000 A 
ENDBRANCH   2  10
TORSDOF 2
ENDMDL
MODEL 4
REMARK VINA RESULT:      -6.5     17.471     19.174
REMARK  Name = 6440856_Goniothalamin.pdbqt.pdb
REMARK  2 active torsions:
REMARK  status: ('A' for Active; 'I' for Inactive)
REMARK    1  A    between atoms: C_1  and  C_5
REMARK    2  A    between atoms: C_2  and  C_10
REMARK                            x       y       z     vdW  Elec       q    Type
REMARK                         _______ _______ _______ _____ _____    ______ ____
ROOT
ATOM      1  C   UNL     1     -63.804 -66.254  37.612  0.00  0.00    +0.000 C 
ATOM      2  C   UNL     1     -63.876 -66.341  36.416  0.00  0.00    +0.000 C 
ENDROOT
BRANCH   1   5
ATOM      3  O   UNL     1     -64.909 -66.379  39.799  0.00  0.00    +0.000 OA
ATOM      4  O   UNL     1     -65.746 -66.446  41.960  0.00  0.00    +0.000 OA
ATOM      5  C   UNL     1     -63.719 -66.156  39.020  0.00  0.00    +0.000 A 
ATOM      6  C   UNL     1     -62.549 -65.852  39.768  0.00  0.00    +0.000 A 
ATOM      7  C   UNL     1     -62.374 -65.730  41.264  0.00  0.00    +0.000 A 
ATOM      8  C   UNL     1     -63.480 -65.954  41.665  0.00  0.00    +0.000 A 
ATOM      9  C   UNL     1     -64.811 -66.279  41.192  0.00  0.00    +0.000 A 
ENDBRANCH   1   5
BRANCH   2  10
ATOM     10  C   UNL     1     -63.961 -66.444  34.997  0.00  0.00    +0.000 A 
ATOM     11  C   UNL     1     -63.583 -67.624  34.361  0.00  0.00    +0.000 A 
ATOM     12  C   UNL     1     -64.422 -65.363  34.247  0.00  0.00    +0.000 A 
ATOM     13  C   UNL     1     -63.666 -67.724  32.974  0.00  0.00    +0.000 A 
ATOM     14  C   UNL     1     -64.504 -65.464  32.860  0.00  0.00    +0.000 A 
ATOM     15  C   UNL     1     -64.127 -66.644  32.225  0.00  0.00    +0.000 A 
ENDBRANCH   2  10
TORSDOF 2
ENDMDL
MODEL 5
REMARK VINA RESULT:      -6.3     22.481     23.841
REMARK  Name = 6440856_Goniothalamin.pdbqt.pdb
REMARK  2 active torsions:
REMARK  status: ('A' for Active; 'I' for Inactive)
REMARK    1  A    between atoms: C_1  and  C_5
REMARK    2  A    between atoms: C_2  and  C_10
REMARK                            x       y       z     vdW  Elec       q    Type
REMARK                         _______ _______ _______ _____ _____    ______ ____
ROOT
ATOM      1  C   UNL     1     -63.967 -69.056  29.609  0.00  0.00    +0.000 C 
ATOM      2  C   UNL     1     -63.918 -68.590  30.714  0.00  0.00    +0.000 C 
ENDROOT
BRANCH   1   5
ATOM      3  O   UNL     1     -62.899 -69.415  27.429  0.00  0.00    +0.000 OA
ATOM      4  O   UNL     1     -62.082 -69.870  25.307  0.00  0.00    +0.000 OA
ATOM      5  C   UNL     1     -64.026 -69.601  28.306  0.00  0.00    +0.000 A 
ATOM      6  C   UNL     1     -65.112 -70.335  27.754  0.00  0.00    +0.000 A 
ATOM      7  C   UNL     1     -65.254 -70.948  26.380  0.00  0.00    +0.000 A 
ATOM      8  C   UNL     1     -64.212 -70.657  25.867  0.00  0.00    +0.000 A 
ATOM      9  C   UNL     1     -62.970 -69.960  26.141  0.00  0.00    +0.000 A 
ENDBRANCH   1   5
BRANCH   2  10
ATOM     10  C   UNL     1     -63.859 -68.037  32.027  0.00  0.00    +0.000 A 
ATOM     11  C   UNL     1     -64.321 -66.743  32.258  0.00  0.00    +0.000 A 
ATOM     12  C   UNL     1     -63.340 -68.791  33.077  0.00  0.00    +0.000 A 
ATOM     13  C   UNL     1     -64.262 -66.202  33.541  0.00  0.00    +0.000 A 
ATOM     14  C   UNL     1     -63.282 -68.250  34.360  0.00  0.00    +0.000 A 
ATOM     15  C   UNL     1     -63.744 -66.956  34.591  0.00  0.00    +0.000 A 
ENDBRANCH   2  10
TORSDOF 2
ENDMDL
MODEL 6
REMARK VINA RESULT:      -6.0      3.922      7.657
REMARK  Name = 6440856_Goniothalamin.pdbqt.pdb
REMARK  2 active torsions:
REMARK  status: ('A' for Active; 'I' for Inactive)
REMARK    1  A    between atoms: C_1  and  C_5
REMARK    2  A    between atoms: C_2  and  C_10
REMARK                            x       y       z     vdW  Elec       q    Type
REMARK                         _______ _______ _______ _____ _____    ______ ____
ROOT
ATOM      1  C   UNL     1     -44.641 -64.101  41.604  0.00  0.00    +0.000 C 
ATOM      2  C   UNL     1     -45.215 -63.234  42.205  0.00  0.00    +0.000 C 
ENDROOT
BRANCH   1   5
ATOM      3  O   UNL     1     -42.903 -65.833  41.569  0.00  0.00    +0.000 OA
ATOM      4  O   UNL     1     -41.326 -67.514  41.317  0.00  0.00    +0.000 OA
ATOM      5  C   UNL     1     -43.963 -65.123  40.901  0.00  0.00    +0.000 A 
ATOM      6  C   UNL     1     -44.225 -65.536  39.566  0.00  0.00    +0.000 A 
ATOM      7  C   UNL     1     -43.552 -66.612  38.747  0.00  0.00    +0.000 A 
ATOM      8  C   UNL     1     -42.733 -67.034  39.512  0.00  0.00    +0.000 A 
ATOM      9  C   UNL     1     -42.239 -66.842  40.862  0.00  0.00    +0.000 A 
ENDBRANCH   1   5
BRANCH   2  10
ATOM     10  C   UNL     1     -45.897 -62.204  42.917  0.00  0.00    +0.000 A 
ATOM     11  C   UNL     1     -46.137 -62.344  44.283  0.00  0.00    +0.000 A 
ATOM     12  C   UNL     1     -46.322 -61.059  42.247  0.00  0.00    +0.000 A 
ATOM     13  C   UNL     1     -46.804 -61.338  44.978  0.00  0.00    +0.000 A 
ATOM     14  C   UNL     1     -46.989 -60.053  42.944  0.00  0.00    +0.000 A 
ATOM     15  C   UNL     1     -47.228 -60.193  44.309  0.00  0.00    +0.000 A 
ENDBRANCH   2  10
TORSDOF 2
ENDMDL
MODEL 7
REMARK VINA RESULT:      -6.0      2.884      6.880
REMARK  Name = 6440856_Goniothalamin.pdbqt.pdb
REMARK  2 active torsions:
REMARK  status: ('A' for Active; 'I' for Inactive)
REMARK    1  A    between atoms: C_1  and  C_5
REMARK    2  A    between atoms: C_2  and  C_10
REMARK                            x       y       z     vdW  Elec       q    Type
REMARK                         _______ _______ _______ _____ _____    ______ ____
ROOT
ATOM      1  C   UNL     1     -47.103 -62.678  41.913  0.00  0.00    +0.000 C 
ATOM      2  C   UNL     1     -47.507 -62.132  42.903  0.00  0.00    +0.000 C 
ENDROOT
BRANCH   1   5
ATOM      3  O   UNL     1     -47.102 -62.874  39.466  0.00  0.00    +0.000 OA
ATOM      4  O   UNL     1     -46.949 -63.234  37.181  0.00  0.00    +0.000 OA
ATOM      5  C   UNL     1     -46.624 -63.322  40.749  0.00  0.00    +0.000 A 
ATOM      6  C   UNL     1     -45.693 -64.396  40.710  0.00  0.00    +0.000 A 
ATOM      7  C   UNL     1     -45.133 -65.136  39.517  0.00  0.00    +0.000 A 
ATOM      8  C   UNL     1     -45.677 -64.585  38.603  0.00  0.00    +0.000 A 
ATOM      9  C   UNL     1     -46.621 -63.520  38.322  0.00  0.00    +0.000 A 
ENDBRANCH   1   5
BRANCH   2  10
ATOM     10  C   UNL     1     -47.988 -61.484  44.079  0.00  0.00    +0.000 A 
ATOM     11  C   UNL     1     -47.559 -61.913  45.333  0.00  0.00    +0.000 A 
ATOM     12  C   UNL     1     -48.885 -60.424  43.971  0.00  0.00    +0.000 A 
ATOM     13  C   UNL     1     -48.029 -61.280  46.482  0.00  0.00    +0.000 A 
ATOM     14  C   UNL     1     -49.354 -59.791  45.120  0.00  0.00    +0.000 A 
ATOM     15  C   UNL     1     -48.925 -60.219  46.375  0.00  0.00    +0.000 A 
ENDBRANCH   2  10
TORSDOF 2
ENDMDL
MODEL 8
REMARK VINA RESULT:      -5.8      2.117      2.714
REMARK  Name = 6440856_Goniothalamin.pdbqt.pdb
REMARK  2 active torsions:
REMARK  status: ('A' for Active; 'I' for Inactive)
REMARK    1  A    between atoms: C_1  and  C_5
REMARK    2  A    between atoms: C_2  and  C_10
REMARK                            x       y       z     vdW  Elec       q    Type
REMARK                         _______ _______ _______ _____ _____    ______ ____
ROOT
ATOM      1  C   UNL     1     -47.995 -61.079  41.936  0.00  0.00    +0.000 C 
ATOM      2  C   UNL     1     -47.197 -61.898  41.571  0.00  0.00    +0.000 C 
ENDROOT
BRANCH   1   5
ATOM      3  O   UNL     1     -49.615 -60.319  43.616  0.00  0.00    +0.000 OA
ATOM      4  O   UNL     1     -51.183 -59.415  45.066  0.00  0.00    +0.000 OA
ATOM      5  C   UNL     1     -48.936 -60.113  42.362  0.00  0.00    +0.000 A 
ATOM      6  C   UNL     1     -49.292 -58.927  41.665  0.00  0.00    +0.000 A 
ATOM      7  C   UNL     1     -50.279 -57.850  42.048  0.00  0.00    +0.000 A 
ATOM      8  C   UNL     1     -50.693 -58.251  43.098  0.00  0.00    +0.000 A 
ATOM      9  C   UNL     1     -50.544 -59.355  44.026  0.00  0.00    +0.000 A 
ENDBRANCH   1   5
BRANCH   2  10
ATOM     10  C   UNL     1     -46.249 -62.871  41.137  0.00  0.00    +0.000 A 
ATOM     11  C   UNL     1     -46.275 -63.331  39.822  0.00  0.00    +0.000 A 
ATOM     12  C   UNL     1     -45.296 -63.360  42.029  0.00  0.00    +0.000 A 
ATOM     13  C   UNL     1     -45.349 -64.282  39.399  0.00  0.00    +0.000 A 
ATOM     14  C   UNL     1     -44.370 -64.310  41.605  0.00  0.00    +0.000 A 
ATOM     15  C   UNL     1     -44.397 -64.770  40.290  0.00  0.00    +0.000 A 
ENDBRANCH   2  10
TORSDOF 2
ENDMDL
MODEL 9
REMARK VINA RESULT:      -5.8     20.381     21.682
REMARK  Name = 6440856_Goniothalamin.pdbqt.pdb
REMARK  2 active torsions:
REMARK  status: ('A' for Active; 'I' for Inactive)
REMARK    1  A    between atoms: C_1  and  C_5
REMARK    2  A    between atoms: C_2  and  C_10
REMARK                            x       y       z     vdW  Elec       q    Type
REMARK                         _______ _______ _______ _____ _____    ______ ____
ROOT
ATOM      1  C   UNL     1     -37.351 -43.860  50.201  0.00  0.00    +0.000 C 
ATOM      2  C   UNL     1     -38.252 -43.373  49.574  0.00  0.00    +0.000 C 
ENDROOT
BRANCH   1   5
ATOM      3  O   UNL     1     -36.493 -45.729  51.540  0.00  0.00    +0.000 OA
ATOM      4  O   UNL     1     -35.483 -47.374  52.824  0.00  0.00    +0.000 OA
ATOM      5  C   UNL     1     -36.293 -44.433  50.943  0.00  0.00    +0.000 A 
ATOM      6  C   UNL     1     -35.016 -43.850  51.167  0.00  0.00    +0.000 A 
ATOM      7  C   UNL     1     -33.838 -44.393  51.942  0.00  0.00    +0.000 A 
ATOM      8  C   UNL     1     -34.255 -45.448  52.325  0.00  0.00    +0.000 A 
ATOM      9  C   UNL     1     -35.437 -46.285  52.272  0.00  0.00    +0.000 A 
ENDBRANCH   1   5
BRANCH   2  10
ATOM     10  C   UNL     1     -39.322 -42.795  48.829  0.00  0.00    +0.000 A 
ATOM     11  C   UNL     1     -39.610 -43.262  47.548  0.00  0.00    +0.000 A 
ATOM     12  C   UNL     1     -40.079 -41.765  49.384  0.00  0.00    +0.000 A 
ATOM     13  C   UNL     1     -40.654 -42.696  46.821  0.00  0.00    +0.000 A 
ATOM     14  C   UNL     1     -41.124 -41.201  48.656  0.00  0.00    +0.000 A 
ATOM     15  C   UNL     1     -41.412 -41.667  47.375  0.00  0.00    +0.000 A 
ENDBRANCH   2  10
TORSDOF 2
ENDMDL
