MODEL 1
REMARK VINA RESULT:      -4.3      0.000      0.000
REMARK  Name = 649_Dihydrouracil.pdb
REMARK  0 active torsions:
REMARK  status: ('A' for Active; 'I' for Inactive)
REMARK                            x       y       z     vdW  Elec       q    Type
REMARK                         _______ _______ _______ _____ _____    ______ ____
ROOT
ATOM      1  O   UNL     1     -46.738 -60.404  42.964  0.00  0.00    +0.000 OA
ATOM      2  O   UNL     1     -51.014 -59.385  44.367  0.00  0.00    +0.000 OA
ATOM      3  N   UNL     1     -49.460 -59.892  45.975  0.00  0.00    +0.000 N 
ATOM      4  N   UNL     1     -48.879 -59.896  43.689  0.00  0.00    +0.000 N 
ATOM      5  C   UNL     1     -48.209 -60.239  46.305  0.00  0.00    +0.000 A 
ATOM      6  C   UNL     1     -47.174 -60.438  45.246  0.00  0.00    +0.000 A 
ATOM      7  C   UNL     1     -47.542 -60.254  43.870  0.00  0.00    +0.000 A 
ATOM      8  C   UNL     1     -49.867 -59.702  44.660  0.00  0.00    +0.000 A 
ATOM      9  H   UNL     1     -50.153 -59.759  46.700  0.00  0.00    +0.000 HD
ATOM     10  H   UNL     1     -49.170 -59.759  42.734  0.00  0.00    +0.000 HD
ENDROOT
TORSDOF 0
ENDMDL
MODEL 2
REMARK VINA RESULT:      -3.9     19.526     20.179
REMARK  Name = 649_Dihydrouracil.pdb
REMARK  0 active torsions:
REMARK  status: ('A' for Active; 'I' for Inactive)
REMARK                            x       y       z     vdW  Elec       q    Type
REMARK                         _______ _______ _______ _____ _____    ______ ____
ROOT
ATOM      1  O   UNL     1     -30.906 -49.466  53.868  0.00  0.00    +0.000 OA
ATOM      2  O   UNL     1     -35.424 -50.147  53.224  0.00  0.00    +0.000 OA
ATOM      3  N   UNL     1     -34.020 -51.928  52.879  0.00  0.00    +0.000 N 
ATOM      4  N   UNL     1     -33.170 -49.829  53.539  0.00  0.00    +0.000 N 
ATOM      5  C   UNL     1     -32.781 -52.437  52.864  0.00  0.00    +0.000 A 
ATOM      6  C   UNL     1     -31.607 -51.584  53.218  0.00  0.00    +0.000 A 
ATOM      7  C   UNL     1     -31.828 -50.210  53.571  0.00  0.00    +0.000 A 
ATOM      8  C   UNL     1     -34.287 -50.606  53.213  0.00  0.00    +0.000 A 
ATOM      9  H   UNL     1     -34.809 -52.515  52.638  0.00  0.00    +0.000 HD
ATOM     10  H   UNL     1     -33.359 -48.870  53.782  0.00  0.00    +0.000 HD
ENDROOT
TORSDOF 0
ENDMDL
MODEL 3
REMARK VINA RESULT:      -3.7     16.465     16.899
REMARK  Name = 649_Dihydrouracil.pdb
REMARK  0 active torsions:
REMARK  status: ('A' for Active; 'I' for Inactive)
REMARK                            x       y       z     vdW  Elec       q    Type
REMARK                         _______ _______ _______ _____ _____    ______ ____
ROOT
ATOM      1  O   UNL     1     -62.955 -67.268  42.088  0.00  0.00    +0.000 OA
ATOM      2  O   UNL     1     -64.315 -63.135  40.551  0.00  0.00    +0.000 OA
ATOM      3  N   UNL     1     -64.282 -64.869  39.051  0.00  0.00    +0.000 N 
ATOM      4  N   UNL     1     -63.641 -65.202  41.296  0.00  0.00    +0.000 N 
ATOM      5  C   UNL     1     -64.045 -66.160  38.780  0.00  0.00    +0.000 A 
ATOM      6  C   UNL     1     -63.560 -67.082  39.852  0.00  0.00    +0.000 A 
ATOM      7  C   UNL     1     -63.352 -66.562  41.174  0.00  0.00    +0.000 A 
ATOM      8  C   UNL     1     -64.096 -64.317  40.312  0.00  0.00    +0.000 A 
ATOM      9  H   UNL     1     -64.611 -64.254  38.318  0.00  0.00    +0.000 HD
ATOM     10  H   UNL     1     -63.505 -64.806  42.212  0.00  0.00    +0.000 HD
ENDROOT
TORSDOF 0
ENDMDL
MODEL 4
REMARK VINA RESULT:      -3.5     28.384     29.094
REMARK  Name = 649_Dihydrouracil.pdb
REMARK  0 active torsions:
REMARK  status: ('A' for Active; 'I' for Inactive)
REMARK                            x       y       z     vdW  Elec       q    Type
REMARK                         _______ _______ _______ _____ _____    ______ ____
ROOT
ATOM      1  O   UNL     1     -33.963 -47.292  69.318  0.00  0.00    +0.000 OA
ATOM      2  O   UNL     1     -37.272 -50.143  67.829  0.00  0.00    +0.000 OA
ATOM      3  N   UNL     1     -35.372 -49.964  66.559  0.00  0.00    +0.000 N 
ATOM      4  N   UNL     1     -35.612 -48.729  68.553  0.00  0.00    +0.000 N 
ATOM      5  C   UNL     1     -34.160 -49.429  66.360  0.00  0.00    +0.000 A 
ATOM      6  C   UNL     1     -33.596 -48.449  67.337  0.00  0.00    +0.000 A 
ATOM      7  C   UNL     1     -34.374 -48.089  68.489  0.00  0.00    +0.000 A 
ATOM      8  C   UNL     1     -36.164 -49.650  67.656  0.00  0.00    +0.000 A 
ATOM      9  H   UNL     1     -35.744 -50.628  65.891  0.00  0.00    +0.000 HD
ATOM     10  H   UNL     1     -36.183 -48.498  69.351  0.00  0.00    +0.000 HD
ENDROOT
TORSDOF 0
ENDMDL
MODEL 5
REMARK VINA RESULT:      -3.5     13.749     14.123
REMARK  Name = 649_Dihydrouracil.pdb
REMARK  0 active torsions:
REMARK  status: ('A' for Active; 'I' for Inactive)
REMARK                            x       y       z     vdW  Elec       q    Type
REMARK                         _______ _______ _______ _____ _____    ______ ____
ROOT
ATOM      1  O   UNL     1     -33.686 -59.871  43.939  0.00  0.00    +0.000 OA
ATOM      2  O   UNL     1     -34.908 -60.391  48.358  0.00  0.00    +0.000 OA
ATOM      3  N   UNL     1     -35.518 -62.039  46.886  0.00  0.00    +0.000 N 
ATOM      4  N   UNL     1     -34.309 -60.151  46.152  0.00  0.00    +0.000 N 
ATOM      5  C   UNL     1     -35.529 -62.530  45.639  0.00  0.00    +0.000 A 
ATOM      6  C   UNL     1     -34.875 -61.780  44.524  0.00  0.00    +0.000 A 
ATOM      7  C   UNL     1     -34.235 -60.527  44.811  0.00  0.00    +0.000 A 
ATOM      8  C   UNL     1     -34.913 -60.832  47.215  0.00  0.00    +0.000 A 
ATOM      9  H   UNL     1     -35.964 -62.555  47.633  0.00  0.00    +0.000 HD
ATOM     10  H   UNL     1     -33.870 -59.275  46.387  0.00  0.00    +0.000 HD
ENDROOT
TORSDOF 0
ENDMDL
MODEL 6
REMARK VINA RESULT:      -3.4     13.114     13.981
REMARK  Name = 649_Dihydrouracil.pdb
REMARK  0 active torsions:
REMARK  status: ('A' for Active; 'I' for Inactive)
REMARK                            x       y       z     vdW  Elec       q    Type
REMARK                         _______ _______ _______ _____ _____    ______ ____
ROOT
ATOM      1  O   UNL     1     -33.468 -60.632  47.256  0.00  0.00    +0.000 OA
ATOM      2  O   UNL     1     -35.045 -59.964  42.971  0.00  0.00    +0.000 OA
ATOM      3  N   UNL     1     -35.954 -61.685  44.182  0.00  0.00    +0.000 N 
ATOM      4  N   UNL     1     -34.273 -60.314  45.107  0.00  0.00    +0.000 N 
ATOM      5  C   UNL     1     -36.011 -62.398  45.315  0.00  0.00    +0.000 A 
ATOM      6  C   UNL     1     -35.126 -62.057  46.470  0.00  0.00    +0.000 A 
ATOM      7  C   UNL     1     -34.215 -60.955  46.345  0.00  0.00    +0.000 A 
ATOM      8  C   UNL     1     -35.090 -60.610  44.011  0.00  0.00    +0.000 A 
ATOM      9  H   UNL     1     -36.558 -61.925  43.406  0.00  0.00    +0.000 HD
ATOM     10  H   UNL     1     -33.645 -59.535  44.987  0.00  0.00    +0.000 HD
ENDROOT
TORSDOF 0
ENDMDL
MODEL 7
REMARK VINA RESULT:      -3.3     12.354     13.103
REMARK  Name = 649_Dihydrouracil.pdb
REMARK  0 active torsions:
REMARK  status: ('A' for Active; 'I' for Inactive)
REMARK                            x       y       z     vdW  Elec       q    Type
REMARK                         _______ _______ _______ _____ _____    ______ ____
ROOT
ATOM      1  O   UNL     1     -37.761 -61.219  39.758  0.00  0.00    +0.000 OA
ATOM      2  O   UNL     1     -35.743 -61.251  43.907  0.00  0.00    +0.000 OA
ATOM      3  N   UNL     1     -35.050 -59.667  42.401  0.00  0.00    +0.000 N 
ATOM      4  N   UNL     1     -36.735 -61.218  41.835  0.00  0.00    +0.000 N 
ATOM      5  C   UNL     1     -35.142 -59.108  41.187  0.00  0.00    +0.000 A 
ATOM      6  C   UNL     1     -36.115 -59.634  40.182  0.00  0.00    +0.000 A 
ATOM      7  C   UNL     1     -36.949 -60.748  40.539  0.00  0.00    +0.000 A 
ATOM      8  C   UNL     1     -35.834 -60.745  42.795  0.00  0.00    +0.000 A 
ATOM      9  H   UNL     1     -34.388 -59.303  43.074  0.00  0.00    +0.000 HD
ATOM     10  H   UNL     1     -37.305 -62.000  42.117  0.00  0.00    +0.000 HD
ENDROOT
TORSDOF 0
ENDMDL
MODEL 8
REMARK VINA RESULT:      -3.2     13.186     13.949
REMARK  Name = 649_Dihydrouracil.pdb
REMARK  0 active torsions:
REMARK  status: ('A' for Active; 'I' for Inactive)
REMARK                            x       y       z     vdW  Elec       q    Type
REMARK                         _______ _______ _______ _____ _____    ______ ____
ROOT
ATOM      1  O   UNL     1     -36.036 -60.743  42.784  0.00  0.00    +0.000 OA
ATOM      2  O   UNL     1     -34.956 -62.115  47.056  0.00  0.00    +0.000 OA
ATOM      3  N   UNL     1     -34.393 -63.502  45.319  0.00  0.00    +0.000 N 
ATOM      4  N   UNL     1     -35.485 -61.450  44.920  0.00  0.00    +0.000 N 
ATOM      5  C   UNL     1     -34.375 -63.761  44.005  0.00  0.00    +0.000 A 
ATOM      6  C   UNL     1     -34.960 -62.788  43.033  0.00  0.00    +0.000 A 
ATOM      7  C   UNL     1     -35.542 -61.573  43.532  0.00  0.00    +0.000 A 
ATOM      8  C   UNL     1     -34.943 -62.343  45.852  0.00  0.00    +0.000 A 
ATOM      9  H   UNL     1     -33.993 -64.168  45.968  0.00  0.00    +0.000 HD
ATOM     10  H   UNL     1     -35.885 -60.608  45.302  0.00  0.00    +0.000 HD
ENDROOT
TORSDOF 0
ENDMDL
MODEL 9
REMARK VINA RESULT:      -3.2     12.817     13.828
REMARK  Name = 649_Dihydrouracil.pdb
REMARK  0 active torsions:
REMARK  status: ('A' for Active; 'I' for Inactive)
REMARK                            x       y       z     vdW  Elec       q    Type
REMARK                         _______ _______ _______ _____ _____    ______ ____
ROOT
ATOM      1  O   UNL     1     -45.545 -52.472  31.288  0.00  0.00    +0.000 OA
ATOM      2  O   UNL     1     -44.233 -54.601  35.166  0.00  0.00    +0.000 OA
ATOM      3  N   UNL     1     -44.780 -52.379  35.306  0.00  0.00    +0.000 N 
ATOM      4  N   UNL     1     -44.889 -53.522  33.246  0.00  0.00    +0.000 N 
ATOM      5  C   UNL     1     -45.188 -51.249  34.713  0.00  0.00    +0.000 A 
ATOM      6  C   UNL     1     -45.482 -51.226  33.248  0.00  0.00    +0.000 A 
ATOM      7  C   UNL     1     -45.320 -52.433  32.487  0.00  0.00    +0.000 A 
ATOM      8  C   UNL     1     -44.607 -53.572  34.615  0.00  0.00    +0.000 A 
ATOM      9  H   UNL     1     -44.584 -52.383  36.299  0.00  0.00    +0.000 HD
ATOM     10  H   UNL     1     -44.765 -54.386  32.741  0.00  0.00    +0.000 HD
ENDROOT
TORSDOF 0
ENDMDL
