MODEL 1
REMARK VINA RESULT:      -9.0      0.000      0.000
REMARK  Name = 6509753_ManzamineA.pdbqt.pdb
REMARK  2 active torsions:
REMARK  status: ('A' for Active; 'I' for Inactive)
REMARK    1  A    between atoms: C_7  and  O_42
REMARK    2  A    between atoms: C_11  and  C_30
REMARK                            x       y       z     vdW  Elec       q    Type
REMARK                         _______ _______ _______ _____ _____    ______ ____
ROOT
ATOM      1  N   UNL     1     -44.919 -63.540  38.180  0.00  0.00    +0.000 N 
ATOM      2  N   UNL     1     -46.620 -59.465  35.870  0.00  0.00    +0.000 N 
ATOM      3  C   UNL     1     -45.888 -62.220  36.250  0.00  0.00    +0.000 C 
ATOM      4  C   UNL     1     -44.610 -62.827  36.914  0.00  0.00    +0.000 C 
ATOM      5  C   UNL     1     -46.192 -62.543  34.728  0.00  0.00    +0.000 C 
ATOM      6  C   UNL     1     -46.856 -62.877  37.124  0.00  0.00    +0.000 C 
ATOM      7  C   UNL     1     -43.513 -63.410  36.018  0.00  0.00    +0.000 C 
ATOM      8  C   UNL     1     -46.008 -60.727  36.399  0.00  0.00    +0.000 C 
ATOM      9  C   UNL     1     -46.389 -63.445  38.323  0.00  0.00    +0.000 C 
ATOM     10  C   UNL     1     -46.885 -61.477  34.050  0.00  0.00    +0.000 C 
ATOM     11  C   UNL     1     -45.204 -63.327  34.001  0.00  0.00    +0.000 C 
ATOM     12  C   UNL     1     -44.154 -63.552  34.727  0.00  0.00    +0.000 C 
ATOM     13  C   UNL     1     -47.032 -60.049  34.585  0.00  0.00    +0.000 C 
ATOM     14  C   UNL     1     -44.193 -62.976  39.321  0.00  0.00    +0.000 C 
ATOM     15  C   UNL     1     -42.339 -62.543  36.020  0.00  0.00    +0.000 C 
ATOM     16  C   UNL     1     -47.007 -63.310  39.602  0.00  0.00    +0.000 C 
ATOM     17  C   UNL     1     -45.544 -58.521  35.619  0.00  0.00    +0.000 C 
ATOM     18  C   UNL     1     -43.951 -62.475  40.758  0.00  0.00    +0.000 C 
ATOM     19  C   UNL     1     -41.218 -61.504  35.953  0.00  0.00    +0.000 C 
ATOM     20  C   UNL     1     -47.091 -63.044  40.771  0.00  0.00    +0.000 C 
ATOM     21  C   UNL     1     -44.824 -62.286  41.997  0.00  0.00    +0.000 C 
ATOM     22  C   UNL     1     -44.295 -57.656  35.429  0.00  0.00    +0.000 C 
ATOM     23  C   UNL     1     -46.321 -62.572  42.006  0.00  0.00    +0.000 C 
ATOM     24  C   UNL     1     -40.502 -60.164  35.798  0.00  0.00    +0.000 C 
ATOM     25  C   UNL     1     -42.821 -57.268  35.354  0.00  0.00    +0.000 C 
ATOM     26  C   UNL     1     -41.371 -57.716  35.431  0.00  0.00    +0.000 C 
ATOM     27  C   UNL     1     -40.552 -58.980  35.630  0.00  0.00    +0.000 C 
ENDROOT
BRANCH  11  30
ATOM     28  N   UNL     1     -44.690 -62.838  31.681  0.00  0.00    +0.000 NA
ATOM     29  N   UNL     1     -46.482 -65.857  32.850  0.00  0.00    +0.000 N 
ATOM     30  C   UNL     1     -45.246 -63.673  32.587  0.00  0.00    +0.000 A 
ATOM     31  C   UNL     1     -45.862 -64.845  32.153  0.00  0.00    +0.000 A 
ATOM     32  C   UNL     1     -45.925 -65.183  30.800  0.00  0.00    +0.000 A 
ATOM     33  C   UNL     1     -44.754 -63.172  30.374  0.00  0.00    +0.000 A 
ATOM     34  C   UNL     1     -45.351 -64.314  29.859  0.00  0.00    +0.000 A 
ATOM     35  C   UNL     1     -46.613 -66.431  30.701  0.00  0.00    +0.000 A 
ATOM     36  C   UNL     1     -46.947 -66.826  31.994  0.00  0.00    +0.000 A 
ATOM     37  C   UNL     1     -46.977 -67.261  29.624  0.00  0.00    +0.000 A 
ATOM     38  C   UNL     1     -47.630 -68.014  32.275  0.00  0.00    +0.000 A 
ATOM     39  C   UNL     1     -47.661 -68.451  29.884  0.00  0.00    +0.000 A 
ATOM     40  C   UNL     1     -47.978 -68.817  31.187  0.00  0.00    +0.000 A 
ATOM     41  H   UNL     1     -46.576 -65.891  33.856  0.00  0.00    +0.000 HD
ENDBRANCH  11  30
BRANCH   7  42
ATOM     42  O   UNL     1     -43.134 -64.705  36.460  0.00  0.00    +0.000 OA
ATOM     43  H   UNL     1     -42.542 -64.568  37.218  0.00  0.00    +0.000 HD
ENDBRANCH   7  42
TORSDOF 2
ENDMDL
MODEL 2
REMARK VINA RESULT:      -8.8      1.534      2.945
REMARK  Name = 6509753_ManzamineA.pdbqt.pdb
REMARK  2 active torsions:
REMARK  status: ('A' for Active; 'I' for Inactive)
REMARK    1  A    between atoms: C_7  and  O_42
REMARK    2  A    between atoms: C_11  and  C_30
REMARK                            x       y       z     vdW  Elec       q    Type
REMARK                         _______ _______ _______ _____ _____    ______ ____
ROOT
ATOM      1  N   UNL     1     -45.532 -63.778  37.824  0.00  0.00    +0.000 N 
ATOM      2  N   UNL     1     -46.821 -59.729  35.219  0.00  0.00    +0.000 N 
ATOM      3  C   UNL     1     -46.615 -62.511  35.918  0.00  0.00    +0.000 C 
ATOM      4  C   UNL     1     -45.376 -63.322  36.419  0.00  0.00    +0.000 C 
ATOM      5  C   UNL     1     -47.316 -62.936  34.562  0.00  0.00    +0.000 C 
ATOM      6  C   UNL     1     -47.475 -62.802  37.061  0.00  0.00    +0.000 C 
ATOM      7  C   UNL     1     -44.658 -64.257  35.443  0.00  0.00    +0.000 C 
ATOM      8  C   UNL     1     -46.383 -61.027  35.830  0.00  0.00    +0.000 C 
ATOM      9  C   UNL     1     -46.879 -63.314  38.229  0.00  0.00    +0.000 C 
ATOM     10  C   UNL     1     -47.906 -61.826  33.857  0.00  0.00    +0.000 C 
ATOM     11  C   UNL     1     -46.705 -64.019  33.804  0.00  0.00    +0.000 C 
ATOM     12  C   UNL     1     -45.589 -64.399  34.342  0.00  0.00    +0.000 C 
ATOM     13  C   UNL     1     -47.626 -60.350  34.156  0.00  0.00    +0.000 C 
ATOM     14  C   UNL     1     -44.466 -63.269  38.690  0.00  0.00    +0.000 C 
ATOM     15  C   UNL     1     -43.359 -63.706  35.070  0.00  0.00    +0.000 C 
ATOM     16  C   UNL     1     -47.149 -62.877  39.559  0.00  0.00    +0.000 C 
ATOM     17  C   UNL     1     -45.656 -59.111  34.607  0.00  0.00    +0.000 C 
ATOM     18  C   UNL     1     -43.806 -62.669  39.945  0.00  0.00    +0.000 C 
ATOM     19  C   UNL     1     -42.090 -62.984  34.611  0.00  0.00    +0.000 C 
ATOM     20  C   UNL     1     -46.909 -62.457  40.659  0.00  0.00    +0.000 C 
ATOM     21  C   UNL     1     -44.316 -62.123  41.278  0.00  0.00    +0.000 C 
ATOM     22  C   UNL     1     -44.330 -58.602  34.035  0.00  0.00    +0.000 C 
ATOM     23  C   UNL     1     -45.798 -62.037  41.624  0.00  0.00    +0.000 C 
ATOM     24  C   UNL     1     -41.164 -61.887  34.094  0.00  0.00    +0.000 C 
ATOM     25  C   UNL     1     -42.864 -58.594  33.613  0.00  0.00    +0.000 C 
ATOM     26  C   UNL     1     -41.561 -59.365  33.485  0.00  0.00    +0.000 C 
ATOM     27  C   UNL     1     -41.002 -60.755  33.738  0.00  0.00    +0.000 C 
ENDROOT
BRANCH  11  30
ATOM     28  N   UNL     1     -47.999 -65.556  32.445  0.00  0.00    +0.000 NA
ATOM     29  N   UNL     1     -45.813 -62.889  31.105  0.00  0.00    +0.000 N 
ATOM     30  C   UNL     1     -47.138 -64.516  32.506  0.00  0.00    +0.000 A 
ATOM     31  C   UNL     1     -46.668 -63.944  31.325  0.00  0.00    +0.000 A 
ATOM     32  C   UNL     1     -47.062 -64.419  30.073  0.00  0.00    +0.000 A 
ATOM     33  C   UNL     1     -48.375 -66.011  31.230  0.00  0.00    +0.000 A 
ATOM     34  C   UNL     1     -47.953 -65.502  30.010  0.00  0.00    +0.000 A 
ATOM     35  C   UNL     1     -46.407 -63.621  29.085  0.00  0.00    +0.000 A 
ATOM     36  C   UNL     1     -45.637 -62.675  29.759  0.00  0.00    +0.000 A 
ATOM     37  C   UNL     1     -46.406 -63.617  27.678  0.00  0.00    +0.000 A 
ATOM     38  C   UNL     1     -44.859 -61.718  29.099  0.00  0.00    +0.000 A 
ATOM     39  C   UNL     1     -45.635 -62.669  27.001  0.00  0.00    +0.000 A 
ATOM     40  C   UNL     1     -44.877 -61.738  27.703  0.00  0.00    +0.000 A 
ATOM     41  H   UNL     1     -45.379 -62.336  31.831  0.00  0.00    +0.000 HD
ENDBRANCH  11  30
BRANCH   7  42
ATOM     42  O   UNL     1     -44.469 -65.542  36.019  0.00  0.00    +0.000 OA
ATOM     43  H   UNL     1     -45.321 -66.002  35.933  0.00  0.00    +0.000 HD
ENDBRANCH   7  42
TORSDOF 2
ENDMDL
MODEL 3
REMARK VINA RESULT:      -8.6     19.636     24.560
REMARK  Name = 6509753_ManzamineA.pdbqt.pdb
REMARK  2 active torsions:
REMARK  status: ('A' for Active; 'I' for Inactive)
REMARK    1  A    between atoms: C_7  and  O_42
REMARK    2  A    between atoms: C_11  and  C_30
REMARK                            x       y       z     vdW  Elec       q    Type
REMARK                         _______ _______ _______ _____ _____    ______ ____
ROOT
ATOM      1  N   UNL     1     -63.246 -71.050  25.461  0.00  0.00    +0.000 N 
ATOM      2  N   UNL     1     -62.513 -74.882  28.564  0.00  0.00    +0.000 N 
ATOM      3  C   UNL     1     -63.915 -73.091  26.803  0.00  0.00    +0.000 C 
ATOM      4  C   UNL     1     -63.863 -71.530  26.725  0.00  0.00    +0.000 C 
ATOM      5  C   UNL     1     -65.294 -73.799  27.129  0.00  0.00    +0.000 C 
ATOM      6  C   UNL     1     -63.516 -73.338  25.421  0.00  0.00    +0.000 C 
ATOM      7  C   UNL     1     -65.026 -70.719  27.301  0.00  0.00    +0.000 C 
ATOM      8  C   UNL     1     -62.897 -73.693  27.734  0.00  0.00    +0.000 C 
ATOM      9  C   UNL     1     -62.939 -72.279  24.696  0.00  0.00    +0.000 C 
ATOM     10  C   UNL     1     -65.138 -75.040  27.845  0.00  0.00    +0.000 C 
ATOM     11  C   UNL     1     -66.433 -72.942  27.426  0.00  0.00    +0.000 C 
ATOM     12  C   UNL     1     -66.084 -71.695  27.473  0.00  0.00    +0.000 C 
ATOM     13  C   UNL     1     -63.849 -75.497  28.536  0.00  0.00    +0.000 C 
ATOM     14  C   UNL     1     -62.066 -70.217  25.707  0.00  0.00    +0.000 C 
ATOM     15  C   UNL     1     -64.619 -70.045  28.530  0.00  0.00    +0.000 C 
ATOM     16  C   UNL     1     -61.779 -72.374  23.870  0.00  0.00    +0.000 C 
ATOM     17  C   UNL     1     -62.253 -74.415  29.915  0.00  0.00    +0.000 C 
ATOM     18  C   UNL     1     -60.644 -69.659  25.515  0.00  0.00    +0.000 C 
ATOM     19  C   UNL     1     -64.160 -69.508  29.887  0.00  0.00    +0.000 C 
ATOM     20  C   UNL     1     -60.679 -72.105  23.467  0.00  0.00    +0.000 C 
ATOM     21  C   UNL     1     -59.460 -70.004  24.614  0.00  0.00    +0.000 C 
ATOM     22  C   UNL     1     -62.007 -73.750  31.273  0.00  0.00    +0.000 C 
ATOM     23  C   UNL     1     -59.484 -71.164  23.625  0.00  0.00    +0.000 C 
ATOM     24  C   UNL     1     -63.554 -69.458  31.288  0.00  0.00    +0.000 C 
ATOM     25  C   UNL     1     -61.974 -72.672  32.352  0.00  0.00    +0.000 C 
ATOM     26  C   UNL     1     -62.313 -71.246  32.753  0.00  0.00    +0.000 C 
ATOM     27  C   UNL     1     -62.980 -70.005  32.184  0.00  0.00    +0.000 C 
ENDROOT
BRANCH  11  30
ATOM     28  N   UNL     1     -68.118 -73.340  29.125  0.00  0.00    +0.000 NA
ATOM     29  N   UNL     1     -68.578 -73.984  25.510  0.00  0.00    +0.000 N 
ATOM     30  C   UNL     1     -67.764 -73.380  27.821  0.00  0.00    +0.000 A 
ATOM     31  C   UNL     1     -68.673 -73.852  26.877  0.00  0.00    +0.000 A 
ATOM     32  C   UNL     1     -69.948 -74.290  27.241  0.00  0.00    +0.000 A 
ATOM     33  C   UNL     1     -69.353 -73.766  29.470  0.00  0.00    +0.000 A 
ATOM     34  C   UNL     1     -70.315 -74.252  28.596  0.00  0.00    +0.000 A 
ATOM     35  C   UNL     1     -70.618 -74.701  26.049  0.00  0.00    +0.000 A 
ATOM     36  C   UNL     1     -69.740 -74.499  24.986  0.00  0.00    +0.000 A 
ATOM     37  C   UNL     1     -71.896 -75.225  25.779  0.00  0.00    +0.000 A 
ATOM     38  C   UNL     1     -70.069 -74.791  23.659  0.00  0.00    +0.000 A 
ATOM     39  C   UNL     1     -72.244 -75.524  24.459  0.00  0.00    +0.000 A 
ATOM     40  C   UNL     1     -71.344 -75.309  23.422  0.00  0.00    +0.000 A 
ATOM     41  H   UNL     1     -67.768 -73.729  24.961  0.00  0.00    +0.000 HD
ENDBRANCH  11  30
BRANCH   7  42
ATOM     42  O   UNL     1     -65.479 -69.749  26.368  0.00  0.00    +0.000 OA
ATOM     43  H   UNL     1     -64.914 -68.968  26.498  0.00  0.00    +0.000 HD
ENDBRANCH   7  42
TORSDOF 2
ENDMDL
MODEL 4
REMARK VINA RESULT:      -8.6      2.673      8.384
REMARK  Name = 6509753_ManzamineA.pdbqt.pdb
REMARK  2 active torsions:
REMARK  status: ('A' for Active; 'I' for Inactive)
REMARK    1  A    between atoms: C_7  and  O_42
REMARK    2  A    between atoms: C_11  and  C_30
REMARK                            x       y       z     vdW  Elec       q    Type
REMARK                         _______ _______ _______ _____ _____    ______ ____
ROOT
ATOM      1  N   UNL     1     -41.390 -59.176  36.117  0.00  0.00    +0.000 N 
ATOM      2  N   UNL     1     -45.857 -61.062  34.961  0.00  0.00    +0.000 N 
ATOM      3  C   UNL     1     -43.555 -60.413  36.559  0.00  0.00    +0.000 C 
ATOM      4  C   UNL     1     -42.036 -60.511  36.201  0.00  0.00    +0.000 C 
ATOM      5  C   UNL     1     -44.117 -61.264  37.771  0.00  0.00    +0.000 C 
ATOM      6  C   UNL     1     -43.557 -58.988  36.879  0.00  0.00    +0.000 C 
ATOM      7  C   UNL     1     -41.212 -61.666  36.778  0.00  0.00    +0.000 C 
ATOM      8  C   UNL     1     -44.477 -60.667  35.397  0.00  0.00    +0.000 C 
ATOM      9  C   UNL     1     -42.459 -58.212  36.461  0.00  0.00    +0.000 C 
ATOM     10  C   UNL     1     -45.491 -61.662  37.595  0.00  0.00    +0.000 C 
ATOM     11  C   UNL     1     -43.193 -62.169  38.439  0.00  0.00    +0.000 C 
ATOM     12  C   UNL     1     -42.045 -62.197  37.838  0.00  0.00    +0.000 C 
ATOM     13  C   UNL     1     -46.259 -61.596  36.271  0.00  0.00    +0.000 C 
ATOM     14  C   UNL     1     -40.801 -58.933  34.798  0.00  0.00    +0.000 C 
ATOM     15  C   UNL     1     -40.878 -62.627  35.731  0.00  0.00    +0.000 C 
ATOM     16  C   UNL     1     -42.537 -56.930  35.840  0.00  0.00    +0.000 C 
ATOM     17  C   UNL     1     -45.728 -62.174  34.034  0.00  0.00    +0.000 C 
ATOM     18  C   UNL     1     -40.418 -58.159  33.522  0.00  0.00    +0.000 C 
ATOM     19  C   UNL     1     -40.710 -63.657  34.612  0.00  0.00    +0.000 C 
ATOM     20  C   UNL     1     -42.345 -56.090  35.002  0.00  0.00    +0.000 C 
ATOM     21  C   UNL     1     -40.727 -56.769  32.968  0.00  0.00    +0.000 C 
ATOM     22  C   UNL     1     -45.407 -63.322  33.073  0.00  0.00    +0.000 C 
ATOM     23  C   UNL     1     -41.635 -55.776  33.684  0.00  0.00    +0.000 C 
ATOM     24  C   UNL     1     -41.043 -64.596  33.456  0.00  0.00    +0.000 C 
ATOM     25  C   UNL     1     -44.599 -64.379  32.326  0.00  0.00    +0.000 C 
ATOM     26  C   UNL     1     -43.257 -65.064  32.127  0.00  0.00    +0.000 C 
ATOM     27  C   UNL     1     -41.844 -65.038  32.683  0.00  0.00    +0.000 C 
ENDROOT
BRANCH  11  30
ATOM     28  N   UNL     1     -43.035 -64.354  39.480  0.00  0.00    +0.000 NA
ATOM     29  N   UNL     1     -44.917 -61.489  40.872  0.00  0.00    +0.000 N 
ATOM     30  C   UNL     1     -43.514 -63.091  39.519  0.00  0.00    +0.000 A 
ATOM     31  C   UNL     1     -44.320 -62.695  40.584  0.00  0.00    +0.000 A 
ATOM     32  C   UNL     1     -44.650 -63.572  41.619  0.00  0.00    +0.000 A 
ATOM     33  C   UNL     1     -43.358 -65.197  40.485  0.00  0.00    +0.000 A 
ATOM     34  C   UNL     1     -44.155 -64.885  41.578  0.00  0.00    +0.000 A 
ATOM     35  C   UNL     1     -45.477 -62.858  42.540  0.00  0.00    +0.000 A 
ATOM     36  C   UNL     1     -45.625 -61.563  42.048  0.00  0.00    +0.000 A 
ATOM     37  C   UNL     1     -46.108 -63.198  43.750  0.00  0.00    +0.000 A 
ATOM     38  C   UNL     1     -46.375 -60.581  42.703  0.00  0.00    +0.000 A 
ATOM     39  C   UNL     1     -46.863 -62.231  44.419  0.00  0.00    +0.000 A 
ATOM     40  C   UNL     1     -46.990 -60.947  43.902  0.00  0.00    +0.000 A 
ATOM     41  H   UNL     1     -44.840 -60.657  40.304  0.00  0.00    +0.000 HD
ENDBRANCH  11  30
BRANCH   7  42
ATOM     42  O   UNL     1     -40.012 -61.186  37.367  0.00  0.00    +0.000 OA
ATOM     43  H   UNL     1     -40.030 -60.220  37.265  0.00  0.00    +0.000 HD
ENDBRANCH   7  42
TORSDOF 2
ENDMDL
MODEL 5
REMARK VINA RESULT:      -8.5      3.039      6.146
REMARK  Name = 6509753_ManzamineA.pdbqt.pdb
REMARK  2 active torsions:
REMARK  status: ('A' for Active; 'I' for Inactive)
REMARK    1  A    between atoms: C_7  and  O_42
REMARK    2  A    between atoms: C_11  and  C_30
REMARK                            x       y       z     vdW  Elec       q    Type
REMARK                         _______ _______ _______ _____ _____    ______ ____
ROOT
ATOM      1  N   UNL     1     -45.782 -61.049  36.590  0.00  0.00    +0.000 N 
ATOM      2  N   UNL     1     -42.452 -63.608  33.905  0.00  0.00    +0.000 N 
ATOM      3  C   UNL     1     -44.152 -61.424  34.690  0.00  0.00    +0.000 C 
ATOM      4  C   UNL     1     -45.641 -61.444  35.165  0.00  0.00    +0.000 C 
ATOM      5  C   UNL     1     -43.772 -60.618  33.380  0.00  0.00    +0.000 C 
ATOM      6  C   UNL     1     -43.608 -60.772  35.877  0.00  0.00    +0.000 C 
ATOM      7  C   UNL     1     -46.736 -61.000  34.192  0.00  0.00    +0.000 C 
ATOM      8  C   UNL     1     -43.536 -62.790  34.541  0.00  0.00    +0.000 C 
ATOM      9  C   UNL     1     -44.407 -60.727  37.035  0.00  0.00    +0.000 C 
ATOM     10  C   UNL     1     -42.661 -61.191  32.663  0.00  0.00    +0.000 C 
ATOM     11  C   UNL     1     -44.861 -60.003  32.633  0.00  0.00    +0.000 C 
ATOM     12  C   UNL     1     -46.014 -60.319  33.137  0.00  0.00    +0.000 C 
ATOM     13  C   UNL     1     -42.097 -62.596  32.899  0.00  0.00    +0.000 C 
ATOM     14  C   UNL     1     -46.413 -62.100  37.392  0.00  0.00    +0.000 C 
ATOM     15  C   UNL     1     -47.519 -62.148  33.746  0.00  0.00    +0.000 C 
ATOM     16  C   UNL     1     -43.965 -61.015  38.361  0.00  0.00    +0.000 C 
ATOM     17  C   UNL     1     -43.082 -64.727  33.224  0.00  0.00    +0.000 C 
ATOM     18  C   UNL     1     -46.661 -63.026  38.598  0.00  0.00    +0.000 C 
ATOM     19  C   UNL     1     -48.182 -63.419  33.209  0.00  0.00    +0.000 C 
ATOM     20  C   UNL     1     -43.956 -61.554  39.434  0.00  0.00    +0.000 C 
ATOM     21  C   UNL     1     -45.958 -63.275  39.931  0.00  0.00    +0.000 C 
ATOM     22  C   UNL     1     -43.907 -65.844  32.580  0.00  0.00    +0.000 C 
ATOM     23  C   UNL     1     -44.675 -62.560  40.336  0.00  0.00    +0.000 C 
ATOM     24  C   UNL     1     -48.352 -64.815  32.617  0.00  0.00    +0.000 C 
ATOM     25  C   UNL     1     -45.125 -66.626  32.096  0.00  0.00    +0.000 C 
ATOM     26  C   UNL     1     -46.636 -66.681  31.940  0.00  0.00    +0.000 C 
ATOM     27  C   UNL     1     -47.865 -65.833  32.216  0.00  0.00    +0.000 C 
ENDROOT
BRANCH  11  30
ATOM     28  N   UNL     1     -44.507 -57.955  31.384  0.00  0.00    +0.000 NA
ATOM     29  N   UNL     1     -45.127 -61.269  29.861  0.00  0.00    +0.000 N 
ATOM     30  C   UNL     1     -44.747 -59.285  31.372  0.00  0.00    +0.000 A 
ATOM     31  C   UNL     1     -44.895 -59.945  30.154  0.00  0.00    +0.000 A 
ATOM     32  C   UNL     1     -44.804 -59.267  28.938  0.00  0.00    +0.000 A 
ATOM     33  C   UNL     1     -44.420 -57.305  30.203  0.00  0.00    +0.000 A 
ATOM     34  C   UNL     1     -44.558 -57.885  28.949  0.00  0.00    +0.000 A 
ATOM     35  C   UNL     1     -44.998 -60.226  27.896  0.00  0.00    +0.000 A 
ATOM     36  C   UNL     1     -45.197 -61.464  28.503  0.00  0.00    +0.000 A 
ATOM     37  C   UNL     1     -45.019 -60.149  26.491  0.00  0.00    +0.000 A 
ATOM     38  C   UNL     1     -45.416 -62.640  27.778  0.00  0.00    +0.000 A 
ATOM     39  C   UNL     1     -45.238 -61.313  25.750  0.00  0.00    +0.000 A 
ATOM     40  C   UNL     1     -45.431 -62.534  26.386  0.00  0.00    +0.000 A 
ATOM     41  H   UNL     1     -45.224 -62.004  30.549  0.00  0.00    +0.000 HD
ENDBRANCH  11  30
BRANCH   7  42
ATOM     42  O   UNL     1     -47.604 -60.056  34.803  0.00  0.00    +0.000 OA
ATOM     43  H   UNL     1     -48.316 -60.574  35.215  0.00  0.00    +0.000 HD
ENDBRANCH   7  42
TORSDOF 2
ENDMDL
MODEL 6
REMARK VINA RESULT:      -8.1      1.775      2.213
REMARK  Name = 6509753_ManzamineA.pdbqt.pdb
REMARK  2 active torsions:
REMARK  status: ('A' for Active; 'I' for Inactive)
REMARK    1  A    between atoms: C_7  and  O_42
REMARK    2  A    between atoms: C_11  and  C_30
REMARK                            x       y       z     vdW  Elec       q    Type
REMARK                         _______ _______ _______ _____ _____    ______ ____
ROOT
ATOM      1  N   UNL     1     -43.979 -64.539  36.399  0.00  0.00    +0.000 N 
ATOM      2  N   UNL     1     -46.858 -60.572  35.489  0.00  0.00    +0.000 N 
ATOM      3  C   UNL     1     -45.377 -62.983  34.972  0.00  0.00    +0.000 C 
ATOM      4  C   UNL     1     -43.947 -63.395  35.451  0.00  0.00    +0.000 C 
ATOM      5  C   UNL     1     -45.663 -62.862  33.418  0.00  0.00    +0.000 C 
ATOM      6  C   UNL     1     -46.078 -64.130  35.541  0.00  0.00    +0.000 C 
ATOM      7  C   UNL     1     -42.783 -63.325  34.459  0.00  0.00    +0.000 C 
ATOM      8  C   UNL     1     -45.895 -61.717  35.599  0.00  0.00    +0.000 C 
ATOM      9  C   UNL     1     -45.409 -64.907  36.505  0.00  0.00    +0.000 C 
ATOM     10  C   UNL     1     -46.658 -61.869  33.100  0.00  0.00    +0.000 C 
ATOM     11  C   UNL     1     -44.538 -63.059  32.514  0.00  0.00    +0.000 C 
ATOM     12  C   UNL     1     -43.429 -63.208  33.168  0.00  0.00    +0.000 C 
ATOM     13  C   UNL     1     -47.162 -60.794  34.068  0.00  0.00    +0.000 C 
ATOM     14  C   UNL     1     -43.376 -64.200  37.690  0.00  0.00    +0.000 C 
ATOM     15  C   UNL     1     -41.894 -62.217  34.794  0.00  0.00    +0.000 C 
ATOM     16  C   UNL     1     -45.971 -65.373  37.731  0.00  0.00    +0.000 C 
ATOM     17  C   UNL     1     -46.097 -59.339  35.607  0.00  0.00    +0.000 C 
ATOM     18  C   UNL     1     -43.204 -64.151  39.220  0.00  0.00    +0.000 C 
ATOM     19  C   UNL     1     -41.107 -60.945  35.118  0.00  0.00    +0.000 C 
ATOM     20  C   UNL     1     -46.061 -65.539  38.918  0.00  0.00    +0.000 C 
ATOM     21  C   UNL     1     -44.027 -64.626  40.416  0.00  0.00    +0.000 C 
ATOM     22  C   UNL     1     -45.146 -58.149  35.763  0.00  0.00    +0.000 C 
ATOM     23  C   UNL     1     -45.385 -65.303  40.269  0.00  0.00    +0.000 C 
ATOM     24  C   UNL     1     -40.796 -59.486  35.441  0.00  0.00    +0.000 C 
ATOM     25  C   UNL     1     -43.842 -57.366  35.880  0.00  0.00    +0.000 C 
ATOM     26  C   UNL     1     -42.323 -57.394  35.864  0.00  0.00    +0.000 C 
ATOM     27  C   UNL     1     -41.179 -58.375  35.670  0.00  0.00    +0.000 C 
ENDROOT
BRANCH  11  30
ATOM     28  N   UNL     1     -44.093 -61.787  30.497  0.00  0.00    +0.000 NA
ATOM     29  N   UNL     1     -45.583 -65.173  30.566  0.00  0.00    +0.000 N 
ATOM     30  C   UNL     1     -44.560 -62.921  31.064  0.00  0.00    +0.000 A 
ATOM     31  C   UNL     1     -45.067 -63.935  30.255  0.00  0.00    +0.000 A 
ATOM     32  C   UNL     1     -45.110 -63.812  28.865  0.00  0.00    +0.000 A 
ATOM     33  C   UNL     1     -44.137 -61.675  29.151  0.00  0.00    +0.000 A 
ATOM     34  C   UNL     1     -44.628 -62.633  28.275  0.00  0.00    +0.000 A 
ATOM     35  C   UNL     1     -45.678 -65.015  28.345  0.00  0.00    +0.000 A 
ATOM     36  C   UNL     1     -45.962 -65.844  29.428  0.00  0.00    +0.000 A 
ATOM     37  C   UNL     1     -45.972 -65.473  27.047  0.00  0.00    +0.000 A 
ATOM     38  C   UNL     1     -46.528 -67.115  29.286  0.00  0.00    +0.000 A 
ATOM     39  C   UNL     1     -46.538 -66.740  26.884  0.00  0.00    +0.000 A 
ATOM     40  C   UNL     1     -46.808 -67.543  27.987  0.00  0.00    +0.000 A 
ATOM     41  H   UNL     1     -45.664 -65.546  31.502  0.00  0.00    +0.000 HD
ENDBRANCH  11  30
BRANCH   7  42
ATOM     42  O   UNL     1     -42.040 -64.535  34.465  0.00  0.00    +0.000 OA
ATOM     43  H   UNL     1     -41.717 -64.656  33.556  0.00  0.00    +0.000 HD
ENDBRANCH   7  42
TORSDOF 2
ENDMDL
MODEL 7
REMARK VINA RESULT:      -8.0      3.342      8.942
REMARK  Name = 6509753_ManzamineA.pdbqt.pdb
REMARK  2 active torsions:
REMARK  status: ('A' for Active; 'I' for Inactive)
REMARK    1  A    between atoms: C_7  and  O_42
REMARK    2  A    between atoms: C_11  and  C_30
REMARK                            x       y       z     vdW  Elec       q    Type
REMARK                         _______ _______ _______ _____ _____    ______ ____
ROOT
ATOM      1  N   UNL     1     -46.223 -67.970  30.136  0.00  0.00    +0.000 N 
ATOM      2  N   UNL     1     -42.163 -65.377  31.417  0.00  0.00    +0.000 N 
ATOM      3  C   UNL     1     -44.306 -67.282  31.641  0.00  0.00    +0.000 C 
ATOM      4  C   UNL     1     -45.820 -67.122  31.288  0.00  0.00    +0.000 C 
ATOM      5  C   UNL     1     -43.895 -67.616  33.134  0.00  0.00    +0.000 C 
ATOM      6  C   UNL     1     -44.052 -68.422  30.764  0.00  0.00    +0.000 C 
ATOM      7  C   UNL     1     -46.831 -66.937  32.423  0.00  0.00    +0.000 C 
ATOM      8  C   UNL     1     -43.449 -66.121  31.214  0.00  0.00    +0.000 C 
ATOM      9  C   UNL     1     -44.999 -68.715  29.765  0.00  0.00    +0.000 C 
ATOM     10  C   UNL     1     -42.613 -67.071  33.505  0.00  0.00    +0.000 C 
ATOM     11  C   UNL     1     -44.960 -67.670  34.125  0.00  0.00    +0.000 C 
ATOM     12  C   UNL     1     -46.099 -67.324  33.612  0.00  0.00    +0.000 C 
ATOM     13  C   UNL     1     -41.853 -66.003  32.711  0.00  0.00    +0.000 C 
ATOM     14  C   UNL     1     -46.768 -67.176  29.033  0.00  0.00    +0.000 C 
ATOM     15  C   UNL     1     -47.335 -65.568  32.441  0.00  0.00    +0.000 C 
ATOM     16  C   UNL     1     -44.701 -69.031  28.406  0.00  0.00    +0.000 C 
ATOM     17  C   UNL     1     -42.490 -63.980  31.653  0.00  0.00    +0.000 C 
ATOM     18  C   UNL     1     -47.016 -66.723  27.581  0.00  0.00    +0.000 C 
ATOM     19  C   UNL     1     -47.688 -64.079  32.487  0.00  0.00    +0.000 C 
ATOM     20  C   UNL     1     -44.747 -68.936  27.209  0.00  0.00    +0.000 C 
ATOM     21  C   UNL     1     -46.472 -67.132  26.214  0.00  0.00    +0.000 C 
ATOM     22  C   UNL     1     -43.013 -62.557  31.868  0.00  0.00    +0.000 C 
ATOM     23  C   UNL     1     -45.399 -68.201  26.037  0.00  0.00    +0.000 C 
ATOM     24  C   UNL     1     -47.531 -62.561  32.506  0.00  0.00    +0.000 C 
ATOM     25  C   UNL     1     -43.999 -61.414  32.088  0.00  0.00    +0.000 C 
ATOM     26  C   UNL     1     -45.441 -60.987  32.304  0.00  0.00    +0.000 C 
ATOM     27  C   UNL     1     -46.825 -61.595  32.453  0.00  0.00    +0.000 C 
ENDROOT
BRANCH  11  30
ATOM     28  N   UNL     1     -44.316 -69.068  36.000  0.00  0.00    +0.000 NA
ATOM     29  N   UNL     1     -45.640 -65.626  36.297  0.00  0.00    +0.000 N 
ATOM     30  C   UNL     1     -44.799 -67.886  35.556  0.00  0.00    +0.000 A 
ATOM     31  C   UNL     1     -45.147 -66.899  36.475  0.00  0.00    +0.000 A 
ATOM     32  C   UNL     1     -45.013 -67.096  37.850  0.00  0.00    +0.000 A 
ATOM     33  C   UNL     1     -44.188 -69.252  37.333  0.00  0.00    +0.000 A 
ATOM     34  C   UNL     1     -44.515 -68.324  38.312  0.00  0.00    +0.000 A 
ATOM     35  C   UNL     1     -45.451 -65.902  38.500  0.00  0.00    +0.000 A 
ATOM     36  C   UNL     1     -45.836 -65.004  37.507  0.00  0.00    +0.000 A 
ATOM     37  C   UNL     1     -45.551 -65.504  39.847  0.00  0.00    +0.000 A 
ATOM     38  C   UNL     1     -46.317 -63.721  37.785  0.00  0.00    +0.000 A 
ATOM     39  C   UNL     1     -46.031 -64.227  40.145  0.00  0.00    +0.000 A 
ATOM     40  C   UNL     1     -46.405 -63.354  39.130  0.00  0.00    +0.000 A 
ATOM     41  H   UNL     1     -45.825 -65.199  35.400  0.00  0.00    +0.000 HD
ENDBRANCH  11  30
BRANCH   7  42
ATOM     42  O   UNL     1     -47.924 -67.832  32.278  0.00  0.00    +0.000 OA
ATOM     43  H   UNL     1     -47.742 -68.352  31.477  0.00  0.00    +0.000 HD
ENDBRANCH   7  42
TORSDOF 2
ENDMDL
MODEL 8
REMARK VINA RESULT:      -8.0      5.778     11.565
REMARK  Name = 6509753_ManzamineA.pdbqt.pdb
REMARK  2 active torsions:
REMARK  status: ('A' for Active; 'I' for Inactive)
REMARK    1  A    between atoms: C_7  and  O_42
REMARK    2  A    between atoms: C_11  and  C_30
REMARK                            x       y       z     vdW  Elec       q    Type
REMARK                         _______ _______ _______ _____ _____    ______ ____
ROOT
ATOM      1  N   UNL     1     -44.297 -69.703  24.924  0.00  0.00    +0.000 N 
ATOM      2  N   UNL     1     -41.525 -67.759  28.583  0.00  0.00    +0.000 N 
ATOM      3  C   UNL     1     -43.791 -68.979  27.297  0.00  0.00    +0.000 C 
ATOM      4  C   UNL     1     -44.470 -68.627  25.934  0.00  0.00    +0.000 C 
ATOM      5  C   UNL     1     -44.642 -68.877  28.630  0.00  0.00    +0.000 C 
ATOM      6  C   UNL     1     -43.492 -70.372  26.977  0.00  0.00    +0.000 C 
ATOM      7  C   UNL     1     -45.798 -67.865  25.941  0.00  0.00    +0.000 C 
ATOM      8  C   UNL     1     -42.507 -68.236  27.554  0.00  0.00    +0.000 C 
ATOM      9  C   UNL     1     -43.555 -70.772  25.629  0.00  0.00    +0.000 C 
ATOM     10  C   UNL     1     -43.850 -68.525  29.782  0.00  0.00    +0.000 C 
ATOM     11  C   UNL     1     -46.002 -68.370  28.518  0.00  0.00    +0.000 C 
ATOM     12  C   UNL     1     -46.261 -67.980  27.309  0.00  0.00    +0.000 C 
ATOM     13  C   UNL     1     -42.424 -67.970  29.728  0.00  0.00    +0.000 C 
ATOM     14  C   UNL     1     -43.611 -69.225  23.722  0.00  0.00    +0.000 C 
ATOM     15  C   UNL     1     -45.601 -66.493  25.482  0.00  0.00    +0.000 C 
ATOM     16  C   UNL     1     -42.588 -71.578  24.957  0.00  0.00    +0.000 C 
ATOM     17  C   UNL     1     -41.349 -66.328  28.398  0.00  0.00    +0.000 C 
ATOM     18  C   UNL     1     -42.637 -69.239  22.529  0.00  0.00    +0.000 C 
ATOM     19  C   UNL     1     -45.281 -65.036  25.144  0.00  0.00    +0.000 C 
ATOM     20  C   UNL     1     -41.791 -71.879  24.110  0.00  0.00    +0.000 C 
ATOM     21  C   UNL     1     -41.543 -70.187  22.038  0.00  0.00    +0.000 C 
ATOM     22  C   UNL     1     -41.276 -64.838  28.053  0.00  0.00    +0.000 C 
ATOM     23  C   UNL     1     -41.151 -71.455  22.786  0.00  0.00    +0.000 C 
ATOM     24  C   UNL     1     -44.604 -63.668  25.160  0.00  0.00    +0.000 C 
ATOM     25  C   UNL     1     -41.611 -63.504  27.392  0.00  0.00    +0.000 C 
ATOM     26  C   UNL     1     -42.516 -62.733  26.445  0.00  0.00    +0.000 C 
ATOM     27  C   UNL     1     -43.740 -62.948  25.572  0.00  0.00    +0.000 C 
ENDROOT
BRANCH  11  30
ATOM     28  N   UNL     1     -47.746 -69.120  30.028  0.00  0.00    +0.000 NA
ATOM     29  N   UNL     1     -46.275 -65.724  30.029  0.00  0.00    +0.000 N 
ATOM     30  C   UNL     1     -46.927 -68.126  29.616  0.00  0.00    +0.000 A 
ATOM     31  C   UNL     1     -46.990 -66.882  30.238  0.00  0.00    +0.000 A 
ATOM     32  C   UNL     1     -47.881 -66.628  31.282  0.00  0.00    +0.000 A 
ATOM     33  C   UNL     1     -48.606 -68.867  31.039  0.00  0.00    +0.000 A 
ATOM     34  C   UNL     1     -48.735 -67.658  31.708  0.00  0.00    +0.000 A 
ATOM     35  C   UNL     1     -47.689 -65.273  31.692  0.00  0.00    +0.000 A 
ATOM     36  C   UNL     1     -46.682 -64.736  30.893  0.00  0.00    +0.000 A 
ATOM     37  C   UNL     1     -48.281 -64.457  32.674  0.00  0.00    +0.000 A 
ATOM     38  C   UNL     1     -46.228 -63.419  31.022  0.00  0.00    +0.000 A 
ATOM     39  C   UNL     1     -47.842 -63.139  32.818  0.00  0.00    +0.000 A 
ATOM     40  C   UNL     1     -46.834 -62.634  32.005  0.00  0.00    +0.000 A 
ATOM     41  H   UNL     1     -45.543 -65.615  29.341  0.00  0.00    +0.000 HD
ENDBRANCH  11  30
BRANCH   7  42
ATOM     42  O   UNL     1     -46.752 -68.502  25.105  0.00  0.00    +0.000 OA
ATOM     43  H   UNL     1     -46.263 -69.178  24.605  0.00  0.00    +0.000 HD
ENDBRANCH   7  42
TORSDOF 2
ENDMDL
MODEL 9
REMARK VINA RESULT:      -7.9     15.970     19.784
REMARK  Name = 6509753_ManzamineA.pdbqt.pdb
REMARK  2 active torsions:
REMARK  status: ('A' for Active; 'I' for Inactive)
REMARK    1  A    between atoms: C_7  and  O_42
REMARK    2  A    between atoms: C_11  and  C_30
REMARK                            x       y       z     vdW  Elec       q    Type
REMARK                         _______ _______ _______ _____ _____    ______ ____
ROOT
ATOM      1  N   UNL     1     -60.149 -69.843  42.060  0.00  0.00    +0.000 N 
ATOM      2  N   UNL     1     -60.741 -74.104  39.542  0.00  0.00    +0.000 N 
ATOM      3  C   UNL     1     -60.098 -72.353  41.731  0.00  0.00    +0.000 C 
ATOM      4  C   UNL     1     -59.294 -71.012  41.730  0.00  0.00    +0.000 C 
ATOM      5  C   UNL     1     -59.560 -73.572  42.589  0.00  0.00    +0.000 C 
ATOM      6  C   UNL     1     -61.323 -71.810  42.311  0.00  0.00    +0.000 C 
ATOM      7  C   UNL     1     -57.854 -71.010  42.250  0.00  0.00    +0.000 C 
ATOM      8  C   UNL     1     -60.390 -72.895  40.359  0.00  0.00    +0.000 C 
ATOM      9  C   UNL     1     -61.489 -70.412  42.323  0.00  0.00    +0.000 C 
ATOM     10  C   UNL     1     -59.890 -74.854  42.020  0.00  0.00    +0.000 C 
ATOM     11  C   UNL     1     -58.283 -73.401  43.268  0.00  0.00    +0.000 C 
ATOM     12  C   UNL     1     -57.735 -72.267  42.960  0.00  0.00    +0.000 C 
ATOM     13  C   UNL     1     -60.396 -75.074  40.591  0.00  0.00    +0.000 C 
ATOM     14  C   UNL     1     -60.150 -68.842  40.990  0.00  0.00    +0.000 C 
ATOM     15  C   UNL     1     -56.913 -70.848  41.146  0.00  0.00    +0.000 C 
ATOM     16  C   UNL     1     -62.681 -69.716  41.960  0.00  0.00    +0.000 C 
ATOM     17  C   UNL     1     -59.762 -74.218  38.474  0.00  0.00    +0.000 C 
ATOM     18  C   UNL     1     -60.711 -67.791  40.014  0.00  0.00    +0.000 C 
ATOM     19  C   UNL     1     -55.996 -70.834  39.921  0.00  0.00    +0.000 C 
ATOM     20  C   UNL     1     -63.367 -68.925  41.370  0.00  0.00    +0.000 C 
ATOM     21  C   UNL     1     -62.104 -67.259  39.683  0.00  0.00    +0.000 C 
ATOM     22  C   UNL     1     -58.659 -74.176  37.412  0.00  0.00    +0.000 C 
ATOM     23  C   UNL     1     -63.371 -67.792  40.343  0.00  0.00    +0.000 C 
ATOM     24  C   UNL     1     -55.405 -71.191  38.559  0.00  0.00    +0.000 C 
ATOM     25  C   UNL     1     -57.387 -73.747  36.688  0.00  0.00    +0.000 C 
ATOM     26  C   UNL     1     -56.148 -72.866  36.682  0.00  0.00    +0.000 C 
ATOM     27  C   UNL     1     -55.452 -71.831  37.549  0.00  0.00    +0.000 C 
ENDROOT
BRANCH  11  30
ATOM     28  N   UNL     1     -56.555 -75.090  43.472  0.00  0.00    +0.000 NA
ATOM     29  N   UNL     1     -58.911 -74.150  46.166  0.00  0.00    +0.000 N 
ATOM     30  C   UNL     1     -57.574 -74.409  44.042  0.00  0.00    +0.000 A 
ATOM     31  C   UNL     1     -57.939 -74.692  45.357  0.00  0.00    +0.000 A 
ATOM     32  C   UNL     1     -57.279 -75.667  46.107  0.00  0.00    +0.000 A 
ATOM     33  C   UNL     1     -55.921 -76.032  44.205  0.00  0.00    +0.000 A 
ATOM     34  C   UNL     1     -56.223 -76.377  45.515  0.00  0.00    +0.000 A 
ATOM     35  C   UNL     1     -57.891 -75.703  47.397  0.00  0.00    +0.000 A 
ATOM     36  C   UNL     1     -58.904 -74.747  47.405  0.00  0.00    +0.000 A 
ATOM     37  C   UNL     1     -57.671 -76.464  48.561  0.00  0.00    +0.000 A 
ATOM     38  C   UNL     1     -59.715 -74.505  48.518  0.00  0.00    +0.000 A 
ATOM     39  C   UNL     1     -58.471 -76.237  49.684  0.00  0.00    +0.000 A 
ATOM     40  C   UNL     1     -59.473 -75.273  49.658  0.00  0.00    +0.000 A 
ATOM     41  H   UNL     1     -59.539 -73.406  45.895  0.00  0.00    +0.000 HD
ENDBRANCH  11  30
BRANCH   7  42
ATOM     42  O   UNL     1     -57.655 -69.962  43.187  0.00  0.00    +0.000 OA
ATOM     43  H   UNL     1     -58.534 -69.750  43.543  0.00  0.00    +0.000 HD
ENDBRANCH   7  42
TORSDOF 2
ENDMDL
