MODEL 1
REMARK VINA RESULT:      -4.7      0.000      0.000
REMARK  Name = 67499_Pyrazolo.pdbqt.pdb
REMARK  0 active torsions:
REMARK  status: ('A' for Active; 'I' for Inactive)
REMARK                            x       y       z     vdW  Elec       q    Type
REMARK                         _______ _______ _______ _____ _____    ______ ____
ROOT
ATOM      1  N   UNL     1     -61.055 -63.980  41.700  0.00  0.00    +0.000 N 
ATOM      2  N   UNL     1     -61.369 -64.614  42.850  0.00  0.00    +0.000 NA
ATOM      3  N   UNL     1     -60.219 -61.839  40.936  0.00  0.00    +0.000 NA
ATOM      4  N   UNL     1     -59.800 -60.328  42.781  0.00  0.00    +0.000 NA
ATOM      5  C   UNL     1     -60.623 -62.491  43.246  0.00  0.00    +0.000 A 
ATOM      6  C   UNL     1     -60.603 -62.706  41.884  0.00  0.00    +0.000 A 
ATOM      7  C   UNL     1     -61.102 -63.696  43.790  0.00  0.00    +0.000 A 
ATOM      8  C   UNL     1     -60.201 -61.247  43.694  0.00  0.00    +0.000 A 
ATOM      9  C   UNL     1     -59.830 -60.668  41.476  0.00  0.00    +0.000 A 
ATOM     10  H   UNL     1     -61.170 -64.468  40.819  0.00  0.00    +0.000 HD
ENDROOT
TORSDOF 0
ENDMDL
MODEL 2
REMARK VINA RESULT:      -4.6      2.419      3.397
REMARK  Name = 67499_Pyrazolo.pdbqt.pdb
REMARK  0 active torsions:
REMARK  status: ('A' for Active; 'I' for Inactive)
REMARK                            x       y       z     vdW  Elec       q    Type
REMARK                         _______ _______ _______ _____ _____    ______ ____
ROOT
ATOM      1  N   UNL     1     -62.323 -64.240  43.379  0.00  0.00    +0.000 N 
ATOM      2  N   UNL     1     -61.012 -64.083  43.666  0.00  0.00    +0.000 NA
ATOM      3  N   UNL     1     -63.867 -63.903  41.545  0.00  0.00    +0.000 NA
ATOM      4  N   UNL     1     -62.758 -63.001  39.590  0.00  0.00    +0.000 NA
ATOM      5  C   UNL     1     -61.480 -63.428  41.528  0.00  0.00    +0.000 A 
ATOM      6  C   UNL     1     -62.653 -63.862  42.110  0.00  0.00    +0.000 A 
ATOM      7  C   UNL     1     -60.506 -63.586  42.530  0.00  0.00    +0.000 A 
ATOM      8  C   UNL     1     -61.556 -62.984  40.216  0.00  0.00    +0.000 A 
ATOM      9  C   UNL     1     -63.829 -63.452  40.276  0.00  0.00    +0.000 A 
ATOM     10  H   UNL     1     -62.944 -64.611  44.089  0.00  0.00    +0.000 HD
ENDROOT
TORSDOF 0
ENDMDL
MODEL 3
REMARK VINA RESULT:      -4.6      2.559      3.730
REMARK  Name = 67499_Pyrazolo.pdbqt.pdb
REMARK  0 active torsions:
REMARK  status: ('A' for Active; 'I' for Inactive)
REMARK                            x       y       z     vdW  Elec       q    Type
REMARK                         _______ _______ _______ _____ _____    ______ ____
ROOT
ATOM      1  N   UNL     1     -63.759 -63.441  40.531  0.00  0.00    +0.000 N 
ATOM      2  N   UNL     1     -62.988 -63.076  39.484  0.00  0.00    +0.000 NA
ATOM      3  N   UNL     1     -63.535 -64.118  42.845  0.00  0.00    +0.000 NA
ATOM      4  N   UNL     1     -61.217 -64.172  43.546  0.00  0.00    +0.000 NA
ATOM      5  C   UNL     1     -61.721 -63.542  41.327  0.00  0.00    +0.000 A 
ATOM      6  C   UNL     1     -63.047 -63.730  41.658  0.00  0.00    +0.000 A 
ATOM      7  C   UNL     1     -61.745 -63.140  39.980  0.00  0.00    +0.000 A 
ATOM      8  C   UNL     1     -60.784 -63.777  42.323  0.00  0.00    +0.000 A 
ATOM      9  C   UNL     1     -62.545 -64.318  43.737  0.00  0.00    +0.000 A 
ATOM     10  H   UNL     1     -64.765 -63.474  40.416  0.00  0.00    +0.000 HD
ENDROOT
TORSDOF 0
ENDMDL
MODEL 4
REMARK VINA RESULT:      -4.2      5.011      6.576
REMARK  Name = 67499_Pyrazolo.pdbqt.pdb
REMARK  0 active torsions:
REMARK  status: ('A' for Active; 'I' for Inactive)
REMARK                            x       y       z     vdW  Elec       q    Type
REMARK                         _______ _______ _______ _____ _____    ______ ____
ROOT
ATOM      1  N   UNL     1     -64.233 -63.566  40.226  0.00  0.00    +0.000 N 
ATOM      2  N   UNL     1     -63.131 -63.170  39.554  0.00  0.00    +0.000 NA
ATOM      3  N   UNL     1     -65.642 -65.520  40.479  0.00  0.00    +0.000 NA
ATOM      4  N   UNL     1     -64.871 -67.367  39.116  0.00  0.00    +0.000 NA
ATOM      5  C   UNL     1     -63.674 -65.333  39.059  0.00  0.00    +0.000 A 
ATOM      6  C   UNL     1     -64.599 -64.855  39.964  0.00  0.00    +0.000 A 
ATOM      7  C   UNL     1     -62.797 -64.256  38.843  0.00  0.00    +0.000 A 
ATOM      8  C   UNL     1     -63.833 -66.643  38.630  0.00  0.00    +0.000 A 
ATOM      9  C   UNL     1     -65.704 -66.777  39.998  0.00  0.00    +0.000 A 
ATOM     10  H   UNL     1     -64.693 -62.914  40.851  0.00  0.00    +0.000 HD
ENDROOT
TORSDOF 0
ENDMDL
MODEL 5
REMARK VINA RESULT:      -4.2      3.695      5.192
REMARK  Name = 67499_Pyrazolo.pdbqt.pdb
REMARK  0 active torsions:
REMARK  status: ('A' for Active; 'I' for Inactive)
REMARK                            x       y       z     vdW  Elec       q    Type
REMARK                         _______ _______ _______ _____ _____    ______ ____
ROOT
ATOM      1  N   UNL     1     -64.193 -63.627  40.026  0.00  0.00    +0.000 N 
ATOM      2  N   UNL     1     -63.130 -62.885  39.649  0.00  0.00    +0.000 NA
ATOM      3  N   UNL     1     -64.688 -65.686  41.203  0.00  0.00    +0.000 NA
ATOM      4  N   UNL     1     -62.672 -66.796  41.958  0.00  0.00    +0.000 NA
ATOM      5  C   UNL     1     -62.477 -64.760  40.779  0.00  0.00    +0.000 A 
ATOM      6  C   UNL     1     -63.854 -64.761  40.706  0.00  0.00    +0.000 A 
ATOM      7  C   UNL     1     -62.086 -63.585  40.113  0.00  0.00    +0.000 A 
ATOM      8  C   UNL     1     -61.880 -65.828  41.434  0.00  0.00    +0.000 A 
ATOM      9  C   UNL     1     -64.009 -66.674  41.817  0.00  0.00    +0.000 A 
ATOM     10  H   UNL     1     -65.126 -63.310  39.792  0.00  0.00    +0.000 HD
ENDROOT
TORSDOF 0
ENDMDL
MODEL 6
REMARK VINA RESULT:      -4.0     25.958     26.526
REMARK  Name = 67499_Pyrazolo.pdbqt.pdb
REMARK  0 active torsions:
REMARK  status: ('A' for Active; 'I' for Inactive)
REMARK                            x       y       z     vdW  Elec       q    Type
REMARK                         _______ _______ _______ _____ _____    ______ ____
ROOT
ATOM      1  N   UNL     1     -35.747 -60.560  48.964  0.00  0.00    +0.000 N 
ATOM      2  N   UNL     1     -35.586 -59.390  49.621  0.00  0.00    +0.000 NA
ATOM      3  N   UNL     1     -35.064 -61.633  46.903  0.00  0.00    +0.000 NA
ATOM      4  N   UNL     1     -33.646 -60.194  45.568  0.00  0.00    +0.000 NA
ATOM      5  C   UNL     1     -34.457 -59.392  47.635  0.00  0.00    +0.000 A 
ATOM      6  C   UNL     1     -35.090 -60.610  47.770  0.00  0.00    +0.000 A 
ATOM      7  C   UNL     1     -34.797 -58.684  48.801  0.00  0.00    +0.000 A 
ATOM      8  C   UNL     1     -33.710 -59.195  46.482  0.00  0.00    +0.000 A 
ATOM      9  C   UNL     1     -34.314 -61.338  45.823  0.00  0.00    +0.000 A 
ATOM     10  H   UNL     1     -36.316 -61.287  49.381  0.00  0.00    +0.000 HD
ENDROOT
TORSDOF 0
ENDMDL
MODEL 7
REMARK VINA RESULT:      -3.9      2.377      3.441
REMARK  Name = 67499_Pyrazolo.pdbqt.pdb
REMARK  0 active torsions:
REMARK  status: ('A' for Active; 'I' for Inactive)
REMARK                            x       y       z     vdW  Elec       q    Type
REMARK                         _______ _______ _______ _____ _____    ______ ____
ROOT
ATOM      1  N   UNL     1     -63.563 -65.514  42.423  0.00  0.00    +0.000 N 
ATOM      2  N   UNL     1     -64.392 -65.490  41.357  0.00  0.00    +0.000 NA
ATOM      3  N   UNL     1     -61.514 -64.479  43.196  0.00  0.00    +0.000 NA
ATOM      4  N   UNL     1     -60.641 -62.899  41.582  0.00  0.00    +0.000 NA
ATOM      5  C   UNL     1     -62.638 -64.053  41.079  0.00  0.00    +0.000 A 
ATOM      6  C   UNL     1     -62.497 -64.670  42.304  0.00  0.00    +0.000 A 
ATOM      7  C   UNL     1     -63.818 -64.595  40.541  0.00  0.00    +0.000 A 
ATOM      8  C   UNL     1     -61.661 -63.134  40.721  0.00  0.00    +0.000 A 
ATOM      9  C   UNL     1     -60.623 -63.572  42.752  0.00  0.00    +0.000 A 
ATOM     10  H   UNL     1     -63.776 -66.126  43.202  0.00  0.00    +0.000 HD
ENDROOT
TORSDOF 0
ENDMDL
MODEL 8
REMARK VINA RESULT:      -3.9     20.969     21.042
REMARK  Name = 67499_Pyrazolo.pdbqt.pdb
REMARK  0 active torsions:
REMARK  status: ('A' for Active; 'I' for Inactive)
REMARK                            x       y       z     vdW  Elec       q    Type
REMARK                         _______ _______ _______ _____ _____    ______ ____
ROOT
ATOM      1  N   UNL     1     -44.639 -50.763  35.258  0.00  0.00    +0.000 N 
ATOM      2  N   UNL     1     -44.003 -51.906  34.922  0.00  0.00    +0.000 NA
ATOM      3  N   UNL     1     -46.295 -49.237  34.368  0.00  0.00    +0.000 NA
ATOM      4  N   UNL     1     -47.090 -49.943  32.192  0.00  0.00    +0.000 NA
ATOM      5  C   UNL     1     -45.464 -51.256  33.291  0.00  0.00    +0.000 A 
ATOM      6  C   UNL     1     -45.524 -50.333  34.314  0.00  0.00    +0.000 A 
ATOM      7  C   UNL     1     -44.514 -52.200  33.718  0.00  0.00    +0.000 A 
ATOM      8  C   UNL     1     -46.287 -51.035  32.195  0.00  0.00    +0.000 A 
ATOM      9  C   UNL     1     -47.052 -49.118  33.259  0.00  0.00    +0.000 A 
ATOM     10  H   UNL     1     -44.427 -50.322  36.146  0.00  0.00    +0.000 HD
ENDROOT
TORSDOF 0
ENDMDL
MODEL 9
REMARK VINA RESULT:      -3.8      4.725      6.116
REMARK  Name = 67499_Pyrazolo.pdbqt.pdb
REMARK  0 active torsions:
REMARK  status: ('A' for Active; 'I' for Inactive)
REMARK                            x       y       z     vdW  Elec       q    Type
REMARK                         _______ _______ _______ _____ _____    ______ ____
ROOT
ATOM      1  N   UNL     1     -62.371 -63.807  38.833  0.00  0.00    +0.000 N 
ATOM      2  N   UNL     1     -62.812 -62.964  39.792  0.00  0.00    +0.000 NA
ATOM      3  N   UNL     1     -62.874 -65.992  37.917  0.00  0.00    +0.000 NA
ATOM      4  N   UNL     1     -64.752 -67.028  39.042  0.00  0.00    +0.000 NA
ATOM      5  C   UNL     1     -64.047 -64.885  39.741  0.00  0.00    +0.000 A 
ATOM      6  C   UNL     1     -63.078 -64.972  38.763  0.00  0.00    +0.000 A 
ATOM      7  C   UNL     1     -63.836 -63.631  40.341  0.00  0.00    +0.000 A 
ATOM      8  C   UNL     1     -64.909 -65.965  39.870  0.00  0.00    +0.000 A 
ATOM      9  C   UNL     1     -63.761 -66.984  38.128  0.00  0.00    +0.000 A 
ATOM     10  H   UNL     1     -61.583 -63.533  38.258  0.00  0.00    +0.000 HD
ENDROOT
TORSDOF 0
ENDMDL
