REMARK  Name = 68585259_Bis5fluorouracil.pdbqt.pdb
REMARK  2 active torsions:
REMARK  status: ('A' for Active; 'I' for Inactive)
REMARK    1  A    between atoms: N_4  and  SI_11
REMARK    2  A    between atoms: C_6  and  SI_15
REMARK                            x       y       z     vdW  Elec       q    Type
REMARK                         _______ _______ _______ _____ _____    ______ ____
ROOT
ATOM      1  F   UNL     1       1.454   2.213  -0.277  0.00  0.00    +0.000 F 
ATOM      2  O   UNL     1      -1.186   2.206   0.149  0.00  0.00    +0.000 OA
ATOM      3  O   UNL     1      -1.254  -2.346   0.483  0.00  0.00    +0.000 OA
ATOM      4  N   UNL     1      -1.321  -0.098  -0.097  0.00  0.00    +0.000 N 
ATOM      5  N   UNL     1       0.662  -1.275   0.158  0.00  0.00    +0.000 N 
ATOM      6  C   UNL     1       1.431  -0.133  -0.030  0.00  0.00    +0.000 A 
ATOM      7  C   UNL     1      -0.674   1.110  -0.033  0.00  0.00    +0.000 A 
ATOM      8  C   UNL     1      -0.714  -1.290   0.183  0.00  0.00    +0.000 A 
ATOM      9  C   UNL     1       0.808   1.041  -0.137  0.00  0.00    +0.000 A 
ATOM     10  H   UNL     1       1.113  -2.182   0.322  0.00  0.00    +0.000 HD
ENDROOT
BRANCH   4  11
ATOM     11 SI   UNL     1      -3.024  -0.073  -0.085  0.00  0.00    +0.000 Si
ATOM     12  C   UNL     1      -3.626   0.086   1.694  0.00  0.00    +0.000 C 
ATOM     13  C   UNL     1      -3.819  -1.606  -0.852  0.00  0.00    +0.000 C 
ATOM     14  C   UNL     1      -3.764   1.336  -1.105  0.00  0.00    +0.000 C 
ENDBRANCH   4  11
BRANCH   6  15
ATOM     15 SI   UNL     1       3.367  -0.210  -0.085  0.00  0.00    +0.000 Si
ATOM     16  C   UNL     1       4.074   0.753   1.341  0.00  0.00    +0.000 C 
ATOM     17  C   UNL     1       3.947   0.353  -1.764  0.00  0.00    +0.000 C 
ATOM     18  C   UNL     1       3.723  -2.058   0.138  0.00  0.00    +0.000 C 
ENDBRANCH   6  15
TORSDOF 2
