MODEL 1
REMARK VINA RESULT:      -5.3      0.000      0.000
REMARK  Name = 71369791_5FluoroDione.pdbqt.pdb
REMARK  1 active torsions:
REMARK  status: ('A' for Active; 'I' for Inactive)
REMARK    1  A    between atoms: N_4  and  C_12
REMARK                            x       y       z     vdW  Elec       q    Type
REMARK                         _______ _______ _______ _____ _____    ______ ____
ROOT
ATOM      1  F   UNL     1     -30.522 -53.219  54.950  0.00  0.00    +0.000 F 
ATOM      2  O   UNL     1     -34.911 -50.613  53.051  0.00  0.00    +0.000 OA
ATOM      3  O   UNL     1     -32.898 -52.920  56.465  0.00  0.00    +0.000 OA
ATOM      4  N   UNL     1     -32.614 -51.104  52.788  0.00  0.00    +0.000 N 
ATOM      5  N   UNL     1     -33.804 -51.685  54.744  0.00  0.00    +0.000 N 
ATOM      6  C   UNL     1     -31.568 -51.678  53.414  0.00  0.00    +0.000 C 
ATOM      7  C   UNL     1     -31.446 -52.285  54.670  0.00  0.00    +0.000 C 
ATOM      8  C   UNL     1     -33.855 -51.080  53.465  0.00  0.00    +0.000 C 
ATOM      9  C   UNL     1     -32.749 -52.339  55.397  0.00  0.00    +0.000 C 
ATOM     10  H   UNL     1     -34.691 -51.715  55.227  0.00  0.00    +0.000 HD
ENDROOT
BRANCH   4  12
ATOM     11  O   UNL     1     -32.502 -49.210  51.273  0.00  0.00    +0.000 OA
ATOM     12  C   UNL     1     -32.425 -50.582  51.539  0.00  0.00    +0.000 C 
ATOM     13  C   UNL     1     -32.132 -51.254  50.323  0.00  0.00    +0.000 C 
ATOM     14  C   UNL     1     -31.951 -50.507  49.000  0.00  0.00    +0.000 C 
ATOM     15  C   UNL     1     -32.241 -49.362  49.969  0.00  0.00    +0.000 C 
ENDBRANCH   4  12
TORSDOF 1
ENDMDL
MODEL 2
REMARK VINA RESULT:      -5.1     10.945     11.542
REMARK  Name = 71369791_5FluoroDione.pdbqt.pdb
REMARK  1 active torsions:
REMARK  status: ('A' for Active; 'I' for Inactive)
REMARK    1  A    between atoms: N_4  and  C_12
REMARK                            x       y       z     vdW  Elec       q    Type
REMARK                         _______ _______ _______ _____ _____    ______ ____
ROOT
ATOM      1  F   UNL     1     -33.816 -57.768  48.759  0.00  0.00    +0.000 F 
ATOM      2  O   UNL     1     -35.260 -62.456  46.394  0.00  0.00    +0.000 OA
ATOM      3  O   UNL     1     -36.018 -59.313  49.646  0.00  0.00    +0.000 OA
ATOM      4  N   UNL     1     -33.965 -60.482  46.282  0.00  0.00    +0.000 N 
ATOM      5  N   UNL     1     -35.633 -60.796  47.925  0.00  0.00    +0.000 N 
ATOM      6  C   UNL     1     -33.781 -59.293  46.887  0.00  0.00    +0.000 C 
ATOM      7  C   UNL     1     -34.408 -58.693  47.986  0.00  0.00    +0.000 C 
ATOM      8  C   UNL     1     -34.960 -61.340  46.805  0.00  0.00    +0.000 C 
ATOM      9  C   UNL     1     -35.425 -59.590  48.611  0.00  0.00    +0.000 C 
ATOM     10  H   UNL     1     -36.319 -61.411  48.340  0.00  0.00    +0.000 HD
ENDROOT
BRANCH   4  12
ATOM     11  O   UNL     1     -32.127 -61.710  45.278  0.00  0.00    +0.000 OA
ATOM     12  C   UNL     1     -33.187 -60.798  45.205  0.00  0.00    +0.000 C 
ATOM     13  C   UNL     1     -33.263 -60.313  43.872  0.00  0.00    +0.000 C 
ATOM     14  C   UNL     1     -32.299 -60.776  42.778  0.00  0.00    +0.000 C 
ATOM     15  C   UNL     1     -31.806 -61.571  43.986  0.00  0.00    +0.000 C 
ENDBRANCH   4  12
TORSDOF 1
ENDMDL
MODEL 3
REMARK VINA RESULT:      -4.8      2.388      5.367
REMARK  Name = 71369791_5FluoroDione.pdbqt.pdb
REMARK  1 active torsions:
REMARK  status: ('A' for Active; 'I' for Inactive)
REMARK    1  A    between atoms: N_4  and  C_12
REMARK                            x       y       z     vdW  Elec       q    Type
REMARK                         _______ _______ _______ _____ _____    ______ ____
ROOT
ATOM      1  F   UNL     1     -32.903 -49.192  52.624  0.00  0.00    +0.000 F 
ATOM      2  O   UNL     1     -31.924 -54.452  53.643  0.00  0.00    +0.000 OA
ATOM      3  O   UNL     1     -32.696 -51.135  50.572  0.00  0.00    +0.000 OA
ATOM      4  N   UNL     1     -31.975 -52.237  54.466  0.00  0.00    +0.000 N 
ATOM      5  N   UNL     1     -32.216 -52.726  52.168  0.00  0.00    +0.000 N 
ATOM      6  C   UNL     1     -32.115 -50.956  54.072  0.00  0.00    +0.000 C 
ATOM      7  C   UNL     1     -32.303 -50.380  52.810  0.00  0.00    +0.000 C 
ATOM      8  C   UNL     1     -32.022 -53.241  53.472  0.00  0.00    +0.000 C 
ATOM      9  C   UNL     1     -32.422 -51.408  51.734  0.00  0.00    +0.000 C 
ATOM     10  H   UNL     1     -32.295 -53.431  51.448  0.00  0.00    +0.000 HD
ENDROOT
BRANCH   4  12
ATOM     11  O   UNL     1     -32.862 -52.544  56.706  0.00  0.00    +0.000 OA
ATOM     12  C   UNL     1     -31.799 -52.498  55.796  0.00  0.00    +0.000 C 
ATOM     13  C   UNL     1     -30.597 -52.760  56.505  0.00  0.00    +0.000 C 
ATOM     14  C   UNL     1     -30.580 -53.033  58.010  0.00  0.00    +0.000 C 
ATOM     15  C   UNL     1     -32.070 -52.820  57.748  0.00  0.00    +0.000 C 
ENDBRANCH   4  12
TORSDOF 1
ENDMDL
MODEL 4
REMARK VINA RESULT:      -4.7      5.979      7.267
REMARK  Name = 71369791_5FluoroDione.pdbqt.pdb
REMARK  1 active torsions:
REMARK  status: ('A' for Active; 'I' for Inactive)
REMARK    1  A    between atoms: N_4  and  C_12
REMARK                            x       y       z     vdW  Elec       q    Type
REMARK                         _______ _______ _______ _____ _____    ______ ____
ROOT
ATOM      1  F   UNL     1     -32.658 -42.781  53.521  0.00  0.00    +0.000 F 
ATOM      2  O   UNL     1     -36.832 -45.955  52.050  0.00  0.00    +0.000 OA
ATOM      3  O   UNL     1     -35.172 -41.736  52.738  0.00  0.00    +0.000 OA
ATOM      4  N   UNL     1     -34.521 -45.789  52.517  0.00  0.00    +0.000 N 
ATOM      5  N   UNL     1     -35.900 -43.882  52.321  0.00  0.00    +0.000 N 
ATOM      6  C   UNL     1     -33.543 -44.893  52.756  0.00  0.00    +0.000 C 
ATOM      7  C   UNL     1     -33.548 -43.494  52.811  0.00  0.00    +0.000 C 
ATOM      8  C   UNL     1     -35.823 -45.295  52.275  0.00  0.00    +0.000 C 
ATOM      9  C   UNL     1     -34.917 -42.928  52.622  0.00  0.00    +0.000 C 
ATOM     10  H   UNL     1     -36.831 -43.510  52.191  0.00  0.00    +0.000 HD
ENDROOT
BRANCH   4  12
ATOM     11  O   UNL     1     -33.229 -47.671  51.690  0.00  0.00    +0.000 OA
ATOM     12  C   UNL     1     -34.207 -47.119  52.525  0.00  0.00    +0.000 C 
ATOM     13  C   UNL     1     -34.756 -48.163  53.316  0.00  0.00    +0.000 C 
ATOM     14  C   UNL     1     -34.285 -49.613  53.194  0.00  0.00    +0.000 C 
ATOM     15  C   UNL     1     -33.406 -48.912  52.160  0.00  0.00    +0.000 C 
ENDBRANCH   4  12
TORSDOF 1
ENDMDL
MODEL 5
REMARK VINA RESULT:      -4.7     22.258     23.532
REMARK  Name = 71369791_5FluoroDione.pdbqt.pdb
REMARK  1 active torsions:
REMARK  status: ('A' for Active; 'I' for Inactive)
REMARK    1  A    between atoms: N_4  and  C_12
REMARK                            x       y       z     vdW  Elec       q    Type
REMARK                         _______ _______ _______ _____ _____    ______ ____
ROOT
ATOM      1  F   UNL     1     -47.201 -50.692  31.497  0.00  0.00    +0.000 F 
ATOM      2  O   UNL     1     -43.396 -51.730  35.254  0.00  0.00    +0.000 OA
ATOM      3  O   UNL     1     -46.854 -49.087  33.807  0.00  0.00    +0.000 OA
ATOM      4  N   UNL     1     -44.595 -52.493  33.365  0.00  0.00    +0.000 N 
ATOM      5  N   UNL     1     -45.193 -50.518  34.515  0.00  0.00    +0.000 N 
ATOM      6  C   UNL     1     -45.639 -52.188  32.571  0.00  0.00    +0.000 C 
ATOM      7  C   UNL     1     -46.553 -51.128  32.591  0.00  0.00    +0.000 C 
ATOM      8  C   UNL     1     -44.306 -51.620  34.438  0.00  0.00    +0.000 C 
ATOM      9  C   UNL     1     -46.249 -50.144  33.672  0.00  0.00    +0.000 C 
ATOM     10  H   UNL     1     -44.978 -49.860  35.250  0.00  0.00    +0.000 HD
ENDROOT
BRANCH   4  12
ATOM     11  O   UNL     1     -43.892 -54.751  33.920  0.00  0.00    +0.000 OA
ATOM     12  C   UNL     1     -43.872 -53.620  33.094  0.00  0.00    +0.000 C 
ATOM     13  C   UNL     1     -43.002 -53.885  32.003  0.00  0.00    +0.000 C 
ATOM     14  C   UNL     1     -42.262 -55.215  31.852  0.00  0.00    +0.000 C 
ATOM     15  C   UNL     1     -43.039 -55.435  33.149  0.00  0.00    +0.000 C 
ENDBRANCH   4  12
TORSDOF 1
ENDMDL
MODEL 6
REMARK VINA RESULT:      -4.7      5.778      6.758
REMARK  Name = 71369791_5FluoroDione.pdbqt.pdb
REMARK  1 active torsions:
REMARK  status: ('A' for Active; 'I' for Inactive)
REMARK    1  A    between atoms: N_4  and  C_12
REMARK                            x       y       z     vdW  Elec       q    Type
REMARK                         _______ _______ _______ _____ _____    ______ ____
ROOT
ATOM      1  F   UNL     1     -31.119 -44.329  51.954  0.00  0.00    +0.000 F 
ATOM      2  O   UNL     1     -35.312 -47.690  52.841  0.00  0.00    +0.000 OA
ATOM      3  O   UNL     1     -30.869 -46.726  53.444  0.00  0.00    +0.000 OA
ATOM      4  N   UNL     1     -34.579 -45.567  52.105  0.00  0.00    +0.000 N 
ATOM      5  N   UNL     1     -33.129 -47.090  53.181  0.00  0.00    +0.000 N 
ATOM      6  C   UNL     1     -33.490 -44.776  52.049  0.00  0.00    +0.000 C 
ATOM      7  C   UNL     1     -32.176 -44.958  52.496  0.00  0.00    +0.000 C 
ATOM      8  C   UNL     1     -34.440 -46.837  52.710  0.00  0.00    +0.000 C 
ATOM      9  C   UNL     1     -31.965 -46.312  53.087  0.00  0.00    +0.000 C 
ATOM     10  H   UNL     1     -32.999 -48.009  53.580  0.00  0.00    +0.000 HD
ENDROOT
BRANCH   4  12
ATOM     11  O   UNL     1     -36.635 -44.288  52.289  0.00  0.00    +0.000 OA
ATOM     12  C   UNL     1     -35.751 -45.107  51.575  0.00  0.00    +0.000 C 
ATOM     13  C   UNL     1     -36.302 -45.335  50.286  0.00  0.00    +0.000 C 
ATOM     14  C   UNL     1     -37.642 -44.739  49.853  0.00  0.00    +0.000 C 
ATOM     15  C   UNL     1     -37.510 -44.208  51.279  0.00  0.00    +0.000 C 
ENDBRANCH   4  12
TORSDOF 1
ENDMDL
MODEL 7
REMARK VINA RESULT:      -4.6     10.731     11.509
REMARK  Name = 71369791_5FluoroDione.pdbqt.pdb
REMARK  1 active torsions:
REMARK  status: ('A' for Active; 'I' for Inactive)
REMARK    1  A    between atoms: N_4  and  C_12
REMARK                            x       y       z     vdW  Elec       q    Type
REMARK                         _______ _______ _______ _____ _____    ______ ____
ROOT
ATOM      1  F   UNL     1     -31.785 -57.343  46.230  0.00  0.00    +0.000 F 
ATOM      2  O   UNL     1     -35.321 -60.922  48.315  0.00  0.00    +0.000 OA
ATOM      3  O   UNL     1     -33.184 -56.878  48.649  0.00  0.00    +0.000 OA
ATOM      4  N   UNL     1     -34.022 -60.254  46.458  0.00  0.00    +0.000 N 
ATOM      5  N   UNL     1     -34.290 -58.878  48.359  0.00  0.00    +0.000 N 
ATOM      6  C   UNL     1     -33.256 -59.244  46.000  0.00  0.00    +0.000 C 
ATOM      7  C   UNL     1     -32.906 -58.007  46.556  0.00  0.00    +0.000 C 
ATOM      8  C   UNL     1     -34.608 -60.109  47.736  0.00  0.00    +0.000 C 
ATOM      9  C   UNL     1     -33.453 -57.836  47.935  0.00  0.00    +0.000 C 
ATOM     10  H   UNL     1     -34.666 -58.773  49.291  0.00  0.00    +0.000 HD
ENDROOT
BRANCH   4  12
ATOM     11  O   UNL     1     -35.028 -61.373  44.552  0.00  0.00    +0.000 OA
ATOM     12  C   UNL     1     -34.187 -61.359  45.672  0.00  0.00    +0.000 C 
ATOM     13  C   UNL     1     -33.595 -62.644  45.798  0.00  0.00    +0.000 C 
ATOM     14  C   UNL     1     -33.896 -63.781  44.820  0.00  0.00    +0.000 C 
ATOM     15  C   UNL     1     -34.757 -62.650  44.258  0.00  0.00    +0.000 C 
ENDBRANCH   4  12
TORSDOF 1
ENDMDL
MODEL 8
REMARK VINA RESULT:      -4.5     11.403     12.376
REMARK  Name = 71369791_5FluoroDione.pdbqt.pdb
REMARK  1 active torsions:
REMARK  status: ('A' for Active; 'I' for Inactive)
REMARK    1  A    between atoms: N_4  and  C_12
REMARK                            x       y       z     vdW  Elec       q    Type
REMARK                         _______ _______ _______ _____ _____    ______ ____
ROOT
ATOM      1  F   UNL     1     -34.149 -60.107  42.290  0.00  0.00    +0.000 F 
ATOM      2  O   UNL     1     -34.944 -61.840  47.392  0.00  0.00    +0.000 OA
ATOM      3  O   UNL     1     -35.134 -62.695  42.890  0.00  0.00    +0.000 OA
ATOM      4  N   UNL     1     -33.998 -60.212  45.964  0.00  0.00    +0.000 N 
ATOM      5  N   UNL     1     -34.916 -62.225  45.135  0.00  0.00    +0.000 N 
ATOM      6  C   UNL     1     -33.749 -59.948  44.666  0.00  0.00    +0.000 C 
ATOM      7  C   UNL     1     -33.996 -60.678  43.497  0.00  0.00    +0.000 C 
ATOM      8  C   UNL     1     -34.632 -61.437  46.277  0.00  0.00    +0.000 C 
ATOM      9  C   UNL     1     -34.722 -61.953  43.773  0.00  0.00    +0.000 C 
ATOM     10  H   UNL     1     -35.406 -63.086  45.334  0.00  0.00    +0.000 HD
ENDROOT
BRANCH   4  12
ATOM     11  O   UNL     1     -34.544 -58.723  47.802  0.00  0.00    +0.000 OA
ATOM     12  C   UNL     1     -33.633 -59.290  46.903  0.00  0.00    +0.000 C 
ATOM     13  C   UNL     1     -32.351 -58.736  47.162  0.00  0.00    +0.000 C 
ATOM     14  C   UNL     1     -32.117 -57.700  48.263  0.00  0.00    +0.000 C 
ATOM     15  C   UNL     1     -33.616 -57.962  48.395  0.00  0.00    +0.000 C 
ENDBRANCH   4  12
TORSDOF 1
ENDMDL
MODEL 9
REMARK VINA RESULT:      -4.4     15.040     18.021
REMARK  Name = 71369791_5FluoroDione.pdbqt.pdb
REMARK  1 active torsions:
REMARK  status: ('A' for Active; 'I' for Inactive)
REMARK    1  A    between atoms: N_4  and  C_12
REMARK                            x       y       z     vdW  Elec       q    Type
REMARK                         _______ _______ _______ _____ _____    ______ ____
ROOT
ATOM      1  F   UNL     1     -32.282 -59.924  65.824  0.00  0.00    +0.000 F 
ATOM      2  O   UNL     1     -36.384 -63.290  64.597  0.00  0.00    +0.000 OA
ATOM      3  O   UNL     1     -33.033 -60.511  63.155  0.00  0.00    +0.000 OA
ATOM      4  N   UNL     1     -34.914 -62.457  66.250  0.00  0.00    +0.000 N 
ATOM      5  N   UNL     1     -34.630 -61.966  63.957  0.00  0.00    +0.000 N 
ATOM      6  C   UNL     1     -33.817 -61.692  66.413  0.00  0.00    +0.000 C 
ATOM      7  C   UNL     1     -33.009 -61.006  65.498  0.00  0.00    +0.000 C 
ATOM      8  C   UNL     1     -35.400 -62.640  64.935  0.00  0.00    +0.000 C 
ATOM      9  C   UNL     1     -33.521 -61.118  64.100  0.00  0.00    +0.000 C 
ATOM     10  H   UNL     1     -34.986 -62.050  63.015  0.00  0.00    +0.000 HD
ENDROOT
BRANCH   4  12
ATOM     11  O   UNL     1     -35.327 -64.354  67.709  0.00  0.00    +0.000 OA
ATOM     12  C   UNL     1     -35.498 -63.010  67.354  0.00  0.00    +0.000 C 
ATOM     13  C   UNL     1     -36.344 -62.401  68.319  0.00  0.00    +0.000 C 
ATOM     14  C   UNL     1     -36.919 -63.176  69.506  0.00  0.00    +0.000 C 
ATOM     15  C   UNL     1     -36.101 -64.254  68.796  0.00  0.00    +0.000 C 
ENDBRANCH   4  12
TORSDOF 1
ENDMDL
