MODEL 1
REMARK VINA RESULT:      -3.6      0.000      0.000
REMARK  Name = 7288_3Pentanone.pdbqt.pdb
REMARK  2 active torsions:
REMARK  status: ('A' for Active; 'I' for Inactive)
REMARK    1  A    between atoms: C_2  and  C_3
REMARK    2  A    between atoms: C_2  and  C_5
REMARK                            x       y       z     vdW  Elec       q    Type
REMARK                         _______ _______ _______ _____ _____    ______ ____
ROOT
ATOM      1  O   UNL     1     -45.096 -63.204  43.042  0.00  0.00    +0.000 OA
ATOM      2  C   UNL     1     -45.429 -63.039  44.209  0.00  0.00    +0.000 C 
ENDROOT
BRANCH   2   3
ATOM      3  C   UNL     1     -44.971 -63.934  45.245  0.00  0.00    +0.000 C 
ATOM      4  C   UNL     1     -44.501 -64.905  46.346  0.00  0.00    +0.000 C 
ENDBRANCH   2   3
BRANCH   2   5
ATOM      5  C   UNL     1     -46.291 -61.943  44.586  0.00  0.00    +0.000 C 
ATOM      6  C   UNL     1     -47.196 -60.767  45.006  0.00  0.00    +0.000 C 
ENDBRANCH   2   5
TORSDOF 2
ENDMDL
MODEL 2
REMARK VINA RESULT:      -3.4      3.734      5.001
REMARK  Name = 7288_3Pentanone.pdbqt.pdb
REMARK  2 active torsions:
REMARK  status: ('A' for Active; 'I' for Inactive)
REMARK    1  A    between atoms: C_2  and  C_3
REMARK    2  A    between atoms: C_2  and  C_5
REMARK                            x       y       z     vdW  Elec       q    Type
REMARK                         _______ _______ _______ _____ _____    ______ ____
ROOT
ATOM      1  O   UNL     1     -46.579 -60.833  43.329  0.00  0.00    +0.000 OA
ATOM      2  C   UNL     1     -47.559 -60.224  43.740  0.00  0.00    +0.000 C 
ENDROOT
BRANCH   2   3
ATOM      3  C   UNL     1     -48.387 -59.458  42.839  0.00  0.00    +0.000 C 
ATOM      4  C   UNL     1     -49.277 -58.625  41.896  0.00  0.00    +0.000 C 
ENDBRANCH   2   3
BRANCH   2   5
ATOM      5  C   UNL     1     -47.916 -60.252  45.139  0.00  0.00    +0.000 C 
ATOM      6  C   UNL     1     -48.313 -60.264  46.629  0.00  0.00    +0.000 C 
ENDBRANCH   2   5
TORSDOF 2
ENDMDL
MODEL 3
REMARK VINA RESULT:      -3.1     20.378     21.010
REMARK  Name = 7288_3Pentanone.pdbqt.pdb
REMARK  2 active torsions:
REMARK  status: ('A' for Active; 'I' for Inactive)
REMARK    1  A    between atoms: C_2  and  C_3
REMARK    2  A    between atoms: C_2  and  C_5
REMARK                            x       y       z     vdW  Elec       q    Type
REMARK                         _______ _______ _______ _____ _____    ______ ____
ROOT
ATOM      1  O   UNL     1     -62.860 -68.732  34.157  0.00  0.00    +0.000 OA
ATOM      2  C   UNL     1     -63.301 -67.669  34.578  0.00  0.00    +0.000 C 
ENDROOT
BRANCH   2   3
ATOM      3  C   UNL     1     -63.198 -67.326  35.976  0.00  0.00    +0.000 C 
ATOM      4  C   UNL     1     -63.069 -66.943  37.464  0.00  0.00    +0.000 C 
ENDBRANCH   2   3
BRANCH   2   5
ATOM      5  C   UNL     1     -63.937 -66.727  33.688  0.00  0.00    +0.000 C 
ATOM      6  C   UNL     1     -64.638 -65.734  32.739  0.00  0.00    +0.000 C 
ENDBRANCH   2   5
TORSDOF 2
ENDMDL
MODEL 4
REMARK VINA RESULT:      -3.1     20.191     20.980
REMARK  Name = 7288_3Pentanone.pdbqt.pdb
REMARK  2 active torsions:
REMARK  status: ('A' for Active; 'I' for Inactive)
REMARK    1  A    between atoms: C_2  and  C_3
REMARK    2  A    between atoms: C_2  and  C_5
REMARK                            x       y       z     vdW  Elec       q    Type
REMARK                         _______ _______ _______ _____ _____    ______ ____
ROOT
ATOM      1  O   UNL     1     -33.571 -46.079  52.478  0.00  0.00    +0.000 OA
ATOM      2  C   UNL     1     -34.655 -46.646  52.532  0.00  0.00    +0.000 C 
ENDROOT
BRANCH   2   3
ATOM      3  C   UNL     1     -35.871 -45.955  52.176  0.00  0.00    +0.000 C 
ATOM      4  C   UNL     1     -37.182 -45.232  51.810  0.00  0.00    +0.000 C 
ENDBRANCH   2   3
BRANCH   2   5
ATOM      5  C   UNL     1     -34.751 -48.023  52.954  0.00  0.00    +0.000 C 
ATOM      6  C   UNL     1     -34.833 -49.499  53.394  0.00  0.00    +0.000 C 
ENDBRANCH   2   5
TORSDOF 2
ENDMDL
MODEL 5
REMARK VINA RESULT:      -2.9     26.662     27.163
REMARK  Name = 7288_3Pentanone.pdbqt.pdb
REMARK  2 active torsions:
REMARK  status: ('A' for Active; 'I' for Inactive)
REMARK    1  A    between atoms: C_2  and  C_3
REMARK    2  A    between atoms: C_2  and  C_5
REMARK                            x       y       z     vdW  Elec       q    Type
REMARK                         _______ _______ _______ _____ _____    ______ ____
ROOT
ATOM      1  O   UNL     1     -64.692 -44.084  37.193  0.00  0.00    +0.000 OA
ATOM      2  C   UNL     1     -64.531 -44.360  38.376  0.00  0.00    +0.000 C 
ENDROOT
BRANCH   2   3
ATOM      3  C   UNL     1     -63.454 -43.770  39.135  0.00  0.00    +0.000 C 
ATOM      4  C   UNL     1     -62.291 -43.161  39.943  0.00  0.00    +0.000 C 
ENDBRANCH   2   3
BRANCH   2   5
ATOM      5  C   UNL     1     -65.413 -45.285  39.047  0.00  0.00    +0.000 C 
ATOM      6  C   UNL     1     -66.374 -46.260  39.756  0.00  0.00    +0.000 C 
ENDBRANCH   2   5
TORSDOF 2
ENDMDL
MODEL 6
REMARK VINA RESULT:      -2.9     36.429     36.944
REMARK  Name = 7288_3Pentanone.pdbqt.pdb
REMARK  2 active torsions:
REMARK  status: ('A' for Active; 'I' for Inactive)
REMARK    1  A    between atoms: C_2  and  C_3
REMARK    2  A    between atoms: C_2  and  C_5
REMARK                            x       y       z     vdW  Elec       q    Type
REMARK                         _______ _______ _______ _____ _____    ______ ____
ROOT
ATOM      1  O   UNL     1     -72.125 -68.845  20.099  0.00  0.00    +0.000 OA
ATOM      2  C   UNL     1     -72.826 -67.913  20.476  0.00  0.00    +0.000 C 
ENDROOT
BRANCH   2   3
ATOM      3  C   UNL     1     -74.051 -68.153  21.200  0.00  0.00    +0.000 C 
ATOM      4  C   UNL     1     -75.358 -68.386  21.983  0.00  0.00    +0.000 C 
ENDBRANCH   2   3
BRANCH   2   5
ATOM      5  C   UNL     1     -72.448 -66.546  20.206  0.00  0.00    +0.000 C 
ATOM      6  C   UNL     1     -72.025 -65.089  19.932  0.00  0.00    +0.000 C 
ENDBRANCH   2   5
TORSDOF 2
ENDMDL
MODEL 7
REMARK VINA RESULT:      -2.9     19.941     20.368
REMARK  Name = 7288_3Pentanone.pdbqt.pdb
REMARK  2 active torsions:
REMARK  status: ('A' for Active; 'I' for Inactive)
REMARK    1  A    between atoms: C_2  and  C_3
REMARK    2  A    between atoms: C_2  and  C_5
REMARK                            x       y       z     vdW  Elec       q    Type
REMARK                         _______ _______ _______ _____ _____    ______ ____
ROOT
ATOM      1  O   UNL     1     -32.926 -47.411  53.185  0.00  0.00    +0.000 OA
ATOM      2  C   UNL     1     -34.080 -47.776  52.992  0.00  0.00    +0.000 C 
ENDROOT
BRANCH   2   3
ATOM      3  C   UNL     1     -34.466 -49.151  53.201  0.00  0.00    +0.000 C 
ATOM      4  C   UNL     1     -34.885 -50.614  53.446  0.00  0.00    +0.000 C 
ENDBRANCH   2   3
BRANCH   2   5
ATOM      5  C   UNL     1     -35.088 -46.842  52.550  0.00  0.00    +0.000 C 
ATOM      6  C   UNL     1     -36.171 -45.860  52.059  0.00  0.00    +0.000 C 
ENDBRANCH   2   5
TORSDOF 2
ENDMDL
MODEL 8
REMARK VINA RESULT:      -2.8     20.895     20.989
REMARK  Name = 7288_3Pentanone.pdbqt.pdb
REMARK  2 active torsions:
REMARK  status: ('A' for Active; 'I' for Inactive)
REMARK    1  A    between atoms: C_2  and  C_3
REMARK    2  A    between atoms: C_2  and  C_5
REMARK                            x       y       z     vdW  Elec       q    Type
REMARK                         _______ _______ _______ _____ _____    ______ ____
ROOT
ATOM      1  O   UNL     1     -37.846 -44.590  52.448  0.00  0.00    +0.000 OA
ATOM      2  C   UNL     1     -37.021 -45.058  51.673  0.00  0.00    +0.000 C 
ENDROOT
BRANCH   2   3
ATOM      3  C   UNL     1     -36.024 -45.997  52.130  0.00  0.00    +0.000 C 
ATOM      4  C   UNL     1     -34.975 -47.018  52.612  0.00  0.00    +0.000 C 
ENDBRANCH   2   3
BRANCH   2   5
ATOM      5  C   UNL     1     -37.019 -44.684  50.279  0.00  0.00    +0.000 C 
ATOM      6  C   UNL     1     -37.007 -44.264  48.795  0.00  0.00    +0.000 C 
ENDBRANCH   2   5
TORSDOF 2
ENDMDL
MODEL 9
REMARK VINA RESULT:      -2.5     19.280     19.475
REMARK  Name = 7288_3Pentanone.pdbqt.pdb
REMARK  2 active torsions:
REMARK  status: ('A' for Active; 'I' for Inactive)
REMARK    1  A    between atoms: C_2  and  C_3
REMARK    2  A    between atoms: C_2  and  C_5
REMARK                            x       y       z     vdW  Elec       q    Type
REMARK                         _______ _______ _______ _____ _____    ______ ____
ROOT
ATOM      1  O   UNL     1     -31.753 -54.560  54.074  0.00  0.00    +0.000 OA
ATOM      2  C   UNL     1     -32.102 -53.452  54.462  0.00  0.00    +0.000 C 
ENDROOT
BRANCH   2   3
ATOM      3  C   UNL     1     -32.133 -53.136  55.871  0.00  0.00    +0.000 C 
ATOM      4  C   UNL     1     -32.148 -52.783  57.371  0.00  0.00    +0.000 C 
ENDBRANCH   2   3
BRANCH   2   5
ATOM      5  C   UNL     1     -32.493 -52.427  53.524  0.00  0.00    +0.000 C 
ATOM      6  C   UNL     1     -32.894 -51.318  52.530  0.00  0.00    +0.000 C 
ENDBRANCH   2   5
TORSDOF 2
ENDMDL
