MODEL 1
REMARK VINA RESULT:      -8.0      0.000      0.000
REMARK  Name = 73299_Hederagenin.pdbqt.pdb
REMARK  5 active torsions:
REMARK  status: ('A' for Active; 'I' for Inactive)
REMARK    1  A    between atoms: C_9  and  C_35
REMARK    2  A    between atoms: C_14  and  C_32
REMARK    3  A    between atoms: C_17  and  O_29
REMARK    4  A    between atoms: C_32  and  O_33
REMARK    5  A    between atoms: C_35  and  O_36
REMARK                            x       y       z     vdW  Elec       q    Type
REMARK                         _______ _______ _______ _____ _____    ______ ____
ROOT
ATOM      1  C   UNL     1     -63.722 -68.689  40.342  0.00  0.00    +0.000 C 
ATOM      2  C   UNL     1     -64.067 -67.322  39.616  0.00  0.00    +0.000 C 
ATOM      3  C   UNL     1     -63.032 -66.224  39.347  0.00  0.00    +0.000 C 
ATOM      4  C   UNL     1     -64.911 -69.154  41.396  0.00  0.00    +0.000 C 
ATOM      5  C   UNL     1     -61.898 -66.048  40.398  0.00  0.00    +0.000 C 
ATOM      6  C   UNL     1     -62.456 -68.447  41.044  0.00  0.00    +0.000 C 
ATOM      7  C   UNL     1     -61.578 -67.242  41.103  0.00  0.00    +0.000 C 
ATOM      8  C   UNL     1     -66.389 -69.083  40.725  0.00  0.00    +0.000 C 
ATOM      9  C   UNL     1     -61.363 -64.674  40.836  0.00  0.00    +0.000 C 
ATOM     10  C   UNL     1     -67.448 -70.099  40.905  0.00  0.00    +0.000 C 
ATOM     11  C   UNL     1     -65.462 -67.202  39.321  0.00  0.00    +0.000 C 
ATOM     12  C   UNL     1     -63.695 -64.925  39.283  0.00  0.00    +0.000 C 
ATOM     13  C   UNL     1     -64.797 -70.559  41.830  0.00  0.00    +0.000 C 
ATOM     14  C   UNL     1     -67.129 -71.698  41.164  0.00  0.00    +0.000 C 
ATOM     15  C   UNL     1     -63.510 -69.767  39.203  0.00  0.00    +0.000 C 
ATOM     16  C   UNL     1     -65.792 -71.694  41.758  0.00  0.00    +0.000 C 
ATOM     17  C   UNL     1     -62.039 -63.404  40.254  0.00  0.00    +0.000 C 
ATOM     18  C   UNL     1     -66.527 -68.105  39.876  0.00  0.00    +0.000 C 
ATOM     19  C   UNL     1     -62.356 -66.539  37.988  0.00  0.00    +0.000 C 
ATOM     20  C   UNL     1     -63.311 -63.535  39.668  0.00  0.00    +0.000 C 
ATOM     21  C   UNL     1     -64.989 -68.207  42.671  0.00  0.00    +0.000 C 
ATOM     22  C   UNL     1     -68.752 -69.653  41.397  0.00  0.00    +0.000 C 
ATOM     23  C   UNL     1     -68.232 -72.147  42.056  0.00  0.00    +0.000 C 
ATOM     24  C   UNL     1     -69.961 -70.041  42.217  0.00  0.00    +0.000 C 
ATOM     25  C   UNL     1     -59.837 -64.600  40.501  0.00  0.00    +0.000 C 
ATOM     26  C   UNL     1     -69.527 -71.440  42.534  0.00  0.00    +0.000 C 
ATOM     27  C   UNL     1     -70.074 -69.176  43.486  0.00  0.00    +0.000 C 
ATOM     28  C   UNL     1     -71.247 -70.015  41.372  0.00  0.00    +0.000 C 
ENDROOT
BRANCH  17  29
ATOM     29  O   UNL     1     -61.315 -62.245  40.030  0.00  0.00    +0.000 OA
ATOM     30  H   UNL     1     -60.422 -62.310  40.428  0.00  0.00    +0.000 HD
ENDBRANCH  17  29
BRANCH  14  32
ATOM     31  O   UNL     1     -68.133 -73.070  39.383  0.00  0.00    +0.000 OA
ATOM     32  C   UNL     1     -67.195 -72.408  39.807  0.00  0.00    +0.000 C 
BRANCH  32  33
ATOM     33  O   UNL     1     -66.061 -72.321  39.076  0.00  0.00    +0.000 OA
ATOM     34  H   UNL     1     -65.622 -71.499  39.383  0.00  0.00    +0.000 HD
ENDBRANCH  32  33
ENDBRANCH  14  32
BRANCH   9  35
ATOM     35  C   UNL     1     -61.548 -64.569  42.319  0.00  0.00    +0.000 C 
BRANCH  35  36
ATOM     36  O   UNL     1     -61.700 -64.467  43.642  0.00  0.00    +0.000 OA
ATOM     37  H   UNL     1     -61.633 -63.539  43.932  0.00  0.00    +0.000 HD
ENDBRANCH  35  36
ENDBRANCH   9  35
TORSDOF 5
ENDMDL
MODEL 2
REMARK VINA RESULT:      -7.3     20.851     26.039
REMARK  Name = 73299_Hederagenin.pdbqt.pdb
REMARK  5 active torsions:
REMARK  status: ('A' for Active; 'I' for Inactive)
REMARK    1  A    between atoms: C_9  and  C_35
REMARK    2  A    between atoms: C_14  and  C_32
REMARK    3  A    between atoms: C_17  and  O_29
REMARK    4  A    between atoms: C_32  and  O_33
REMARK    5  A    between atoms: C_35  and  O_36
REMARK                            x       y       z     vdW  Elec       q    Type
REMARK                         _______ _______ _______ _____ _____    ______ ____
ROOT
ATOM      1  C   UNL     1     -42.429 -58.165  34.748  0.00  0.00    +0.000 C 
ATOM      2  C   UNL     1     -43.668 -58.670  35.599  0.00  0.00    +0.000 C 
ATOM      3  C   UNL     1     -43.968 -60.150  35.857  0.00  0.00    +0.000 C 
ATOM      4  C   UNL     1     -42.821 -56.889  33.768  0.00  0.00    +0.000 C 
ATOM      5  C   UNL     1     -43.595 -61.156  34.729  0.00  0.00    +0.000 C 
ATOM      6  C   UNL     1     -41.999 -59.326  33.961  0.00  0.00    +0.000 C 
ATOM      7  C   UNL     1     -42.509 -60.728  33.915  0.00  0.00    +0.000 C 
ATOM      8  C   UNL     1     -43.629 -55.728  34.566  0.00  0.00    +0.000 C 
ATOM      9  C   UNL     1     -44.477 -62.357  34.349  0.00  0.00    +0.000 C 
ATOM     10  C   UNL     1     -43.400 -54.276  34.403  0.00  0.00    +0.000 C 
ATOM     11  C   UNL     1     -44.511 -57.593  36.019  0.00  0.00    +0.000 C 
ATOM     12  C   UNL     1     -45.400 -60.334  36.072  0.00  0.00    +0.000 C 
ATOM     13  C   UNL     1     -41.646 -56.181  33.225  0.00  0.00    +0.000 C 
ATOM     14  C   UNL     1     -41.934 -53.634  34.002  0.00  0.00    +0.000 C 
ATOM     15  C   UNL     1     -41.299 -57.767  35.784  0.00  0.00    +0.000 C 
ATOM     16  C   UNL     1     -41.257 -54.723  33.299  0.00  0.00    +0.000 C 
ATOM     17  C   UNL     1     -45.836 -62.529  35.077  0.00  0.00    +0.000 C 
ATOM     18  C   UNL     1     -44.419 -56.188  35.493  0.00  0.00    +0.000 C 
ATOM     19  C   UNL     1     -43.185 -60.572  37.128  0.00  0.00    +0.000 C 
ATOM     20  C   UNL     1     -46.373 -61.422  35.759  0.00  0.00    +0.000 C 
ATOM     21  C   UNL     1     -43.782 -57.319  32.577  0.00  0.00    +0.000 C 
ATOM     22  C   UNL     1     -44.547 -53.434  34.057  0.00  0.00    +0.000 C 
ATOM     23  C   UNL     1     -42.274 -52.443  33.177  0.00  0.00    +0.000 C 
ATOM     24  C   UNL     1     -44.988 -52.193  33.317  0.00  0.00    +0.000 C 
ATOM     25  C   UNL     1     -43.652 -63.670  34.557  0.00  0.00    +0.000 C 
ATOM     26  C   UNL     1     -43.628 -51.756  32.864  0.00  0.00    +0.000 C 
ATOM     27  C   UNL     1     -45.901 -52.548  32.129  0.00  0.00    +0.000 C 
ATOM     28  C   UNL     1     -45.634 -51.169  34.268  0.00  0.00    +0.000 C 
ENDROOT
BRANCH  17  29
ATOM     29  O   UNL     1     -46.364 -63.785  35.323  0.00  0.00    +0.000 OA
ATOM     30  H   UNL     1     -46.042 -64.434  34.663  0.00  0.00    +0.000 HD
ENDBRANCH  17  29
BRANCH  14  32
ATOM     31  O   UNL     1     -40.063 -53.409  35.589  0.00  0.00    +0.000 OA
ATOM     32  C   UNL     1     -41.239 -53.220  35.305  0.00  0.00    +0.000 C 
BRANCH  32  33
ATOM     33  O   UNL     1     -42.059 -52.657  36.219  0.00  0.00    +0.000 OA
ATOM     34  H   UNL     1     -42.958 -52.975  35.988  0.00  0.00    +0.000 HD
ENDBRANCH  32  33
ENDBRANCH  14  32
BRANCH   9  35
ATOM     35  C   UNL     1     -44.826 -62.220  32.899  0.00  0.00    +0.000 C 
BRANCH  35  36
ATOM     36  O   UNL     1     -45.142 -62.083  31.608  0.00  0.00    +0.000 OA
ATOM     37  H   UNL     1     -44.473 -61.553  31.138  0.00  0.00    +0.000 HD
ENDBRANCH  35  36
ENDBRANCH   9  35
TORSDOF 5
ENDMDL
MODEL 3
REMARK VINA RESULT:      -7.2     18.878     24.546
REMARK  Name = 73299_Hederagenin.pdbqt.pdb
REMARK  5 active torsions:
REMARK  status: ('A' for Active; 'I' for Inactive)
REMARK    1  A    between atoms: C_9  and  C_35
REMARK    2  A    between atoms: C_14  and  C_32
REMARK    3  A    between atoms: C_17  and  O_29
REMARK    4  A    between atoms: C_32  and  O_33
REMARK    5  A    between atoms: C_35  and  O_36
REMARK                            x       y       z     vdW  Elec       q    Type
REMARK                         _______ _______ _______ _____ _____    ______ ____
ROOT
ATOM      1  C   UNL     1     -43.812 -60.716  35.506  0.00  0.00    +0.000 C 
ATOM      2  C   UNL     1     -43.526 -60.787  37.065  0.00  0.00    +0.000 C 
ATOM      3  C   UNL     1     -43.971 -61.955  37.952  0.00  0.00    +0.000 C 
ATOM      4  C   UNL     1     -44.236 -59.192  35.017  0.00  0.00    +0.000 C 
ATOM      5  C   UNL     1     -45.307 -62.659  37.578  0.00  0.00    +0.000 C 
ATOM      6  C   UNL     1     -44.898 -61.672  35.267  0.00  0.00    +0.000 C 
ATOM      7  C   UNL     1     -45.624 -62.590  36.192  0.00  0.00    +0.000 C 
ATOM      8  C   UNL     1     -43.220 -58.060  35.585  0.00  0.00    +0.000 C 
ATOM      9  C   UNL     1     -46.326 -63.141  38.625  0.00  0.00    +0.000 C 
ATOM     10  C   UNL     1     -42.717 -56.908  34.804  0.00  0.00    +0.000 C 
ATOM     11  C   UNL     1     -42.887 -59.604  37.553  0.00  0.00    +0.000 C 
ATOM     12  C   UNL     1     -44.158 -61.490  39.323  0.00  0.00    +0.000 C 
ATOM     13  C   UNL     1     -44.179 -59.006  33.555  0.00  0.00    +0.000 C 
ATOM     14  C   UNL     1     -42.500 -56.955  33.169  0.00  0.00    +0.000 C 
ATOM     15  C   UNL     1     -42.492 -61.205  34.780  0.00  0.00    +0.000 C 
ATOM     16  C   UNL     1     -43.431 -57.991  32.723  0.00  0.00    +0.000 C 
ATOM     17  C   UNL     1     -46.037 -62.843  40.120  0.00  0.00    +0.000 C 
ATOM     18  C   UNL     1     -42.755 -58.327  36.771  0.00  0.00    +0.000 C 
ATOM     19  C   UNL     1     -42.855 -63.029  37.906  0.00  0.00    +0.000 C 
ATOM     20  C   UNL     1     -45.089 -61.852  40.432  0.00  0.00    +0.000 C 
ATOM     21  C   UNL     1     -45.672 -58.767  35.552  0.00  0.00    +0.000 C 
ATOM     22  C   UNL     1     -42.918 -55.566  35.353  0.00  0.00    +0.000 C 
ATOM     23  C   UNL     1     -42.811 -55.570  32.724  0.00  0.00    +0.000 C 
ATOM     24  C   UNL     1     -43.154 -54.114  35.007  0.00  0.00    +0.000 C 
ATOM     25  C   UNL     1     -46.509 -64.688  38.472  0.00  0.00    +0.000 C 
ATOM     26  C   UNL     1     -43.090 -54.267  33.518  0.00  0.00    +0.000 C 
ATOM     27  C   UNL     1     -44.546 -53.650  35.475  0.00  0.00    +0.000 C 
ATOM     28  C   UNL     1     -42.025 -53.216  35.542  0.00  0.00    +0.000 C 
ENDROOT
BRANCH  17  29
ATOM     29  O   UNL     1     -46.448 -63.712  41.117  0.00  0.00    +0.000 OA
ATOM     30  H   UNL     1     -47.392 -63.569  41.337  0.00  0.00    +0.000 HD
ENDBRANCH  17  29
BRANCH  14  32
ATOM     31  O   UNL     1     -40.591 -58.386  32.555  0.00  0.00    +0.000 OA
ATOM     32  C   UNL     1     -41.028 -57.298  32.908  0.00  0.00    +0.000 C 
BRANCH  32  33
ATOM     33  O   UNL     1     -40.166 -56.291  33.171  0.00  0.00    +0.000 OA
ATOM     34  H   UNL     1     -40.523 -55.516  32.688  0.00  0.00    +0.000 HD
ENDBRANCH  32  33
ENDBRANCH  14  32
BRANCH   9  35
ATOM     35  C   UNL     1     -47.627 -62.460  38.337  0.00  0.00    +0.000 C 
BRANCH  35  36
ATOM     36  O   UNL     1     -48.796 -61.862  38.087  0.00  0.00    +0.000 OA
ATOM     37  H   UNL     1     -49.499 -62.519  37.931  0.00  0.00    +0.000 HD
ENDBRANCH  35  36
ENDBRANCH   9  35
TORSDOF 5
ENDMDL
MODEL 4
REMARK VINA RESULT:      -7.1      2.079      8.166
REMARK  Name = 73299_Hederagenin.pdbqt.pdb
REMARK  5 active torsions:
REMARK  status: ('A' for Active; 'I' for Inactive)
REMARK    1  A    between atoms: C_9  and  C_35
REMARK    2  A    between atoms: C_14  and  C_32
REMARK    3  A    between atoms: C_17  and  O_29
REMARK    4  A    between atoms: C_32  and  O_33
REMARK    5  A    between atoms: C_35  and  O_36
REMARK                            x       y       z     vdW  Elec       q    Type
REMARK                         _______ _______ _______ _____ _____    ______ ____
ROOT
ATOM      1  C   UNL     1     -65.053 -70.109  40.820  0.00  0.00    +0.000 C 
ATOM      2  C   UNL     1     -66.035 -69.856  42.039  0.00  0.00    +0.000 C 
ATOM      3  C   UNL     1     -67.312 -70.669  42.277  0.00  0.00    +0.000 C 
ATOM      4  C   UNL     1     -64.488 -68.695  40.168  0.00  0.00    +0.000 C 
ATOM      5  C   UNL     1     -68.074 -71.174  41.017  0.00  0.00    +0.000 C 
ATOM      6  C   UNL     1     -65.837 -70.869  39.840  0.00  0.00    +0.000 C 
ATOM      7  C   UNL     1     -67.238 -71.382  39.885  0.00  0.00    +0.000 C 
ATOM      8  C   UNL     1     -63.932 -67.675  41.303  0.00  0.00    +0.000 C 
ATOM      9  C   UNL     1     -69.608 -71.187  40.911  0.00  0.00    +0.000 C 
ATOM     10  C   UNL     1     -62.702 -66.863  41.178  0.00  0.00    +0.000 C 
ATOM     11  C   UNL     1     -65.636 -68.734  42.833  0.00  0.00    +0.000 C 
ATOM     12  C   UNL     1     -68.283 -69.861  43.009  0.00  0.00    +0.000 C 
ATOM     13  C   UNL     1     -63.331 -68.881  39.273  0.00  0.00    +0.000 C 
ATOM     14  C   UNL     1     -61.391 -67.342  40.297  0.00  0.00    +0.000 C 
ATOM     15  C   UNL     1     -63.866 -71.001  41.371  0.00  0.00    +0.000 C 
ATOM     16  C   UNL     1     -61.955 -68.258  39.305  0.00  0.00    +0.000 C 
ATOM     17  C   UNL     1     -70.430 -70.598  42.090  0.00  0.00    +0.000 C 
ATOM     18  C   UNL     1     -64.594 -67.733  42.423  0.00  0.00    +0.000 C 
ATOM     19  C   UNL     1     -66.925 -71.916  43.113  0.00  0.00    +0.000 C 
ATOM     20  C   UNL     1     -69.772 -69.762  43.009  0.00  0.00    +0.000 C 
ATOM     21  C   UNL     1     -65.627 -67.888  39.406  0.00  0.00    +0.000 C 
ATOM     22  C   UNL     1     -62.812 -65.416  41.365  0.00  0.00    +0.000 C 
ATOM     23  C   UNL     1     -60.832 -66.072  39.761  0.00  0.00    +0.000 C 
ATOM     24  C   UNL     1     -62.259 -64.072  40.950  0.00  0.00    +0.000 C 
ATOM     25  C   UNL     1     -70.084 -72.660  40.685  0.00  0.00    +0.000 C 
ATOM     26  C   UNL     1     -61.182 -64.588  40.046  0.00  0.00    +0.000 C 
ATOM     27  C   UNL     1     -63.310 -63.252  40.179  0.00  0.00    +0.000 C 
ATOM     28  C   UNL     1     -61.682 -63.304  42.152  0.00  0.00    +0.000 C 
ENDROOT
BRANCH  17  29
ATOM     29  O   UNL     1     -71.674 -71.107  42.421  0.00  0.00    +0.000 OA
ATOM     30  H   UNL     1     -71.592 -72.001  42.813  0.00  0.00    +0.000 HD
ENDBRANCH  17  29
BRANCH  14  32
ATOM     31  O   UNL     1     -60.657 -68.933  42.028  0.00  0.00    +0.000 OA
ATOM     32  C   UNL     1     -60.406 -68.013  41.261  0.00  0.00    +0.000 C 
BRANCH  32  33
ATOM     33  O   UNL     1     -59.175 -67.455  41.277  0.00  0.00    +0.000 OA
ATOM     34  H   UNL     1     -58.739 -67.820  42.077  0.00  0.00    +0.000 HD
ENDBRANCH  32  33
ENDBRANCH  14  32
BRANCH   9  35
ATOM     35  C   UNL     1     -69.986 -70.359  39.723  0.00  0.00    +0.000 C 
BRANCH  35  36
ATOM     36  O   UNL     1     -70.313 -69.627  38.654  0.00  0.00    +0.000 OA
ATOM     37  H   UNL     1     -70.709 -68.776  38.918  0.00  0.00    +0.000 HD
ENDBRANCH  35  36
ENDBRANCH   9  35
TORSDOF 5
ENDMDL
MODEL 5
REMARK VINA RESULT:      -7.0     19.388     22.223
REMARK  Name = 73299_Hederagenin.pdbqt.pdb
REMARK  5 active torsions:
REMARK  status: ('A' for Active; 'I' for Inactive)
REMARK    1  A    between atoms: C_9  and  C_35
REMARK    2  A    between atoms: C_14  and  C_32
REMARK    3  A    between atoms: C_17  and  O_29
REMARK    4  A    between atoms: C_32  and  O_33
REMARK    5  A    between atoms: C_35  and  O_36
REMARK                            x       y       z     vdW  Elec       q    Type
REMARK                         _______ _______ _______ _____ _____    ______ ____
ROOT
ATOM      1  C   UNL     1     -45.049 -63.824  38.418  0.00  0.00    +0.000 C 
ATOM      2  C   UNL     1     -45.144 -65.342  37.969  0.00  0.00    +0.000 C 
ATOM      3  C   UNL     1     -44.682 -66.512  38.844  0.00  0.00    +0.000 C 
ATOM      4  C   UNL     1     -44.575 -62.834  37.178  0.00  0.00    +0.000 C 
ATOM      5  C   UNL     1     -43.458 -66.261  39.773  0.00  0.00    +0.000 C 
ATOM      6  C   UNL     1     -44.074 -63.804  39.514  0.00  0.00    +0.000 C 
ATOM      7  C   UNL     1     -43.310 -64.903  40.173  0.00  0.00    +0.000 C 
ATOM      8  C   UNL     1     -45.427 -63.100  35.820  0.00  0.00    +0.000 C 
ATOM      9  C   UNL     1     -42.358 -67.307  40.014  0.00  0.00    +0.000 C 
ATOM     10  C   UNL     1     -45.934 -62.041  34.921  0.00  0.00    +0.000 C 
ATOM     11  C   UNL     1     -45.629 -65.481  36.630  0.00  0.00    +0.000 C 
ATOM     12  C   UNL     1     -44.294 -67.637  38.000  0.00  0.00    +0.000 C 
ATOM     13  C   UNL     1     -44.799 -61.402  37.450  0.00  0.00    +0.000 C 
ATOM     14  C   UNL     1     -46.355 -60.535  35.449  0.00  0.00    +0.000 C 
ATOM     15  C   UNL     1     -46.480 -63.420  38.960  0.00  0.00    +0.000 C 
ATOM     16  C   UNL     1     -45.566 -60.361  36.669  0.00  0.00    +0.000 C 
ATOM     17  C   UNL     1     -42.437 -68.648  39.236  0.00  0.00    +0.000 C 
ATOM     18  C   UNL     1     -45.760 -64.347  35.653  0.00  0.00    +0.000 C 
ATOM     19  C   UNL     1     -45.873 -66.918  39.751  0.00  0.00    +0.000 C 
ATOM     20  C   UNL     1     -43.263 -68.712  38.100  0.00  0.00    +0.000 C 
ATOM     21  C   UNL     1     -43.057 -63.068  36.768  0.00  0.00    +0.000 C 
ATOM     22  C   UNL     1     -45.568 -62.108  33.506  0.00  0.00    +0.000 C 
ATOM     23  C   UNL     1     -45.998 -59.642  34.314  0.00  0.00    +0.000 C 
ATOM     24  C   UNL     1     -45.269 -61.294  32.268  0.00  0.00    +0.000 C 
ATOM     25  C   UNL     1     -42.310 -67.643  41.541  0.00  0.00    +0.000 C 
ATOM     26  C   UNL     1     -45.527 -59.946  32.868  0.00  0.00    +0.000 C 
ATOM     27  C   UNL     1     -43.800 -61.457  31.837  0.00  0.00    +0.000 C 
ATOM     28  C   UNL     1     -46.253 -61.615  31.130  0.00  0.00    +0.000 C 
ENDROOT
BRANCH  17  29
ATOM     29  O   UNL     1     -41.972 -69.828  39.792  0.00  0.00    +0.000 OA
ATOM     30  H   UNL     1     -42.713 -70.443  39.974  0.00  0.00    +0.000 HD
ENDBRANCH  17  29
BRANCH  14  32
ATOM     31  O   UNL     1     -48.532 -61.476  36.112  0.00  0.00    +0.000 OA
ATOM     32  C   UNL     1     -47.869 -60.537  35.693  0.00  0.00    +0.000 C 
BRANCH  32  33
ATOM     33  O   UNL     1     -48.492 -59.393  35.333  0.00  0.00    +0.000 OA
ATOM     34  H   UNL     1     -48.504 -59.406  34.352  0.00  0.00    +0.000 HD
ENDBRANCH  32  33
ENDBRANCH  14  32
BRANCH   9  35
ATOM     35  C   UNL     1     -41.054 -66.696  39.603  0.00  0.00    +0.000 C 
BRANCH  35  36
ATOM     36  O   UNL     1     -39.886 -66.163  39.232  0.00  0.00    +0.000 OA
ATOM     37  H   UNL     1     -39.869 -65.203  39.401  0.00  0.00    +0.000 HD
ENDBRANCH  35  36
ENDBRANCH   9  35
TORSDOF 5
ENDMDL
MODEL 6
REMARK VINA RESULT:      -6.9     19.692     23.021
REMARK  Name = 73299_Hederagenin.pdbqt.pdb
REMARK  5 active torsions:
REMARK  status: ('A' for Active; 'I' for Inactive)
REMARK    1  A    between atoms: C_9  and  C_35
REMARK    2  A    between atoms: C_14  and  C_32
REMARK    3  A    between atoms: C_17  and  O_29
REMARK    4  A    between atoms: C_32  and  O_33
REMARK    5  A    between atoms: C_35  and  O_36
REMARK                            x       y       z     vdW  Elec       q    Type
REMARK                         _______ _______ _______ _____ _____    ______ ____
ROOT
ATOM      1  C   UNL     1     -46.537 -63.497  32.612  0.00  0.00    +0.000 C 
ATOM      2  C   UNL     1     -45.506 -64.297  31.711  0.00  0.00    +0.000 C 
ATOM      3  C   UNL     1     -45.884 -65.537  30.893  0.00  0.00    +0.000 C 
ATOM      4  C   UNL     1     -45.869 -63.016  34.049  0.00  0.00    +0.000 C 
ATOM      5  C   UNL     1     -46.976 -66.472  31.489  0.00  0.00    +0.000 C 
ATOM      6  C   UNL     1     -47.658 -64.418  32.831  0.00  0.00    +0.000 C 
ATOM      7  C   UNL     1     -47.904 -65.804  32.335  0.00  0.00    +0.000 C 
ATOM      8  C   UNL     1     -44.427 -62.296  33.845  0.00  0.00    +0.000 C 
ATOM      9  C   UNL     1     -46.907 -68.006  31.404  0.00  0.00    +0.000 C 
ATOM     10  C   UNL     1     -43.976 -61.088  34.569  0.00  0.00    +0.000 C 
ATOM     11  C   UNL     1     -44.176 -63.780  31.820  0.00  0.00    +0.000 C 
ATOM     12  C   UNL     1     -44.712 -66.387  30.714  0.00  0.00    +0.000 C 
ATOM     13  C   UNL     1     -46.666 -61.996  34.756  0.00  0.00    +0.000 C 
ATOM     14  C   UNL     1     -45.012 -59.918  35.102  0.00  0.00    +0.000 C 
ATOM     15  C   UNL     1     -47.018 -62.254  31.758  0.00  0.00    +0.000 C 
ATOM     16  C   UNL     1     -46.284 -60.623  35.257  0.00  0.00    +0.000 C 
ATOM     17  C   UNL     1     -45.651 -68.648  30.757  0.00  0.00    +0.000 C 
ATOM     18  C   UNL     1     -43.732 -62.795  32.864  0.00  0.00    +0.000 C 
ATOM     19  C   UNL     1     -46.398 -65.049  29.514  0.00  0.00    +0.000 C 
ATOM     20  C   UNL     1     -44.494 -67.861  30.620  0.00  0.00    +0.000 C 
ATOM     21  C   UNL     1     -45.587 -64.241  35.022  0.00  0.00    +0.000 C 
ATOM     22  C   UNL     1     -42.710 -61.156  35.299  0.00  0.00    +0.000 C 
ATOM     23  C   UNL     1     -44.386 -59.427  36.359  0.00  0.00    +0.000 C 
ATOM     24  C   UNL     1     -41.952 -60.654  36.507  0.00  0.00    +0.000 C 
ATOM     25  C   UNL     1     -48.163 -68.523  30.628  0.00  0.00    +0.000 C 
ATOM     26  C   UNL     1     -43.009 -59.718  37.010  0.00  0.00    +0.000 C 
ATOM     27  C   UNL     1     -41.674 -61.794  37.503  0.00  0.00    +0.000 C 
ATOM     28  C   UNL     1     -40.671 -59.906  36.097  0.00  0.00    +0.000 C 
ENDROOT
BRANCH  17  29
ATOM     29  O   UNL     1     -45.736 -69.840  30.056  0.00  0.00    +0.000 OA
ATOM     30  H   UNL     1     -45.847 -70.597  30.668  0.00  0.00    +0.000 HD
ENDBRANCH  17  29
BRANCH  14  32
ATOM     31  O   UNL     1     -45.105 -58.979  32.827  0.00  0.00    +0.000 OA
ATOM     32  C   UNL     1     -45.048 -58.814  34.038  0.00  0.00    +0.000 C 
BRANCH  32  33
ATOM     33  O   UNL     1     -44.937 -57.561  34.532  0.00  0.00    +0.000 OA
ATOM     34  H   UNL     1     -44.886 -56.979  33.743  0.00  0.00    +0.000 HD
ENDBRANCH  32  33
ENDBRANCH  14  32
BRANCH   9  35
ATOM     35  C   UNL     1     -46.939 -68.538  32.803  0.00  0.00    +0.000 C 
BRANCH  35  36
ATOM     36  O   UNL     1     -46.965 -69.026  34.047  0.00  0.00    +0.000 OA
ATOM     37  H   UNL     1     -46.966 -70.001  34.040  0.00  0.00    +0.000 HD
ENDBRANCH  35  36
ENDBRANCH   9  35
TORSDOF 5
ENDMDL
MODEL 7
REMARK VINA RESULT:      -6.9     19.258     24.576
REMARK  Name = 73299_Hederagenin.pdbqt.pdb
REMARK  5 active torsions:
REMARK  status: ('A' for Active; 'I' for Inactive)
REMARK    1  A    between atoms: C_9  and  C_35
REMARK    2  A    between atoms: C_14  and  C_32
REMARK    3  A    between atoms: C_17  and  O_29
REMARK    4  A    between atoms: C_32  and  O_33
REMARK    5  A    between atoms: C_35  and  O_36
REMARK                            x       y       z     vdW  Elec       q    Type
REMARK                         _______ _______ _______ _____ _____    ______ ____
ROOT
ATOM      1  C   UNL     1     -42.083 -57.981  34.992  0.00  0.00    +0.000 C 
ATOM      2  C   UNL     1     -42.534 -57.454  33.565  0.00  0.00    +0.000 C 
ATOM      3  C   UNL     1     -41.892 -56.249  32.869  0.00  0.00    +0.000 C 
ATOM      4  C   UNL     1     -43.372 -58.433  35.928  0.00  0.00    +0.000 C 
ATOM      5  C   UNL     1     -41.388 -55.091  33.778  0.00  0.00    +0.000 C 
ATOM      6  C   UNL     1     -41.349 -56.867  35.603  0.00  0.00    +0.000 C 
ATOM      7  C   UNL     1     -41.005 -55.511  35.083  0.00  0.00    +0.000 C 
ATOM      8  C   UNL     1     -44.401 -59.403  35.127  0.00  0.00    +0.000 C 
ATOM      9  C   UNL     1     -41.544 -53.606  33.412  0.00  0.00    +0.000 C 
ATOM     10  C   UNL     1     -45.055 -60.598  35.703  0.00  0.00    +0.000 C 
ATOM     11  C   UNL     1     -43.657 -58.177  33.051  0.00  0.00    +0.000 C 
ATOM     12  C   UNL     1     -42.856 -55.630  31.965  0.00  0.00    +0.000 C 
ATOM     13  C   UNL     1     -42.991 -59.233  37.107  0.00  0.00    +0.000 C 
ATOM     14  C   UNL     1     -44.367 -61.521  36.885  0.00  0.00    +0.000 C 
ATOM     15  C   UNL     1     -41.103 -59.198  34.737  0.00  0.00    +0.000 C 
ATOM     16  C   UNL     1     -43.452 -60.599  37.559  0.00  0.00    +0.000 C 
ATOM     17  C   UNL     1     -42.306 -53.248  32.108  0.00  0.00    +0.000 C 
ATOM     18  C   UNL     1     -44.500 -59.122  33.860  0.00  0.00    +0.000 C 
ATOM     19  C   UNL     1     -40.673 -56.768  32.065  0.00  0.00    +0.000 C 
ATOM     20  C   UNL     1     -43.126 -54.230  31.524  0.00  0.00    +0.000 C 
ATOM     21  C   UNL     1     -44.247 -57.189  36.388  0.00  0.00    +0.000 C 
ATOM     22  C   UNL     1     -46.515 -60.678  35.643  0.00  0.00    +0.000 C 
ATOM     23  C   UNL     1     -45.522 -61.993  37.694  0.00  0.00    +0.000 C 
ATOM     24  C   UNL     1     -47.753 -61.188  36.343  0.00  0.00    +0.000 C 
ATOM     25  C   UNL     1     -40.123 -52.957  33.329  0.00  0.00    +0.000 C 
ATOM     26  C   UNL     1     -47.053 -61.880  37.473  0.00  0.00    +0.000 C 
ATOM     27  C   UNL     1     -48.631 -60.024  36.840  0.00  0.00    +0.000 C 
ATOM     28  C   UNL     1     -48.534 -62.176  35.459  0.00  0.00    +0.000 C 
ENDROOT
BRANCH  17  29
ATOM     29  O   UNL     1     -41.969 -52.130  31.365  0.00  0.00    +0.000 OA
ATOM     30  H   UNL     1     -41.111 -52.260  30.909  0.00  0.00    +0.000 HD
ENDBRANCH  17  29
BRANCH  14  32
ATOM     31  O   UNL     1     -42.984 -62.639  35.181  0.00  0.00    +0.000 OA
ATOM     32  C   UNL     1     -43.659 -62.696  36.201  0.00  0.00    +0.000 C 
BRANCH  32  33
ATOM     33  O   UNL     1     -43.886 -63.897  36.778  0.00  0.00    +0.000 OA
ATOM     34  H   UNL     1     -44.787 -64.154  36.487  0.00  0.00    +0.000 HD
ENDBRANCH  32  33
ENDBRANCH  14  32
BRANCH   9  35
ATOM     35  C   UNL     1     -42.322 -52.949  34.510  0.00  0.00    +0.000 C 
BRANCH  35  36
ATOM     36  O   UNL     1     -43.004 -52.356  35.494  0.00  0.00    +0.000 OA
ATOM     37  H   UNL     1     -43.629 -52.977  35.911  0.00  0.00    +0.000 HD
ENDBRANCH  35  36
ENDBRANCH   9  35
TORSDOF 5
ENDMDL
MODEL 8
REMARK VINA RESULT:      -6.8     28.593     30.941
REMARK  Name = 73299_Hederagenin.pdbqt.pdb
REMARK  5 active torsions:
REMARK  status: ('A' for Active; 'I' for Inactive)
REMARK    1  A    between atoms: C_9  and  C_35
REMARK    2  A    between atoms: C_14  and  C_32
REMARK    3  A    between atoms: C_17  and  O_29
REMARK    4  A    between atoms: C_32  and  O_33
REMARK    5  A    between atoms: C_35  and  O_36
REMARK                            x       y       z     vdW  Elec       q    Type
REMARK                         _______ _______ _______ _____ _____    ______ ____
ROOT
ATOM      1  C   UNL     1     -55.111 -40.705  37.391  0.00  0.00    +0.000 C 
ATOM      2  C   UNL     1     -54.894 -39.498  36.385  0.00  0.00    +0.000 C 
ATOM      3  C   UNL     1     -55.800 -39.231  35.179  0.00  0.00    +0.000 C 
ATOM      4  C   UNL     1     -53.681 -41.410  37.839  0.00  0.00    +0.000 C 
ATOM      5  C   UNL     1     -56.415 -40.471  34.467  0.00  0.00    +0.000 C 
ATOM      6  C   UNL     1     -55.970 -41.656  36.677  0.00  0.00    +0.000 C 
ATOM      7  C   UNL     1     -56.595 -41.593  35.323  0.00  0.00    +0.000 C 
ATOM      8  C   UNL     1     -52.575 -40.315  38.303  0.00  0.00    +0.000 C 
ATOM      9  C   UNL     1     -56.559 -40.579  32.940  0.00  0.00    +0.000 C 
ATOM     10  C   UNL     1     -51.669 -40.469  39.463  0.00  0.00    +0.000 C 
ATOM     11  C   UNL     1     -53.713 -38.748  36.686  0.00  0.00    +0.000 C 
ATOM     12  C   UNL     1     -55.049 -38.532  34.141  0.00  0.00    +0.000 C 
ATOM     13  C   UNL     1     -53.804 -42.296  39.012  0.00  0.00    +0.000 C 
ATOM     14  C   UNL     1     -52.071 -41.330  40.812  0.00  0.00    +0.000 C 
ATOM     15  C   UNL     1     -55.879 -40.119  38.645  0.00  0.00    +0.000 C 
ATOM     16  C   UNL     1     -53.068 -42.286  40.332  0.00  0.00    +0.000 C 
ATOM     17  C   UNL     1     -55.996 -39.425  32.067  0.00  0.00    +0.000 C 
ATOM     18  C   UNL     1     -52.645 -39.195  37.644  0.00  0.00    +0.000 C 
ATOM     19  C   UNL     1     -56.978 -38.347  35.664  0.00  0.00    +0.000 C 
ATOM     20  C   UNL     1     -55.073 -38.538  32.649  0.00  0.00    +0.000 C 
ATOM     21  C   UNL     1     -53.001 -42.204  36.641  0.00  0.00    +0.000 C 
ATOM     22  C   UNL     1     -50.230 -40.338  39.232  0.00  0.00    +0.000 C 
ATOM     23  C   UNL     1     -50.781 -41.913  41.266  0.00  0.00    +0.000 C 
ATOM     24  C   UNL     1     -48.862 -40.805  39.673  0.00  0.00    +0.000 C 
ATOM     25  C   UNL     1     -58.074 -40.748  32.589  0.00  0.00    +0.000 C 
ATOM     26  C   UNL     1     -49.321 -41.687  40.794  0.00  0.00    +0.000 C 
ATOM     27  C   UNL     1     -48.162 -41.608  38.561  0.00  0.00    +0.000 C 
ATOM     28  C   UNL     1     -48.003 -39.632  40.179  0.00  0.00    +0.000 C 
ENDROOT
BRANCH  17  29
ATOM     29  O   UNL     1     -56.594 -39.077  30.868  0.00  0.00    +0.000 OA
ATOM     30  H   UNL     1     -57.392 -39.622  30.704  0.00  0.00    +0.000 HD
ENDBRANCH  17  29
BRANCH  14  32
ATOM     31  O   UNL     1     -52.677 -39.122  41.722  0.00  0.00    +0.000 OA
ATOM     32  C   UNL     1     -52.620 -40.339  41.846  0.00  0.00    +0.000 C 
BRANCH  32  33
ATOM     33  O   UNL     1     -53.003 -40.904  43.012  0.00  0.00    +0.000 OA
ATOM     34  H   UNL     1     -52.773 -41.854  42.923  0.00  0.00    +0.000 HD
ENDBRANCH  32  33
ENDBRANCH  14  32
BRANCH   9  35
ATOM     35  C   UNL     1     -55.811 -41.799  32.500  0.00  0.00    +0.000 C 
BRANCH  35  36
ATOM     36  O   UNL     1     -55.133 -42.885  32.117  0.00  0.00    +0.000 OA
ATOM     37  H   UNL     1     -55.410 -43.176  31.229  0.00  0.00    +0.000 HD
ENDBRANCH  35  36
ENDBRANCH   9  35
TORSDOF 5
ENDMDL
MODEL 9
REMARK VINA RESULT:      -6.7     19.521     24.259
REMARK  Name = 73299_Hederagenin.pdbqt.pdb
REMARK  5 active torsions:
REMARK  status: ('A' for Active; 'I' for Inactive)
REMARK    1  A    between atoms: C_9  and  C_35
REMARK    2  A    between atoms: C_14  and  C_32
REMARK    3  A    between atoms: C_17  and  O_29
REMARK    4  A    between atoms: C_32  and  O_33
REMARK    5  A    between atoms: C_35  and  O_36
REMARK                            x       y       z     vdW  Elec       q    Type
REMARK                         _______ _______ _______ _____ _____    ______ ____
ROOT
ATOM      1  C   UNL     1     -45.370 -63.485  30.936  0.00  0.00    +0.000 C 
ATOM      2  C   UNL     1     -46.750 -64.220  30.668  0.00  0.00    +0.000 C 
ATOM      3  C   UNL     1     -47.266 -65.384  31.521  0.00  0.00    +0.000 C 
ATOM      4  C   UNL     1     -44.568 -63.130  29.532  0.00  0.00    +0.000 C 
ATOM      5  C   UNL     1     -46.202 -66.352  32.115  0.00  0.00    +0.000 C 
ATOM      6  C   UNL     1     -44.594 -64.408  31.772  0.00  0.00    +0.000 C 
ATOM      7  C   UNL     1     -44.935 -65.746  32.339  0.00  0.00    +0.000 C 
ATOM      8  C   UNL     1     -45.531 -62.413  28.438  0.00  0.00    +0.000 C 
ATOM      9  C   UNL     1     -46.404 -67.875  32.195  0.00  0.00    +0.000 C 
ATOM     10  C   UNL     1     -45.135 -61.273  27.583  0.00  0.00    +0.000 C 
ATOM     11  C   UNL     1     -47.407 -63.728  29.496  0.00  0.00    +0.000 C 
ATOM     12  C   UNL     1     -48.146 -66.230  30.722  0.00  0.00    +0.000 C 
ATOM     13  C   UNL     1     -43.468 -62.164  29.710  0.00  0.00    +0.000 C 
ATOM     14  C   UNL     1     -44.029 -60.139  28.048  0.00  0.00    +0.000 C 
ATOM     15  C   UNL     1     -45.707 -62.171  31.752  0.00  0.00    +0.000 C 
ATOM     16  C   UNL     1     -43.203 -60.841  29.031  0.00  0.00    +0.000 C 
ATOM     17  C   UNL     1     -47.699 -68.476  31.588  0.00  0.00    +0.000 C 
ATOM     18  C   UNL     1     -46.761 -62.838  28.472  0.00  0.00    +0.000 C 
ATOM     19  C   UNL     1     -48.054 -64.779  32.712  0.00  0.00    +0.000 C 
ATOM     20  C   UNL     1     -48.438 -67.693  30.683  0.00  0.00    +0.000 C 
ATOM     21  C   UNL     1     -44.018 -64.435  28.808  0.00  0.00    +0.000 C 
ATOM     22  C   UNL     1     -45.287 -61.416  26.135  0.00  0.00    +0.000 C 
ATOM     23  C   UNL     1     -43.346 -59.760  26.782  0.00  0.00    +0.000 C 
ATOM     24  C   UNL     1     -44.721 -61.022  24.790  0.00  0.00    +0.000 C 
ATOM     25  C   UNL     1     -46.331 -68.312  33.696  0.00  0.00    +0.000 C 
ATOM     26  C   UNL     1     -43.640 -60.120  25.302  0.00  0.00    +0.000 C 
ATOM     27  C   UNL     1     -44.145 -62.243  24.050  0.00  0.00    +0.000 C 
ATOM     28  C   UNL     1     -45.756 -60.258  23.945  0.00  0.00    +0.000 C 
ENDROOT
BRANCH  17  29
ATOM     29  O   UNL     1     -48.289 -69.605  32.132  0.00  0.00    +0.000 OA
ATOM     30  H   UNL     1     -49.175 -69.758  31.741  0.00  0.00    +0.000 HD
ENDBRANCH  17  29
BRANCH  14  32
ATOM     31  O   UNL     1     -45.393 -58.930  29.704  0.00  0.00    +0.000 OA
ATOM     32  C   UNL     1     -44.803 -58.951  28.633  0.00  0.00    +0.000 C 
BRANCH  32  33
ATOM     33  O   UNL     1     -44.865 -57.873  27.821  0.00  0.00    +0.000 OA
ATOM     34  H   UNL     1     -45.112 -58.230  26.940  0.00  0.00    +0.000 HD
ENDBRANCH  32  33
ENDBRANCH  14  32
BRANCH   9  35
ATOM     35  C   UNL     1     -45.284 -68.520  31.439  0.00  0.00    +0.000 C 
BRANCH  35  36
ATOM     36  O   UNL     1     -44.285 -69.083  30.754  0.00  0.00    +0.000 OA
ATOM     37  H   UNL     1     -43.924 -69.853  31.231  0.00  0.00    +0.000 HD
ENDBRANCH  35  36
ENDBRANCH   9  35
TORSDOF 5
ENDMDL
