MODEL 1
REMARK VINA RESULT:      -7.9      0.000      0.000
REMARK  Name = 73659_MaslinicAcid.pdbqt.pdb
REMARK  4 active torsions:
REMARK  status: ('A' for Active; 'I' for Inactive)
REMARK    1  A    between atoms: C_14  and  C_35
REMARK    2  A    between atoms: C_17  and  O_30
REMARK    3  A    between atoms: C_19  and  O_32
REMARK    4  A    between atoms: C_35  and  O_36
REMARK                            x       y       z     vdW  Elec       q    Type
REMARK                         _______ _______ _______ _____ _____    ______ ____
ROOT
ATOM      1  C   UNL     1     -42.409 -58.136  34.775  0.00  0.00    +0.000 C 
ATOM      2  C   UNL     1     -43.640 -58.646  35.639  0.00  0.00    +0.000 C 
ATOM      3  C   UNL     1     -43.912 -60.125  35.929  0.00  0.00    +0.000 C 
ATOM      4  C   UNL     1     -42.821 -56.882  33.777  0.00  0.00    +0.000 C 
ATOM      5  C   UNL     1     -43.507 -61.140  34.853  0.00  0.00    +0.000 C 
ATOM      6  C   UNL     1     -41.967 -59.307  34.009  0.00  0.00    +0.000 C 
ATOM      7  C   UNL     1     -42.444 -60.721  34.009  0.00  0.00    +0.000 C 
ATOM      8  C   UNL     1     -43.639 -55.719  34.563  0.00  0.00    +0.000 C 
ATOM      9  C   UNL     1     -44.324 -62.408  34.657  0.00  0.00    +0.000 C 
ATOM     10  C   UNL     1     -43.416 -54.266  34.394  0.00  0.00    +0.000 C 
ATOM     11  C   UNL     1     -44.498 -57.575  36.043  0.00  0.00    +0.000 C 
ATOM     12  C   UNL     1     -45.340 -60.343  36.095  0.00  0.00    +0.000 C 
ATOM     13  C   UNL     1     -41.657 -56.169  33.219  0.00  0.00    +0.000 C 
ATOM     14  C   UNL     1     -41.952 -53.620  33.987  0.00  0.00    +0.000 C 
ATOM     15  C   UNL     1     -41.282 -57.711  35.802  0.00  0.00    +0.000 C 
ATOM     16  C   UNL     1     -41.275 -54.708  33.282  0.00  0.00    +0.000 C 
ATOM     17  C   UNL     1     -45.760 -62.465  35.237  0.00  0.00    +0.000 C 
ATOM     18  C   UNL     1     -43.159 -60.493  37.229  0.00  0.00    +0.000 C 
ATOM     19  C   UNL     1     -46.313 -61.307  35.854  0.00  0.00    +0.000 C 
ATOM     20  C   UNL     1     -44.424 -56.178  35.496  0.00  0.00    +0.000 C 
ATOM     21  C   UNL     1     -43.782 -57.345  32.600  0.00  0.00    +0.000 C 
ATOM     22  C   UNL     1     -44.565 -53.428  34.054  0.00  0.00    +0.000 C 
ATOM     23  C   UNL     1     -42.299 -52.430  33.166  0.00  0.00    +0.000 C 
ATOM     24  C   UNL     1     -45.013 -52.185  33.319  0.00  0.00    +0.000 C 
ATOM     25  C   UNL     1     -44.522 -62.639  33.118  0.00  0.00    +0.000 C 
ATOM     26  C   UNL     1     -43.539 -63.619  35.238  0.00  0.00    +0.000 C 
ATOM     27  C   UNL     1     -43.656 -51.745  32.860  0.00  0.00    +0.000 C 
ATOM     28  C   UNL     1     -45.654 -51.164  34.276  0.00  0.00    +0.000 C 
ATOM     29  C   UNL     1     -45.931 -52.539  32.134  0.00  0.00    +0.000 C 
ENDROOT
BRANCH  17  30
ATOM     30  O   UNL     1     -46.556 -63.607  35.215  0.00  0.00    +0.000 OA
ATOM     31  H   UNL     1     -47.407 -63.436  34.760  0.00  0.00    +0.000 HD
ENDBRANCH  17  30
BRANCH  19  32
ATOM     32  O   UNL     1     -47.492 -61.374  36.534  0.00  0.00    +0.000 OA
ATOM     33  H   UNL     1     -47.951 -60.512  36.527  0.00  0.00    +0.000 HD
ENDBRANCH  19  32
BRANCH  14  35
ATOM     34  O   UNL     1     -40.073 -53.393  35.565  0.00  0.00    +0.000 OA
ATOM     35  C   UNL     1     -41.250 -53.207  35.287  0.00  0.00    +0.000 C 
BRANCH  35  36
ATOM     36  O   UNL     1     -42.069 -52.648  36.206  0.00  0.00    +0.000 OA
ATOM     37  H   UNL     1     -41.832 -51.695  36.212  0.00  0.00    +0.000 HD
ENDBRANCH  35  36
ENDBRANCH  14  35
TORSDOF 4
ENDMDL
MODEL 2
REMARK VINA RESULT:      -7.6      5.414      8.395
REMARK  Name = 73659_MaslinicAcid.pdbqt.pdb
REMARK  4 active torsions:
REMARK  status: ('A' for Active; 'I' for Inactive)
REMARK    1  A    between atoms: C_14  and  C_35
REMARK    2  A    between atoms: C_17  and  O_30
REMARK    3  A    between atoms: C_19  and  O_32
REMARK    4  A    between atoms: C_35  and  O_36
REMARK                            x       y       z     vdW  Elec       q    Type
REMARK                         _______ _______ _______ _____ _____    ______ ____
ROOT
ATOM      1  C   UNL     1     -45.153 -63.752  38.381  0.00  0.00    +0.000 C 
ATOM      2  C   UNL     1     -45.305 -65.294  38.031  0.00  0.00    +0.000 C 
ATOM      3  C   UNL     1     -44.888 -66.420  38.982  0.00  0.00    +0.000 C 
ATOM      4  C   UNL     1     -44.653 -62.860  37.079  0.00  0.00    +0.000 C 
ATOM      5  C   UNL     1     -43.691 -66.156  39.902  0.00  0.00    +0.000 C 
ATOM      6  C   UNL     1     -44.173 -63.701  39.472  0.00  0.00    +0.000 C 
ATOM      7  C   UNL     1     -43.466 -64.788  40.212  0.00  0.00    +0.000 C 
ATOM      8  C   UNL     1     -45.526 -63.181  35.747  0.00  0.00    +0.000 C 
ATOM      9  C   UNL     1     -42.763 -67.298  40.291  0.00  0.00    +0.000 C 
ATOM     10  C   UNL     1     -46.022 -62.163  34.795  0.00  0.00    +0.000 C 
ATOM     11  C   UNL     1     -45.801 -65.501  36.705  0.00  0.00    +0.000 C 
ATOM     12  C   UNL     1     -44.490 -67.591  38.217  0.00  0.00    +0.000 C 
ATOM     13  C   UNL     1     -44.823 -61.407  37.263  0.00  0.00    +0.000 C 
ATOM     14  C   UNL     1     -46.392 -60.617  35.241  0.00  0.00    +0.000 C 
ATOM     15  C   UNL     1     -46.565 -63.267  38.905  0.00  0.00    +0.000 C 
ATOM     16  C   UNL     1     -45.572 -60.391  36.431  0.00  0.00    +0.000 C 
ATOM     17  C   UNL     1     -42.784 -68.594  39.440  0.00  0.00    +0.000 C 
ATOM     18  C   UNL     1     -46.105 -66.751  39.876  0.00  0.00    +0.000 C 
ATOM     19  C   UNL     1     -43.594 -68.653  38.271  0.00  0.00    +0.000 C 
ATOM     20  C   UNL     1     -45.901 -64.426  35.660  0.00  0.00    +0.000 C 
ATOM     21  C   UNL     1     -43.149 -63.180  36.678  0.00  0.00    +0.000 C 
ATOM     22  C   UNL     1     -45.691 -62.324  33.380  0.00  0.00    +0.000 C 
ATOM     23  C   UNL     1     -46.039 -59.803  34.047  0.00  0.00    +0.000 C 
ATOM     24  C   UNL     1     -45.402 -61.593  32.088  0.00  0.00    +0.000 C 
ATOM     25  C   UNL     1     -41.282 -66.793  40.185  0.00  0.00    +0.000 C 
ATOM     26  C   UNL     1     -43.040 -67.705  41.766  0.00  0.00    +0.000 C 
ATOM     27  C   UNL     1     -45.612 -60.205  32.612  0.00  0.00    +0.000 C 
ATOM     28  C   UNL     1     -46.424 -61.955  30.995  0.00  0.00    +0.000 C 
ATOM     29  C   UNL     1     -43.949 -61.821  31.634  0.00  0.00    +0.000 C 
ENDROOT
BRANCH  17  30
ATOM     30  O   UNL     1     -42.062 -69.741  39.764  0.00  0.00    +0.000 OA
ATOM     31  H   UNL     1     -41.128 -69.525  39.966  0.00  0.00    +0.000 HD
ENDBRANCH  17  30
BRANCH  19  32
ATOM     32  O   UNL     1     -43.778 -69.829  37.608  0.00  0.00    +0.000 OA
ATOM     33  H   UNL     1     -44.661 -69.862  37.190  0.00  0.00    +0.000 HD
ENDBRANCH  19  32
BRANCH  14  35
ATOM     34  O   UNL     1     -48.623 -61.514  35.776  0.00  0.00    +0.000 OA
ATOM     35  C   UNL     1     -47.898 -60.562  35.520  0.00  0.00    +0.000 C 
BRANCH  35  36
ATOM     36  O   UNL     1     -48.442 -59.330  35.395  0.00  0.00    +0.000 OA
ATOM     37  H   UNL     1     -47.830 -58.841  34.803  0.00  0.00    +0.000 HD
ENDBRANCH  35  36
ENDBRANCH  14  35
TORSDOF 4
ENDMDL
MODEL 3
REMARK VINA RESULT:      -7.4      2.645      4.066
REMARK  Name = 73659_MaslinicAcid.pdbqt.pdb
REMARK  4 active torsions:
REMARK  status: ('A' for Active; 'I' for Inactive)
REMARK    1  A    between atoms: C_14  and  C_35
REMARK    2  A    between atoms: C_17  and  O_30
REMARK    3  A    between atoms: C_19  and  O_32
REMARK    4  A    between atoms: C_35  and  O_36
REMARK                            x       y       z     vdW  Elec       q    Type
REMARK                         _______ _______ _______ _____ _____    ______ ____
ROOT
ATOM      1  C   UNL     1     -44.005 -60.728  35.461  0.00  0.00    +0.000 C 
ATOM      2  C   UNL     1     -43.696 -60.851  37.015  0.00  0.00    +0.000 C 
ATOM      3  C   UNL     1     -44.139 -62.040  37.872  0.00  0.00    +0.000 C 
ATOM      4  C   UNL     1     -44.410 -59.185  35.023  0.00  0.00    +0.000 C 
ATOM      5  C   UNL     1     -45.455 -62.730  37.493  0.00  0.00    +0.000 C 
ATOM      6  C   UNL     1     -45.110 -61.662  35.216  0.00  0.00    +0.000 C 
ATOM      7  C   UNL     1     -45.817 -62.612  36.124  0.00  0.00    +0.000 C 
ATOM      8  C   UNL     1     -43.362 -58.088  35.605  0.00  0.00    +0.000 C 
ATOM      9  C   UNL     1     -46.334 -63.340  38.574  0.00  0.00    +0.000 C 
ATOM     10  C   UNL     1     -42.833 -56.936  34.843  0.00  0.00    +0.000 C 
ATOM     11  C   UNL     1     -43.031 -59.692  37.527  0.00  0.00    +0.000 C 
ATOM     12  C   UNL     1     -44.353 -61.609  39.244  0.00  0.00    +0.000 C 
ATOM     13  C   UNL     1     -44.373 -58.960  33.566  0.00  0.00    +0.000 C 
ATOM     14  C   UNL     1     -42.637 -56.953  33.204  0.00  0.00    +0.000 C 
ATOM     15  C   UNL     1     -42.706 -61.222  34.703  0.00  0.00    +0.000 C 
ATOM     16  C   UNL     1     -43.608 -57.946  32.746  0.00  0.00    +0.000 C 
ATOM     17  C   UNL     1     -46.114 -62.902  40.045  0.00  0.00    +0.000 C 
ATOM     18  C   UNL     1     -43.016 -63.103  37.812  0.00  0.00    +0.000 C 
ATOM     19  C   UNL     1     -45.167 -61.880  40.339  0.00  0.00    +0.000 C 
ATOM     20  C   UNL     1     -42.887 -58.398  36.779  0.00  0.00    +0.000 C 
ATOM     21  C   UNL     1     -45.826 -58.752  35.598  0.00  0.00    +0.000 C 
ATOM     22  C   UNL     1     -42.978 -55.602  35.423  0.00  0.00    +0.000 C 
ATOM     23  C   UNL     1     -42.903 -55.548  32.794  0.00  0.00    +0.000 C 
ATOM     24  C   UNL     1     -43.164 -54.133  35.113  0.00  0.00    +0.000 C 
ATOM     25  C   UNL     1     -47.825 -62.955  38.278  0.00  0.00    +0.000 C 
ATOM     26  C   UNL     1     -46.207 -64.890  38.526  0.00  0.00    +0.000 C 
ATOM     27  C   UNL     1     -43.124 -54.255  33.620  0.00  0.00    +0.000 C 
ATOM     28  C   UNL     1     -41.994 -53.291  35.653  0.00  0.00    +0.000 C 
ATOM     29  C   UNL     1     -44.531 -53.629  35.610  0.00  0.00    +0.000 C 
ENDROOT
BRANCH  17  30
ATOM     30  O   UNL     1     -46.781 -63.472  41.127  0.00  0.00    +0.000 OA
ATOM     31  H   UNL     1     -46.169 -63.630  41.876  0.00  0.00    +0.000 HD
ENDBRANCH  17  30
BRANCH  19  32
ATOM     32  O   UNL     1     -44.817 -61.603  41.625  0.00  0.00    +0.000 OA
ATOM     33  H   UNL     1     -45.538 -61.140  42.094  0.00  0.00    +0.000 HD
ENDBRANCH  19  32
BRANCH  14  35
ATOM     34  O   UNL     1     -40.248 -56.577  32.732  0.00  0.00    +0.000 OA
ATOM     35  C   UNL     1     -41.183 -57.345  32.915  0.00  0.00    +0.000 C 
BRANCH  35  36
ATOM     36  O   UNL     1     -40.981 -58.677  32.794  0.00  0.00    +0.000 OA
ATOM     37  H   UNL     1     -40.418 -58.778  31.996  0.00  0.00    +0.000 HD
ENDBRANCH  35  36
ENDBRANCH  14  35
TORSDOF 4
ENDMDL
MODEL 4
REMARK VINA RESULT:      -7.3     24.790     27.543
REMARK  Name = 73659_MaslinicAcid.pdbqt.pdb
REMARK  4 active torsions:
REMARK  status: ('A' for Active; 'I' for Inactive)
REMARK    1  A    between atoms: C_14  and  C_35
REMARK    2  A    between atoms: C_17  and  O_30
REMARK    3  A    between atoms: C_19  and  O_32
REMARK    4  A    between atoms: C_35  and  O_36
REMARK                            x       y       z     vdW  Elec       q    Type
REMARK                         _______ _______ _______ _____ _____    ______ ____
ROOT
ATOM      1  C   UNL     1     -28.679 -53.585  55.562  0.00  0.00    +0.000 C 
ATOM      2  C   UNL     1     -30.262 -53.480  55.479  0.00  0.00    +0.000 C 
ATOM      3  C   UNL     1     -31.014 -53.045  54.218  0.00  0.00    +0.000 C 
ATOM      4  C   UNL     1     -28.090 -53.040  57.009  0.00  0.00    +0.000 C 
ATOM      5  C   UNL     1     -30.324 -52.028  53.302  0.00  0.00    +0.000 C 
ATOM      6  C   UNL     1     -28.183 -52.775  54.443  0.00  0.00    +0.000 C 
ATOM      7  C   UNL     1     -28.905 -52.033  53.368  0.00  0.00    +0.000 C 
ATOM      8  C   UNL     1     -28.888 -53.677  58.273  0.00  0.00    +0.000 C 
ATOM      9  C   UNL     1     -31.154 -51.016  52.527  0.00  0.00    +0.000 C 
ATOM     10  C   UNL     1     -28.251 -54.174  59.513  0.00  0.00    +0.000 C 
ATOM     11  C   UNL     1     -30.888 -53.762  56.734  0.00  0.00    +0.000 C 
ATOM     12  C   UNL     1     -32.262 -52.396  54.585  0.00  0.00    +0.000 C 
ATOM     13  C   UNL     1     -26.688 -53.426  57.255  0.00  0.00    +0.000 C 
ATOM     14  C   UNL     1     -26.726 -54.804  59.552  0.00  0.00    +0.000 C 
ATOM     15  C   UNL     1     -28.314 -55.106  55.325  0.00  0.00    +0.000 C 
ATOM     16  C   UNL     1     -26.064 -54.188  58.402  0.00  0.00    +0.000 C 
ATOM     17  C   UNL     1     -32.612 -50.748  52.980  0.00  0.00    +0.000 C 
ATOM     18  C   UNL     1     -31.297 -54.316  53.382  0.00  0.00    +0.000 C 
ATOM     19  C   UNL     1     -33.109 -51.380  54.155  0.00  0.00    +0.000 C 
ATOM     20  C   UNL     1     -30.157 -53.866  58.042  0.00  0.00    +0.000 C 
ATOM     21  C   UNL     1     -28.249 -51.467  57.166  0.00  0.00    +0.000 C 
ATOM     22  C   UNL     1     -28.721 -53.639  60.790  0.00  0.00    +0.000 C 
ATOM     23  C   UNL     1     -26.207 -54.408  60.889  0.00  0.00    +0.000 C 
ATOM     24  C   UNL     1     -28.317 -53.281  62.202  0.00  0.00    +0.000 C 
ATOM     25  C   UNL     1     -30.457 -49.615  52.634  0.00  0.00    +0.000 C 
ATOM     26  C   UNL     1     -31.201 -51.429  51.028  0.00  0.00    +0.000 C 
ATOM     27  C   UNL     1     -26.894 -53.743  62.109  0.00  0.00    +0.000 C 
ATOM     28  C   UNL     1     -29.117 -54.090  63.239  0.00  0.00    +0.000 C 
ATOM     29  C   UNL     1     -28.411 -51.763  62.440  0.00  0.00    +0.000 C 
ENDROOT
BRANCH  17  30
ATOM     30  O   UNL     1     -33.498 -49.929  52.284  0.00  0.00    +0.000 OA
ATOM     31  H   UNL     1     -34.063 -50.454  51.679  0.00  0.00    +0.000 HD
ENDBRANCH  17  30
BRANCH  19  32
ATOM     32  O   UNL     1     -34.431 -51.315  54.477  0.00  0.00    +0.000 OA
ATOM     33  H   UNL     1     -34.642 -51.913  55.220  0.00  0.00    +0.000 HD
ENDBRANCH  19  32
BRANCH  14  35
ATOM     34  O   UNL     1     -27.834 -56.998  59.723  0.00  0.00    +0.000 OA
ATOM     35  C   UNL     1     -26.850 -56.328  59.438  0.00  0.00    +0.000 C 
BRANCH  35  36
ATOM     36  O   UNL     1     -25.716 -56.949  59.045  0.00  0.00    +0.000 OA
ATOM     37  H   UNL     1     -24.986 -56.412  59.424  0.00  0.00    +0.000 HD
ENDBRANCH  35  36
ENDBRANCH  14  35
TORSDOF 4
ENDMDL
MODEL 5
REMARK VINA RESULT:      -7.2     19.435     22.590
REMARK  Name = 73659_MaslinicAcid.pdbqt.pdb
REMARK  4 active torsions:
REMARK  status: ('A' for Active; 'I' for Inactive)
REMARK    1  A    between atoms: C_14  and  C_35
REMARK    2  A    between atoms: C_17  and  O_30
REMARK    3  A    between atoms: C_19  and  O_32
REMARK    4  A    between atoms: C_35  and  O_36
REMARK                            x       y       z     vdW  Elec       q    Type
REMARK                         _______ _______ _______ _____ _____    ______ ____
ROOT
ATOM      1  C   UNL     1     -39.761 -40.839  49.202  0.00  0.00    +0.000 C 
ATOM      2  C   UNL     1     -39.737 -41.664  47.846  0.00  0.00    +0.000 C 
ATOM      3  C   UNL     1     -38.452 -42.191  47.200  0.00  0.00    +0.000 C 
ATOM      4  C   UNL     1     -40.854 -39.597  49.161  0.00  0.00    +0.000 C 
ATOM      5  C   UNL     1     -37.179 -41.358  47.386  0.00  0.00    +0.000 C 
ATOM      6  C   UNL     1     -38.391 -40.340  49.371  0.00  0.00    +0.000 C 
ATOM      7  C   UNL     1     -37.158 -40.553  48.556  0.00  0.00    +0.000 C 
ATOM      8  C   UNL     1     -42.309 -40.081  48.625  0.00  0.00    +0.000 C 
ATOM      9  C   UNL     1     -36.127 -41.321  46.288  0.00  0.00    +0.000 C 
ATOM     10  C   UNL     1     -43.605 -39.673  49.211  0.00  0.00    +0.000 C 
ATOM     11  C   UNL     1     -41.040 -41.788  47.266  0.00  0.00    +0.000 C 
ATOM     12  C   UNL     1     -38.616 -42.262  45.757  0.00  0.00    +0.000 C 
ATOM     13  C   UNL     1     -41.146 -39.028  50.490  0.00  0.00    +0.000 C 
ATOM     14  C   UNL     1     -43.792 -39.292  50.807  0.00  0.00    +0.000 C 
ATOM     15  C   UNL     1     -40.101 -41.871  50.353  0.00  0.00    +0.000 C 
ATOM     16  C   UNL     1     -42.458 -38.860  51.221  0.00  0.00    +0.000 C 
ATOM     17  C   UNL     1     -36.527 -41.768  44.859  0.00  0.00    +0.000 C 
ATOM     18  C   UNL     1     -38.181 -43.600  47.779  0.00  0.00    +0.000 C 
ATOM     19  C   UNL     1     -37.882 -42.112  44.586  0.00  0.00    +0.000 C 
ATOM     20  C   UNL     1     -42.243 -41.007  47.710  0.00  0.00    +0.000 C 
ATOM     21  C   UNL     1     -40.408 -38.440  48.168  0.00  0.00    +0.000 C 
ATOM     22  C   UNL     1     -44.607 -39.084  48.324  0.00  0.00    +0.000 C 
ATOM     23  C   UNL     1     -44.844 -38.240  50.805  0.00  0.00    +0.000 C 
ATOM     24  C   UNL     1     -45.750 -38.098  48.235  0.00  0.00    +0.000 C 
ATOM     25  C   UNL     1     -35.649 -39.837  46.106  0.00  0.00    +0.000 C 
ATOM     26  C   UNL     1     -34.904 -42.181  46.718  0.00  0.00    +0.000 C 
ATOM     27  C   UNL     1     -45.757 -37.693  49.677  0.00  0.00    +0.000 C 
ATOM     28  C   UNL     1     -47.062 -38.792  47.827  0.00  0.00    +0.000 C 
ATOM     29  C   UNL     1     -45.396 -36.919  47.311  0.00  0.00    +0.000 C 
ENDROOT
BRANCH  17  30
ATOM     30  O   UNL     1     -35.625 -41.880  43.804  0.00  0.00    +0.000 OA
ATOM     31  H   UNL     1     -34.942 -42.557  43.994  0.00  0.00    +0.000 HD
ENDBRANCH  17  30
BRANCH  19  32
ATOM     32  O   UNL     1     -38.231 -42.682  43.399  0.00  0.00    +0.000 OA
ATOM     33  H   UNL     1     -38.964 -43.318  43.517  0.00  0.00    +0.000 HD
ENDBRANCH  19  32
BRANCH  14  35
ATOM     34  O   UNL     1     -43.760 -41.662  51.480  0.00  0.00    +0.000 OA
ATOM     35  C   UNL     1     -44.276 -40.554  51.532  0.00  0.00    +0.000 C 
BRANCH  35  36
ATOM     36  O   UNL     1     -45.423 -40.389  52.228  0.00  0.00    +0.000 OA
ATOM     37  H   UNL     1     -45.749 -41.299  52.401  0.00  0.00    +0.000 HD
ENDBRANCH  35  36
ENDBRANCH  14  35
TORSDOF 4
ENDMDL
MODEL 6
REMARK VINA RESULT:      -7.1     19.630     23.571
REMARK  Name = 73659_MaslinicAcid.pdbqt.pdb
REMARK  4 active torsions:
REMARK  status: ('A' for Active; 'I' for Inactive)
REMARK    1  A    between atoms: C_14  and  C_35
REMARK    2  A    between atoms: C_17  and  O_30
REMARK    3  A    between atoms: C_19  and  O_32
REMARK    4  A    between atoms: C_35  and  O_36
REMARK                            x       y       z     vdW  Elec       q    Type
REMARK                         _______ _______ _______ _____ _____    ______ ____
ROOT
ATOM      1  C   UNL     1     -41.868 -39.110  47.915  0.00  0.00    +0.000 C 
ATOM      2  C   UNL     1     -43.004 -39.766  48.811  0.00  0.00    +0.000 C 
ATOM      3  C   UNL     1     -44.269 -39.022  49.248  0.00  0.00    +0.000 C 
ATOM      4  C   UNL     1     -40.350 -39.549  48.407  0.00  0.00    +0.000 C 
ATOM      5  C   UNL     1     -44.151 -37.512  49.488  0.00  0.00    +0.000 C 
ATOM      6  C   UNL     1     -42.072 -37.662  48.038  0.00  0.00    +0.000 C 
ATOM      7  C   UNL     1     -43.116 -36.871  48.756  0.00  0.00    +0.000 C 
ATOM      8  C   UNL     1     -40.217 -41.155  48.620  0.00  0.00    +0.000 C 
ATOM      9  C   UNL     1     -45.001 -36.843  50.557  0.00  0.00    +0.000 C 
ATOM     10  C   UNL     1     -39.063 -41.973  48.188  0.00  0.00    +0.000 C 
ATOM     11  C   UNL     1     -42.669 -41.096  49.220  0.00  0.00    +0.000 C 
ATOM     12  C   UNL     1     -44.735 -39.544  50.523  0.00  0.00    +0.000 C 
ATOM     13  C   UNL     1     -39.301 -39.243  47.418  0.00  0.00    +0.000 C 
ATOM     14  C   UNL     1     -38.126 -41.590  46.883  0.00  0.00    +0.000 C 
ATOM     15  C   UNL     1     -42.148 -39.566  46.426  0.00  0.00    +0.000 C 
ATOM     16  C   UNL     1     -38.283 -40.142  46.754  0.00  0.00    +0.000 C 
ATOM     17  C   UNL     1     -45.650 -37.726  51.652  0.00  0.00    +0.000 C 
ATOM     18  C   UNL     1     -45.342 -39.242  48.155  0.00  0.00    +0.000 C 
ATOM     19  C   UNL     1     -45.364 -39.121  51.689  0.00  0.00    +0.000 C 
ATOM     20  C   UNL     1     -41.306 -41.709  49.075  0.00  0.00    +0.000 C 
ATOM     21  C   UNL     1     -39.968 -38.910  49.811  0.00  0.00    +0.000 C 
ATOM     22  C   UNL     1     -38.402 -42.812  49.185  0.00  0.00    +0.000 C 
ATOM     23  C   UNL     1     -36.768 -42.064  47.264  0.00  0.00    +0.000 C 
ATOM     24  C   UNL     1     -37.083 -43.415  49.613  0.00  0.00    +0.000 C 
ATOM     25  C   UNL     1     -44.096 -35.842  51.358  0.00  0.00    +0.000 C 
ATOM     26  C   UNL     1     -46.142 -36.035  49.875  0.00  0.00    +0.000 C 
ATOM     27  C   UNL     1     -36.265 -42.902  48.468  0.00  0.00    +0.000 C 
ATOM     28  C   UNL     1     -37.146 -44.953  49.631  0.00  0.00    +0.000 C 
ATOM     29  C   UNL     1     -36.614 -42.830  50.958  0.00  0.00    +0.000 C 
ENDROOT
BRANCH  17  30
ATOM     30  O   UNL     1     -46.534 -37.240  52.613  0.00  0.00    +0.000 OA
ATOM     31  H   UNL     1     -46.931 -36.390  52.330  0.00  0.00    +0.000 HD
ENDBRANCH  17  30
BRANCH  19  32
ATOM     32  O   UNL     1     -46.057 -39.954  52.515  0.00  0.00    +0.000 OA
ATOM     33  H   UNL     1     -45.452 -40.546  53.003  0.00  0.00    +0.000 HD
ENDBRANCH  19  32
BRANCH  14  35
ATOM     34  O   UNL     1     -38.127 -43.325  45.134  0.00  0.00    +0.000 OA
ATOM     35  C   UNL     1     -38.665 -42.371  45.679  0.00  0.00    +0.000 C 
BRANCH  35  36
ATOM     36  O   UNL     1     -39.815 -41.877  45.167  0.00  0.00    +0.000 OA
ATOM     37  H   UNL     1     -40.409 -41.761  45.941  0.00  0.00    +0.000 HD
ENDBRANCH  35  36
ENDBRANCH  14  35
TORSDOF 4
ENDMDL
MODEL 7
REMARK VINA RESULT:      -7.0     22.206     25.427
REMARK  Name = 73659_MaslinicAcid.pdbqt.pdb
REMARK  4 active torsions:
REMARK  status: ('A' for Active; 'I' for Inactive)
REMARK    1  A    between atoms: C_14  and  C_35
REMARK    2  A    between atoms: C_17  and  O_30
REMARK    3  A    between atoms: C_19  and  O_32
REMARK    4  A    between atoms: C_35  and  O_36
REMARK                            x       y       z     vdW  Elec       q    Type
REMARK                         _______ _______ _______ _____ _____    ______ ____
ROOT
ATOM      1  C   UNL     1     -29.503 -51.612  52.739  0.00  0.00    +0.000 C 
ATOM      2  C   UNL     1     -31.074 -51.770  52.915  0.00  0.00    +0.000 C 
ATOM      3  C   UNL     1     -32.097 -50.873  52.210  0.00  0.00    +0.000 C 
ATOM      4  C   UNL     1     -28.689 -51.830  54.163  0.00  0.00    +0.000 C 
ATOM      5  C   UNL     1     -31.693 -49.418  51.945  0.00  0.00    +0.000 C 
ATOM      6  C   UNL     1     -29.311 -50.255  52.215  0.00  0.00    +0.000 C 
ATOM      7  C   UNL     1     -30.294 -49.199  51.831  0.00  0.00    +0.000 C 
ATOM      8  C   UNL     1     -29.162 -53.177  54.939  0.00  0.00    +0.000 C 
ATOM      9  C   UNL     1     -32.745 -48.320  51.972  0.00  0.00    +0.000 C 
ATOM     10  C   UNL     1     -28.252 -54.134  55.605  0.00  0.00    +0.000 C 
ATOM     11  C   UNL     1     -31.412 -52.788  53.862  0.00  0.00    +0.000 C 
ATOM     12  C   UNL     1     -33.299 -50.761  53.021  0.00  0.00    +0.000 C 
ATOM     13  C   UNL     1     -27.238 -52.025  53.985  0.00  0.00    +0.000 C 
ATOM     14  C   UNL     1     -26.700 -54.397  55.107  0.00  0.00    +0.000 C 
ATOM     15  C   UNL     1     -29.062 -52.674  51.652  0.00  0.00    +0.000 C 
ATOM     16  C   UNL     1     -26.335 -53.153  54.429  0.00  0.00    +0.000 C 
ATOM     17  C   UNL     1     -34.102 -48.606  52.664  0.00  0.00    +0.000 C 
ATOM     18  C   UNL     1     -32.428 -51.525  50.847  0.00  0.00    +0.000 C 
ATOM     19  C   UNL     1     -34.299 -49.847  53.334  0.00  0.00    +0.000 C 
ATOM     20  C   UNL     1     -30.430 -53.440  54.792  0.00  0.00    +0.000 C 
ATOM     21  C   UNL     1     -28.950 -50.645  55.189  0.00  0.00    +0.000 C 
ATOM     22  C   UNL     1     -28.503 -54.461  57.007  0.00  0.00    +0.000 C 
ATOM     23  C   UNL     1     -25.963 -54.691  56.364  0.00  0.00    +0.000 C 
ATOM     24  C   UNL     1     -27.860 -54.848  58.320  0.00  0.00    +0.000 C 
ATOM     25  C   UNL     1     -32.164 -47.094  52.760  0.00  0.00    +0.000 C 
ATOM     26  C   UNL     1     -33.052 -47.867  50.515  0.00  0.00    +0.000 C 
ATOM     27  C   UNL     1     -26.449 -54.920  57.819  0.00  0.00    +0.000 C 
ATOM     28  C   UNL     1     -28.365 -56.216  58.813  0.00  0.00    +0.000 C 
ATOM     29  C   UNL     1     -28.036 -53.740  59.374  0.00  0.00    +0.000 C 
ENDROOT
BRANCH  17  30
ATOM     30  O   UNL     1     -35.176 -47.719  52.653  0.00  0.00    +0.000 OA
ATOM     31  H   UNL     1     -35.146 -47.138  51.865  0.00  0.00    +0.000 HD
ENDBRANCH  17  30
BRANCH  19  32
ATOM     32  O   UNL     1     -35.531 -50.206  53.790  0.00  0.00    +0.000 OA
ATOM     33  H   UNL     1     -36.116 -49.427  53.871  0.00  0.00    +0.000 HD
ENDBRANCH  19  32
BRANCH  14  35
ATOM     34  O   UNL     1     -26.456 -55.617  52.980  0.00  0.00    +0.000 OA
ATOM     35  C   UNL     1     -26.712 -55.616  54.177  0.00  0.00    +0.000 C 
BRANCH  35  36
ATOM     36  O   UNL     1     -27.115 -56.763  54.769  0.00  0.00    +0.000 OA
ATOM     37  H   UNL     1     -27.176 -56.547  55.726  0.00  0.00    +0.000 HD
ENDBRANCH  35  36
ENDBRANCH  14  35
TORSDOF 4
ENDMDL
MODEL 8
REMARK VINA RESULT:      -7.0      1.627      2.140
REMARK  Name = 73659_MaslinicAcid.pdbqt.pdb
REMARK  4 active torsions:
REMARK  status: ('A' for Active; 'I' for Inactive)
REMARK    1  A    between atoms: C_14  and  C_35
REMARK    2  A    between atoms: C_17  and  O_30
REMARK    3  A    between atoms: C_19  and  O_32
REMARK    4  A    between atoms: C_35  and  O_36
REMARK                            x       y       z     vdW  Elec       q    Type
REMARK                         _______ _______ _______ _____ _____    ______ ____
ROOT
ATOM      1  C   UNL     1     -43.249 -59.173  34.488  0.00  0.00    +0.000 C 
ATOM      2  C   UNL     1     -44.564 -59.000  35.363  0.00  0.00    +0.000 C 
ATOM      3  C   UNL     1     -45.467 -60.168  35.769  0.00  0.00    +0.000 C 
ATOM      4  C   UNL     1     -43.069 -57.958  33.379  0.00  0.00    +0.000 C 
ATOM      5  C   UNL     1     -45.579 -61.344  34.792  0.00  0.00    +0.000 C 
ATOM      6  C   UNL     1     -43.394 -60.478  33.834  0.00  0.00    +0.000 C 
ATOM      7  C   UNL     1     -44.456 -61.522  33.941  0.00  0.00    +0.000 C 
ATOM      8  C   UNL     1     -43.265 -56.489  34.045  0.00  0.00    +0.000 C 
ATOM      9  C   UNL     1     -46.882 -62.122  34.684  0.00  0.00    +0.000 C 
ATOM     10  C   UNL     1     -42.415 -55.312  33.760  0.00  0.00    +0.000 C 
ATOM     11  C   UNL     1     -44.842 -57.627  35.655  0.00  0.00    +0.000 C 
ATOM     12  C   UNL     1     -46.838 -59.706  35.919  0.00  0.00    +0.000 C 
ATOM     13  C   UNL     1     -41.719 -57.896  32.791  0.00  0.00    +0.000 C 
ATOM     14  C   UNL     1     -40.824 -55.430  33.335  0.00  0.00    +0.000 C 
ATOM     15  C   UNL     1     -42.035 -59.214  35.503  0.00  0.00    +0.000 C 
ATOM     16  C   UNL     1     -40.720 -56.762  32.740  0.00  0.00    +0.000 C 
ATOM     17  C   UNL     1     -48.181 -61.478  35.232  0.00  0.00    +0.000 C 
ATOM     18  C   UNL     1     -44.939 -60.722  37.113  0.00  0.00    +0.000 C 
ATOM     19  C   UNL     1     -48.144 -60.146  35.737  0.00  0.00    +0.000 C 
ATOM     20  C   UNL     1     -44.157 -56.465  34.995  0.00  0.00    +0.000 C 
ATOM     21  C   UNL     1     -44.156 -58.039  32.223  0.00  0.00    +0.000 C 
ATOM     22  C   UNL     1     -43.070 -54.080  33.323  0.00  0.00    +0.000 C 
ATOM     23  C   UNL     1     -40.613 -54.286  32.409  0.00  0.00    +0.000 C 
ATOM     24  C   UNL     1     -42.923 -52.836  32.476  0.00  0.00    +0.000 C 
ATOM     25  C   UNL     1     -47.189 -62.370  33.166  0.00  0.00    +0.000 C 
ATOM     26  C   UNL     1     -46.716 -63.502  35.383  0.00  0.00    +0.000 C 
ATOM     27  C   UNL     1     -41.521 -53.094  32.014  0.00  0.00    +0.000 C 
ATOM     28  C   UNL     1     -43.022 -51.558  33.328  0.00  0.00    +0.000 C 
ATOM     29  C   UNL     1     -43.922 -52.840  31.304  0.00  0.00    +0.000 C 
ENDROOT
BRANCH  17  30
ATOM     30  O   UNL     1     -49.406 -62.138  35.288  0.00  0.00    +0.000 OA
ATOM     31  H   UNL     1     -49.560 -62.522  36.176  0.00  0.00    +0.000 HD
ENDBRANCH  17  30
BRANCH  19  32
ATOM     32  O   UNL     1     -49.215 -59.619  36.392  0.00  0.00    +0.000 OA
ATOM     33  H   UNL     1     -50.001 -60.192  36.299  0.00  0.00    +0.000 HD
ENDBRANCH  19  32
BRANCH  14  35
ATOM     34  O   UNL     1     -39.501 -56.170  35.278  0.00  0.00    +0.000 OA
ATOM     35  C   UNL     1     -39.990 -55.267  34.612  0.00  0.00    +0.000 C 
BRANCH  35  36
ATOM     36  O   UNL     1     -39.869 -53.989  35.036  0.00  0.00    +0.000 OA
ATOM     37  H   UNL     1     -40.773 -53.611  34.968  0.00  0.00    +0.000 HD
ENDBRANCH  35  36
ENDBRANCH  14  35
TORSDOF 4
ENDMDL
MODEL 9
REMARK VINA RESULT:      -6.9      2.465      8.243
REMARK  Name = 73659_MaslinicAcid.pdbqt.pdb
REMARK  4 active torsions:
REMARK  status: ('A' for Active; 'I' for Inactive)
REMARK    1  A    between atoms: C_14  and  C_35
REMARK    2  A    between atoms: C_17  and  O_30
REMARK    3  A    between atoms: C_19  and  O_32
REMARK    4  A    between atoms: C_35  and  O_36
REMARK                            x       y       z     vdW  Elec       q    Type
REMARK                         _______ _______ _______ _____ _____    ______ ____
ROOT
ATOM      1  C   UNL     1     -42.733 -58.326  34.008  0.00  0.00    +0.000 C 
ATOM      2  C   UNL     1     -41.978 -57.240  34.888  0.00  0.00    +0.000 C 
ATOM      3  C   UNL     1     -40.966 -56.244  34.314  0.00  0.00    +0.000 C 
ATOM      4  C   UNL     1     -42.867 -59.780  34.788  0.00  0.00    +0.000 C 
ATOM      5  C   UNL     1     -40.118 -56.708  33.125  0.00  0.00    +0.000 C 
ATOM      6  C   UNL     1     -41.935 -58.448  32.783  0.00  0.00    +0.000 C 
ATOM      7  C   UNL     1     -40.714 -57.720  32.326  0.00  0.00    +0.000 C 
ATOM      8  C   UNL     1     -43.428 -59.612  36.303  0.00  0.00    +0.000 C 
ATOM      9  C   UNL     1     -38.694 -56.199  32.962  0.00  0.00    +0.000 C 
ATOM     10  C   UNL     1     -44.441 -60.487  36.932  0.00  0.00    +0.000 C 
ATOM     11  C   UNL     1     -42.295 -57.356  36.279  0.00  0.00    +0.000 C 
ATOM     12  C   UNL     1     -39.986 -55.894  35.329  0.00  0.00    +0.000 C 
ATOM     13  C   UNL     1     -43.838 -60.695  34.159  0.00  0.00    +0.000 C 
ATOM     14  C   UNL     1     -45.623 -61.259  36.075  0.00  0.00    +0.000 C 
ATOM     15  C   UNL     1     -44.154 -57.721  33.665  0.00  0.00    +0.000 C 
ATOM     16  C   UNL     1     -45.054 -61.385  34.733  0.00  0.00    +0.000 C 
ATOM     17  C   UNL     1     -37.984 -55.568  34.187  0.00  0.00    +0.000 C 
ATOM     18  C   UNL     1     -41.750 -54.986  33.870  0.00  0.00    +0.000 C 
ATOM     19  C   UNL     1     -38.641 -55.562  35.451  0.00  0.00    +0.000 C 
ATOM     20  C   UNL     1     -43.020 -58.521  36.888  0.00  0.00    +0.000 C 
ATOM     21  C   UNL     1     -41.464 -60.508  34.941  0.00  0.00    +0.000 C 
ATOM     22  C   UNL     1     -44.111 -61.114  38.211  0.00  0.00    +0.000 C 
ATOM     23  C   UNL     1     -45.831 -62.532  36.814  0.00  0.00    +0.000 C 
ATOM     24  C   UNL     1     -44.326 -62.332  39.081  0.00  0.00    +0.000 C 
ATOM     25  C   UNL     1     -37.775 -57.409  32.568  0.00  0.00    +0.000 C 
ATOM     26  C   UNL     1     -38.650 -55.154  31.810  0.00  0.00    +0.000 C 
ATOM     27  C   UNL     1     -45.284 -63.041  38.172  0.00  0.00    +0.000 C 
ATOM     28  C   UNL     1     -44.978 -61.957  40.424  0.00  0.00    +0.000 C 
ATOM     29  C   UNL     1     -43.018 -63.123  39.263  0.00  0.00    +0.000 C 
ENDROOT
BRANCH  17  30
ATOM     30  O   UNL     1     -36.727 -54.971  34.128  0.00  0.00    +0.000 OA
ATOM     31  H   UNL     1     -36.095 -55.528  33.627  0.00  0.00    +0.000 HD
ENDBRANCH  17  30
BRANCH  19  32
ATOM     32  O   UNL     1     -38.130 -54.857  36.498  0.00  0.00    +0.000 OA
ATOM     33  H   UNL     1     -38.806 -54.719  37.191  0.00  0.00    +0.000 HD
ENDBRANCH  19  32
BRANCH  14  35
ATOM     34  O   UNL     1     -47.941 -60.666  36.661  0.00  0.00    +0.000 OA
ATOM     35  C   UNL     1     -46.879 -60.382  36.123  0.00  0.00    +0.000 C 
BRANCH  35  36
ATOM     36  O   UNL     1     -46.774 -59.223  35.435  0.00  0.00    +0.000 OA
ATOM     37  H   UNL     1     -46.829 -59.482  34.489  0.00  0.00    +0.000 HD
ENDBRANCH  35  36
ENDBRANCH  14  35
TORSDOF 4
ENDMDL
