MODEL 1
REMARK VINA RESULT:      -5.2      0.000      0.000
REMARK  Name = 76617_Cardol.pdbqt.pdb
REMARK  10 active torsions:
REMARK  status: ('A' for Active; 'I' for Inactive)
REMARK    1  A    between atoms: C_1  and  C_2
REMARK    2  A    between atoms: C_3  and  C_4
REMARK    3  A    between atoms: C_5  and  C_6
REMARK    4  A    between atoms: C_7  and  C_8
REMARK    5  A    between atoms: C_8  and  C_9
REMARK    6  A    between atoms: C_10  and  C_11
REMARK    7  A    between atoms: C_14  and  C_15
REMARK    8  A    between atoms: C_15  and  C_16
REMARK    9  A    between atoms: C_19  and  O_24
REMARK   10  A    between atoms: C_20  and  O_22
REMARK                            x       y       z     vdW  Elec       q    Type
REMARK                         _______ _______ _______ _____ _____    ______ ____
ROOT
ATOM      1  C   UNL     1     -46.139 -62.986  38.197  0.00  0.00    +0.000 C 
ATOM      2  C   UNL     1     -46.234 -62.903  39.390  0.00  0.00    +0.000 C 
ENDROOT
BRANCH   1   3
ATOM      3  C   UNL     1     -46.018 -63.094  36.674  0.00  0.00    +0.000 C 
ATOM      4  C   UNL     1     -45.896 -63.200  35.150  0.00  0.00    +0.000 C 
BRANCH   4   5
ATOM      5  C   UNL     1     -45.773 -63.307  33.628  0.00  0.00    +0.000 C 
ATOM      6  C   UNL     1     -45.650 -63.413  32.105  0.00  0.00    +0.000 C 
BRANCH   6   7
ATOM      7  C   UNL     1     -45.527 -63.520  30.582  0.00  0.00    +0.000 C 
ATOM      8  C   UNL     1     -45.404 -63.626  29.059  0.00  0.00    +0.000 C 
BRANCH   8   9
ATOM      9  C   UNL     1     -45.280 -63.733  27.537  0.00  0.00    +0.000 C 
BRANCH   9  10
ATOM     10  C   UNL     1     -45.154 -63.840  26.013  0.00  0.00    +0.000 C 
ATOM     11  C   UNL     1     -45.030 -63.945  24.491  0.00  0.00    +0.000 C 
BRANCH  11  12
ATOM     12  C   UNL     1     -44.906 -64.052  22.968  0.00  0.00    +0.000 C 
ATOM     13  C   UNL     1     -44.782 -64.160  21.445  0.00  0.00    +0.000 C 
ATOM     14  C   UNL     1     -44.658 -64.266  19.922  0.00  0.00    +0.000 C 
ENDBRANCH  11  12
ENDBRANCH   9  10
ENDBRANCH   8   9
ENDBRANCH   6   7
ENDBRANCH   4   5
ENDBRANCH   1   3
BRANCH   2  15
ATOM     15  C   UNL     1     -46.354 -62.795  40.914  0.00  0.00    +0.000 C 
BRANCH  15  16
ATOM     16  C   UNL     1     -46.466 -62.695  42.330  0.00  0.00    +0.000 A 
ATOM     17  C   UNL     1     -47.599 -62.116  42.898  0.00  0.00    +0.000 A 
ATOM     18  C   UNL     1     -45.441 -63.177  43.142  0.00  0.00    +0.000 A 
ATOM     19  C   UNL     1     -45.559 -63.075  44.526  0.00  0.00    +0.000 A 
ATOM     20  C   UNL     1     -47.698 -62.023  44.284  0.00  0.00    +0.000 A 
ATOM     21  C   UNL     1     -46.684 -62.499  45.108  0.00  0.00    +0.000 A 
BRANCH  20  22
ATOM     22  O   UNL     1     -48.798 -61.460  44.865  0.00  0.00    +0.000 OA
ATOM     23  H   UNL     1     -48.577 -60.549  45.123  0.00  0.00    +0.000 HD
ENDBRANCH  20  22
BRANCH  19  24
ATOM     24  O   UNL     1     -44.569 -63.539  45.344  0.00  0.00    +0.000 OA
ATOM     25  H   UNL     1     -44.085 -62.775  45.703  0.00  0.00    +0.000 HD
ENDBRANCH  19  24
ENDBRANCH  15  16
ENDBRANCH   2  15
TORSDOF 10
ENDMDL
MODEL 2
REMARK VINA RESULT:      -4.8     26.290     27.964
REMARK  Name = 76617_Cardol.pdbqt.pdb
REMARK  10 active torsions:
REMARK  status: ('A' for Active; 'I' for Inactive)
REMARK    1  A    between atoms: C_1  and  C_2
REMARK    2  A    between atoms: C_3  and  C_4
REMARK    3  A    between atoms: C_5  and  C_6
REMARK    4  A    between atoms: C_7  and  C_8
REMARK    5  A    between atoms: C_8  and  C_9
REMARK    6  A    between atoms: C_10  and  C_11
REMARK    7  A    between atoms: C_14  and  C_15
REMARK    8  A    between atoms: C_15  and  C_16
REMARK    9  A    between atoms: C_19  and  O_24
REMARK   10  A    between atoms: C_20  and  O_22
REMARK                            x       y       z     vdW  Elec       q    Type
REMARK                         _______ _______ _______ _____ _____    ______ ____
ROOT
ATOM      1  C   UNL     1     -34.589 -48.483  52.858  0.00  0.00    +0.000 C 
ATOM      2  C   UNL     1     -34.081 -49.494  53.256  0.00  0.00    +0.000 C 
ENDROOT
BRANCH   1   3
ATOM      3  C   UNL     1     -35.238 -47.193  52.349  0.00  0.00    +0.000 C 
ATOM      4  C   UNL     1     -35.888 -45.902  51.840  0.00  0.00    +0.000 C 
BRANCH   4   5
ATOM      5  C   UNL     1     -36.539 -44.613  51.332  0.00  0.00    +0.000 C 
ATOM      6  C   UNL     1     -37.190 -43.324  50.823  0.00  0.00    +0.000 C 
BRANCH   6   7
ATOM      7  C   UNL     1     -37.842 -42.033  50.315  0.00  0.00    +0.000 C 
ATOM      8  C   UNL     1     -38.493 -40.744  49.807  0.00  0.00    +0.000 C 
BRANCH   8   9
ATOM      9  C   UNL     1     -39.145 -39.454  49.300  0.00  0.00    +0.000 C 
BRANCH   9  10
ATOM     10  C   UNL     1     -39.798 -38.165  48.792  0.00  0.00    +0.000 C 
ATOM     11  C   UNL     1     -40.452 -36.876  48.285  0.00  0.00    +0.000 C 
BRANCH  11  12
ATOM     12  C   UNL     1     -41.106 -35.587  47.778  0.00  0.00    +0.000 C 
ATOM     13  C   UNL     1     -41.758 -34.298  47.270  0.00  0.00    +0.000 C 
ATOM     14  C   UNL     1     -42.412 -33.009  46.762  0.00  0.00    +0.000 C 
ENDBRANCH  11  12
ENDBRANCH   9  10
ENDBRANCH   8   9
ENDBRANCH   6   7
ENDBRANCH   4   5
ENDBRANCH   1   3
BRANCH   2  15
ATOM     15  C   UNL     1     -33.432 -50.786  53.766  0.00  0.00    +0.000 C 
BRANCH  15  16
ATOM     16  C   UNL     1     -32.829 -51.986  54.241  0.00  0.00    +0.000 A 
ATOM     17  C   UNL     1     -32.834 -52.273  55.604  0.00  0.00    +0.000 A 
ATOM     18  C   UNL     1     -32.237 -52.868  53.339  0.00  0.00    +0.000 A 
ATOM     19  C   UNL     1     -31.651 -54.039  53.812  0.00  0.00    +0.000 A 
ATOM     20  C   UNL     1     -32.243 -53.450  56.058  0.00  0.00    +0.000 A 
ATOM     21  C   UNL     1     -31.647 -54.340  55.171  0.00  0.00    +0.000 A 
BRANCH  20  22
ATOM     22  O   UNL     1     -32.235 -53.753  57.388  0.00  0.00    +0.000 OA
ATOM     23  H   UNL     1     -32.452 -52.948  57.889  0.00  0.00    +0.000 HD
ENDBRANCH  20  22
BRANCH  19  24
ATOM     24  O   UNL     1     -31.063 -54.920  52.950  0.00  0.00    +0.000 OA
ATOM     25  H   UNL     1     -31.735 -55.218  52.313  0.00  0.00    +0.000 HD
ENDBRANCH  19  24
ENDBRANCH  15  16
ENDBRANCH   2  15
TORSDOF 10
ENDMDL
MODEL 3
REMARK VINA RESULT:      -4.8     11.281     12.480
REMARK  Name = 76617_Cardol.pdbqt.pdb
REMARK  10 active torsions:
REMARK  status: ('A' for Active; 'I' for Inactive)
REMARK    1  A    between atoms: C_1  and  C_2
REMARK    2  A    between atoms: C_3  and  C_4
REMARK    3  A    between atoms: C_5  and  C_6
REMARK    4  A    between atoms: C_7  and  C_8
REMARK    5  A    between atoms: C_8  and  C_9
REMARK    6  A    between atoms: C_10  and  C_11
REMARK    7  A    between atoms: C_14  and  C_15
REMARK    8  A    between atoms: C_15  and  C_16
REMARK    9  A    between atoms: C_19  and  O_24
REMARK   10  A    between atoms: C_20  and  O_22
REMARK                            x       y       z     vdW  Elec       q    Type
REMARK                         _______ _______ _______ _____ _____    ______ ____
ROOT
ATOM      1  C   UNL     1     -44.456 -54.336  28.778  0.00  0.00    +0.000 C 
ATOM      2  C   UNL     1     -44.537 -53.762  29.828  0.00  0.00    +0.000 C 
ENDROOT
BRANCH   1   3
ATOM      3  C   UNL     1     -44.353 -55.069  27.437  0.00  0.00    +0.000 C 
ATOM      4  C   UNL     1     -44.249 -55.802  26.095  0.00  0.00    +0.000 C 
BRANCH   4   5
ATOM      5  C   UNL     1     -44.144 -56.535  24.755  0.00  0.00    +0.000 C 
ATOM      6  C   UNL     1     -44.041 -57.269  23.415  0.00  0.00    +0.000 C 
BRANCH   6   7
ATOM      7  C   UNL     1     -43.938 -58.003  22.074  0.00  0.00    +0.000 C 
ATOM      8  C   UNL     1     -43.835 -58.737  20.735  0.00  0.00    +0.000 C 
BRANCH   8   9
ATOM      9  C   UNL     1     -43.732 -59.471  19.395  0.00  0.00    +0.000 C 
BRANCH   9  10
ATOM     10  C   UNL     1     -43.628 -60.205  18.054  0.00  0.00    +0.000 C 
ATOM     11  C   UNL     1     -43.526 -60.939  16.714  0.00  0.00    +0.000 C 
BRANCH  11  12
ATOM     12  C   UNL     1     -43.422 -61.673  15.373  0.00  0.00    +0.000 C 
ATOM     13  C   UNL     1     -43.320 -62.407  14.033  0.00  0.00    +0.000 C 
ATOM     14  C   UNL     1     -43.216 -63.142  12.693  0.00  0.00    +0.000 C 
ENDBRANCH  11  12
ENDBRANCH   9  10
ENDBRANCH   8   9
ENDBRANCH   6   7
ENDBRANCH   4   5
ENDBRANCH   1   3
BRANCH   2  15
ATOM     15  C   UNL     1     -44.640 -53.030  31.171  0.00  0.00    +0.000 C 
BRANCH  15  16
ATOM     16  C   UNL     1     -44.735 -52.350  32.418  0.00  0.00    +0.000 A 
ATOM     17  C   UNL     1     -43.826 -52.634  33.435  0.00  0.00    +0.000 A 
ATOM     18  C   UNL     1     -45.738 -51.402  32.616  0.00  0.00    +0.000 A 
ATOM     19  C   UNL     1     -45.823 -50.742  33.839  0.00  0.00    +0.000 A 
ATOM     20  C   UNL     1     -43.929 -51.963  34.651  0.00  0.00    +0.000 A 
ATOM     21  C   UNL     1     -44.923 -51.015  34.865  0.00  0.00    +0.000 A 
BRANCH  20  22
ATOM     22  O   UNL     1     -43.050 -52.224  35.663  0.00  0.00    +0.000 OA
ATOM     23  H   UNL     1     -43.381 -52.986  36.169  0.00  0.00    +0.000 HD
ENDBRANCH  20  22
BRANCH  19  24
ATOM     24  O   UNL     1     -46.796 -49.810  34.060  0.00  0.00    +0.000 OA
ATOM     25  H   UNL     1     -47.627 -50.138  33.674  0.00  0.00    +0.000 HD
ENDBRANCH  19  24
ENDBRANCH  15  16
ENDBRANCH   2  15
TORSDOF 10
ENDMDL
MODEL 4
REMARK VINA RESULT:      -4.7     10.384     11.196
REMARK  Name = 76617_Cardol.pdbqt.pdb
REMARK  10 active torsions:
REMARK  status: ('A' for Active; 'I' for Inactive)
REMARK    1  A    between atoms: C_1  and  C_2
REMARK    2  A    between atoms: C_3  and  C_4
REMARK    3  A    between atoms: C_5  and  C_6
REMARK    4  A    between atoms: C_7  and  C_8
REMARK    5  A    between atoms: C_8  and  C_9
REMARK    6  A    between atoms: C_10  and  C_11
REMARK    7  A    between atoms: C_14  and  C_15
REMARK    8  A    between atoms: C_15  and  C_16
REMARK    9  A    between atoms: C_19  and  O_24
REMARK   10  A    between atoms: C_20  and  O_22
REMARK                            x       y       z     vdW  Elec       q    Type
REMARK                         _______ _______ _______ _____ _____    ______ ____
ROOT
ATOM      1  C   UNL     1     -42.986 -59.239  37.257  0.00  0.00    +0.000 C 
ATOM      2  C   UNL     1     -43.292 -60.199  37.908  0.00  0.00    +0.000 C 
ENDROOT
BRANCH   1   3
ATOM      3  C   UNL     1     -42.597 -58.013  36.426  0.00  0.00    +0.000 C 
ATOM      4  C   UNL     1     -42.208 -56.786  35.595  0.00  0.00    +0.000 C 
BRANCH   4   5
ATOM      5  C   UNL     1     -41.818 -55.560  34.765  0.00  0.00    +0.000 C 
ATOM      6  C   UNL     1     -41.429 -54.333  33.935  0.00  0.00    +0.000 C 
BRANCH   6   7
ATOM      7  C   UNL     1     -41.039 -53.106  33.104  0.00  0.00    +0.000 C 
ATOM      8  C   UNL     1     -40.649 -51.880  32.274  0.00  0.00    +0.000 C 
BRANCH   8   9
ATOM      9  C   UNL     1     -40.258 -50.654  31.444  0.00  0.00    +0.000 C 
BRANCH   9  10
ATOM     10  C   UNL     1     -39.867 -49.427  30.614  0.00  0.00    +0.000 C 
ATOM     11  C   UNL     1     -39.477 -48.200  29.786  0.00  0.00    +0.000 C 
BRANCH  11  12
ATOM     12  C   UNL     1     -39.087 -46.972  28.956  0.00  0.00    +0.000 C 
ATOM     13  C   UNL     1     -38.697 -45.745  28.127  0.00  0.00    +0.000 C 
ATOM     14  C   UNL     1     -38.307 -44.518  27.297  0.00  0.00    +0.000 C 
ENDBRANCH  11  12
ENDBRANCH   9  10
ENDBRANCH   8   9
ENDBRANCH   6   7
ENDBRANCH   4   5
ENDBRANCH   1   3
BRANCH   2  15
ATOM     15  C   UNL     1     -43.680 -61.426  38.740  0.00  0.00    +0.000 C 
BRANCH  15  16
ATOM     16  C   UNL     1     -44.040 -62.568  39.512  0.00  0.00    +0.000 A 
ATOM     17  C   UNL     1     -44.164 -63.812  38.897  0.00  0.00    +0.000 A 
ATOM     18  C   UNL     1     -44.267 -62.434  40.881  0.00  0.00    +0.000 A 
ATOM     19  C   UNL     1     -44.619 -63.556  41.628  0.00  0.00    +0.000 A 
ATOM     20  C   UNL     1     -44.516 -64.921  39.662  0.00  0.00    +0.000 A 
ATOM     21  C   UNL     1     -44.747 -64.805  41.028  0.00  0.00    +0.000 A 
BRANCH  20  22
ATOM     22  O   UNL     1     -44.644 -66.150  39.082  0.00  0.00    +0.000 OA
ATOM     23  H   UNL     1     -44.151 -66.147  38.243  0.00  0.00    +0.000 HD
ENDBRANCH  20  22
BRANCH  19  24
ATOM     24  O   UNL     1     -44.847 -63.453  42.970  0.00  0.00    +0.000 OA
ATOM     25  H   UNL     1     -45.521 -64.111  43.217  0.00  0.00    +0.000 HD
ENDBRANCH  19  24
ENDBRANCH  15  16
ENDBRANCH   2  15
TORSDOF 10
ENDMDL
MODEL 5
REMARK VINA RESULT:      -4.6      7.678      8.143
REMARK  Name = 76617_Cardol.pdbqt.pdb
REMARK  10 active torsions:
REMARK  status: ('A' for Active; 'I' for Inactive)
REMARK    1  A    between atoms: C_1  and  C_2
REMARK    2  A    between atoms: C_3  and  C_4
REMARK    3  A    between atoms: C_5  and  C_6
REMARK    4  A    between atoms: C_7  and  C_8
REMARK    5  A    between atoms: C_8  and  C_9
REMARK    6  A    between atoms: C_10  and  C_11
REMARK    7  A    between atoms: C_14  and  C_15
REMARK    8  A    between atoms: C_15  and  C_16
REMARK    9  A    between atoms: C_19  and  O_24
REMARK   10  A    between atoms: C_20  and  O_22
REMARK                            x       y       z     vdW  Elec       q    Type
REMARK                         _______ _______ _______ _____ _____    ______ ____
ROOT
ATOM      1  C   UNL     1     -46.276 -63.965  41.056  0.00  0.00    +0.000 C 
ATOM      2  C   UNL     1     -46.859 -63.240  41.815  0.00  0.00    +0.000 C 
ENDROOT
BRANCH   1   3
ATOM      3  C   UNL     1     -45.533 -64.889  40.088  0.00  0.00    +0.000 C 
ATOM      4  C   UNL     1     -44.791 -65.814  39.118  0.00  0.00    +0.000 C 
BRANCH   4   5
ATOM      5  C   UNL     1     -44.049 -66.738  38.148  0.00  0.00    +0.000 C 
ATOM      6  C   UNL     1     -43.307 -67.662  37.177  0.00  0.00    +0.000 C 
BRANCH   6   7
ATOM      7  C   UNL     1     -42.565 -68.585  36.205  0.00  0.00    +0.000 C 
ATOM      8  C   UNL     1     -41.824 -69.508  35.234  0.00  0.00    +0.000 C 
BRANCH   8   9
ATOM      9  C   UNL     1     -41.084 -70.431  34.262  0.00  0.00    +0.000 C 
BRANCH   9  10
ATOM     10  C   UNL     1     -40.341 -71.355  33.291  0.00  0.00    +0.000 C 
ATOM     11  C   UNL     1     -39.599 -72.278  32.321  0.00  0.00    +0.000 C 
BRANCH  11  12
ATOM     12  C   UNL     1     -38.855 -73.202  31.351  0.00  0.00    +0.000 C 
ATOM     13  C   UNL     1     -38.112 -74.125  30.381  0.00  0.00    +0.000 C 
ATOM     14  C   UNL     1     -37.369 -75.049  29.411  0.00  0.00    +0.000 C 
ENDBRANCH  11  12
ENDBRANCH   9  10
ENDBRANCH   8   9
ENDBRANCH   6   7
ENDBRANCH   4   5
ENDBRANCH   1   3
BRANCH   2  15
ATOM     15  C   UNL     1     -47.602 -62.316  42.785  0.00  0.00    +0.000 C 
BRANCH  15  16
ATOM     16  C   UNL     1     -48.293 -61.457  43.687  0.00  0.00    +0.000 A 
ATOM     17  C   UNL     1     -48.115 -61.606  45.061  0.00  0.00    +0.000 A 
ATOM     18  C   UNL     1     -49.144 -60.471  43.191  0.00  0.00    +0.000 A 
ATOM     19  C   UNL     1     -49.815 -59.636  44.081  0.00  0.00    +0.000 A 
ATOM     20  C   UNL     1     -48.795 -60.761  45.934  0.00  0.00    +0.000 A 
ATOM     21  C   UNL     1     -49.648 -59.773  45.456  0.00  0.00    +0.000 A 
BRANCH  20  22
ATOM     22  O   UNL     1     -48.638 -60.887  47.285  0.00  0.00    +0.000 OA
ATOM     23  H   UNL     1     -48.438 -60.010  47.654  0.00  0.00    +0.000 HD
ENDBRANCH  20  22
BRANCH  19  24
ATOM     24  O   UNL     1     -50.655 -58.663  43.622  0.00  0.00    +0.000 OA
ATOM     25  H   UNL     1     -50.161 -57.825  43.584  0.00  0.00    +0.000 HD
ENDBRANCH  19  24
ENDBRANCH  15  16
ENDBRANCH   2  15
TORSDOF 10
ENDMDL
MODEL 6
REMARK VINA RESULT:      -4.3      4.714      7.953
REMARK  Name = 76617_Cardol.pdbqt.pdb
REMARK  10 active torsions:
REMARK  status: ('A' for Active; 'I' for Inactive)
REMARK    1  A    between atoms: C_1  and  C_2
REMARK    2  A    between atoms: C_3  and  C_4
REMARK    3  A    between atoms: C_5  and  C_6
REMARK    4  A    between atoms: C_7  and  C_8
REMARK    5  A    between atoms: C_8  and  C_9
REMARK    6  A    between atoms: C_10  and  C_11
REMARK    7  A    between atoms: C_14  and  C_15
REMARK    8  A    between atoms: C_15  and  C_16
REMARK    9  A    between atoms: C_19  and  O_24
REMARK   10  A    between atoms: C_20  and  O_22
REMARK                            x       y       z     vdW  Elec       q    Type
REMARK                         _______ _______ _______ _____ _____    ______ ____
ROOT
ATOM      1  C   UNL     1     -46.394 -61.877  30.455  0.00  0.00    +0.000 C 
ATOM      2  C   UNL     1     -46.763 -61.782  31.592  0.00  0.00    +0.000 C 
ENDROOT
BRANCH   1   3
ATOM      3  C   UNL     1     -45.922 -61.997  29.003  0.00  0.00    +0.000 C 
ATOM      4  C   UNL     1     -45.451 -62.116  27.550  0.00  0.00    +0.000 C 
BRANCH   4   5
ATOM      5  C   UNL     1     -44.980 -62.234  26.098  0.00  0.00    +0.000 C 
ATOM      6  C   UNL     1     -44.507 -62.352  24.646  0.00  0.00    +0.000 C 
BRANCH   6   7
ATOM      7  C   UNL     1     -44.034 -62.469  23.193  0.00  0.00    +0.000 C 
ATOM      8  C   UNL     1     -43.562 -62.587  21.741  0.00  0.00    +0.000 C 
BRANCH   8   9
ATOM      9  C   UNL     1     -43.090 -62.705  20.289  0.00  0.00    +0.000 C 
BRANCH   9  10
ATOM     10  C   UNL     1     -42.619 -62.822  18.836  0.00  0.00    +0.000 C 
ATOM     11  C   UNL     1     -42.147 -62.940  17.384  0.00  0.00    +0.000 C 
BRANCH  11  12
ATOM     12  C   UNL     1     -41.674 -63.056  15.932  0.00  0.00    +0.000 C 
ATOM     13  C   UNL     1     -41.202 -63.173  14.480  0.00  0.00    +0.000 C 
ATOM     14  C   UNL     1     -40.729 -63.290  13.027  0.00  0.00    +0.000 C 
ENDBRANCH  11  12
ENDBRANCH   9  10
ENDBRANCH   8   9
ENDBRANCH   6   7
ENDBRANCH   4   5
ENDBRANCH   1   3
BRANCH   2  15
ATOM     15  C   UNL     1     -47.235 -61.663  33.045  0.00  0.00    +0.000 C 
BRANCH  15  16
ATOM     16  C   UNL     1     -47.675 -61.553  34.396  0.00  0.00    +0.000 A 
ATOM     17  C   UNL     1     -48.510 -60.502  34.771  0.00  0.00    +0.000 A 
ATOM     18  C   UNL     1     -47.268 -62.497  35.336  0.00  0.00    +0.000 A 
ATOM     19  C   UNL     1     -47.703 -62.381  36.654  0.00  0.00    +0.000 A 
ATOM     20  C   UNL     1     -48.934 -60.404  36.094  0.00  0.00    +0.000 A 
ATOM     21  C   UNL     1     -48.536 -61.338  37.044  0.00  0.00    +0.000 A 
BRANCH  20  22
ATOM     22  O   UNL     1     -49.753 -59.384  36.486  0.00  0.00    +0.000 OA
ATOM     23  H   UNL     1     -49.199 -58.654  36.812  0.00  0.00    +0.000 HD
ENDBRANCH  20  22
BRANCH  19  24
ATOM     24  O   UNL     1     -47.318 -63.293  37.595  0.00  0.00    +0.000 OA
ATOM     25  H   UNL     1     -46.706 -63.923  37.178  0.00  0.00    +0.000 HD
ENDBRANCH  19  24
ENDBRANCH  15  16
ENDBRANCH   2  15
TORSDOF 10
ENDMDL
MODEL 7
REMARK VINA RESULT:      -4.2     12.687     15.180
REMARK  Name = 76617_Cardol.pdbqt.pdb
REMARK  10 active torsions:
REMARK  status: ('A' for Active; 'I' for Inactive)
REMARK    1  A    between atoms: C_1  and  C_2
REMARK    2  A    between atoms: C_3  and  C_4
REMARK    3  A    between atoms: C_5  and  C_6
REMARK    4  A    between atoms: C_7  and  C_8
REMARK    5  A    between atoms: C_8  and  C_9
REMARK    6  A    between atoms: C_10  and  C_11
REMARK    7  A    between atoms: C_14  and  C_15
REMARK    8  A    between atoms: C_15  and  C_16
REMARK    9  A    between atoms: C_19  and  O_24
REMARK   10  A    between atoms: C_20  and  O_22
REMARK                            x       y       z     vdW  Elec       q    Type
REMARK                         _______ _______ _______ _____ _____    ______ ____
ROOT
ATOM      1  C   UNL     1     -41.800 -58.384  35.093  0.00  0.00    +0.000 C 
ATOM      2  C   UNL     1     -42.917 -58.806  34.979  0.00  0.00    +0.000 C 
ENDROOT
BRANCH   1   3
ATOM      3  C   UNL     1     -40.374 -57.845  35.238  0.00  0.00    +0.000 C 
ATOM      4  C   UNL     1     -38.947 -57.306  35.383  0.00  0.00    +0.000 C 
BRANCH   4   5
ATOM      5  C   UNL     1     -37.520 -56.768  35.526  0.00  0.00    +0.000 C 
ATOM      6  C   UNL     1     -36.094 -56.229  35.671  0.00  0.00    +0.000 C 
BRANCH   6   7
ATOM      7  C   UNL     1     -34.667 -55.690  35.815  0.00  0.00    +0.000 C 
ATOM      8  C   UNL     1     -33.241 -55.152  35.959  0.00  0.00    +0.000 C 
BRANCH   8   9
ATOM      9  C   UNL     1     -31.815 -54.613  36.103  0.00  0.00    +0.000 C 
BRANCH   9  10
ATOM     10  C   UNL     1     -30.388 -54.073  36.248  0.00  0.00    +0.000 C 
ATOM     11  C   UNL     1     -28.963 -53.533  36.393  0.00  0.00    +0.000 C 
BRANCH  11  12
ATOM     12  C   UNL     1     -27.537 -52.992  36.538  0.00  0.00    +0.000 C 
ATOM     13  C   UNL     1     -26.112 -52.452  36.684  0.00  0.00    +0.000 C 
ATOM     14  C   UNL     1     -24.685 -51.912  36.829  0.00  0.00    +0.000 C 
ENDBRANCH  11  12
ENDBRANCH   9  10
ENDBRANCH   8   9
ENDBRANCH   6   7
ENDBRANCH   4   5
ENDBRANCH   1   3
BRANCH   2  15
ATOM     15  C   UNL     1     -44.344 -59.347  34.835  0.00  0.00    +0.000 C 
BRANCH  15  16
ATOM     16  C   UNL     1     -45.669 -59.851  34.701  0.00  0.00    +0.000 A 
ATOM     17  C   UNL     1     -45.935 -60.872  33.791  0.00  0.00    +0.000 A 
ATOM     18  C   UNL     1     -46.694 -59.319  35.481  0.00  0.00    +0.000 A 
ATOM     19  C   UNL     1     -47.987 -59.818  35.344  0.00  0.00    +0.000 A 
ATOM     20  C   UNL     1     -47.235 -61.357  33.669  0.00  0.00    +0.000 A 
ATOM     21  C   UNL     1     -48.269 -60.838  34.440  0.00  0.00    +0.000 A 
BRANCH  20  22
ATOM     22  O   UNL     1     -47.521 -62.358  32.785  0.00  0.00    +0.000 OA
ATOM     23  H   UNL     1     -47.631 -63.186  33.283  0.00  0.00    +0.000 HD
ENDBRANCH  20  22
BRANCH  19  24
ATOM     24  O   UNL     1     -49.010 -59.315  36.096  0.00  0.00    +0.000 OA
ATOM     25  H   UNL     1     -48.903 -58.350  36.150  0.00  0.00    +0.000 HD
ENDBRANCH  19  24
ENDBRANCH  15  16
ENDBRANCH   2  15
TORSDOF 10
ENDMDL
MODEL 8
REMARK VINA RESULT:      -4.1     26.698     27.486
REMARK  Name = 76617_Cardol.pdbqt.pdb
REMARK  10 active torsions:
REMARK  status: ('A' for Active; 'I' for Inactive)
REMARK    1  A    between atoms: C_1  and  C_2
REMARK    2  A    between atoms: C_3  and  C_4
REMARK    3  A    between atoms: C_5  and  C_6
REMARK    4  A    between atoms: C_7  and  C_8
REMARK    5  A    between atoms: C_8  and  C_9
REMARK    6  A    between atoms: C_10  and  C_11
REMARK    7  A    between atoms: C_14  and  C_15
REMARK    8  A    between atoms: C_15  and  C_16
REMARK    9  A    between atoms: C_19  and  O_24
REMARK   10  A    between atoms: C_20  and  O_22
REMARK                            x       y       z     vdW  Elec       q    Type
REMARK                         _______ _______ _______ _____ _____    ______ ____
ROOT
ATOM      1  C   UNL     1     -32.387 -49.745  53.355  0.00  0.00    +0.000 C 
ATOM      2  C   UNL     1     -31.631 -50.537  53.848  0.00  0.00    +0.000 C 
ENDROOT
BRANCH   1   3
ATOM      3  C   UNL     1     -33.351 -48.736  52.726  0.00  0.00    +0.000 C 
ATOM      4  C   UNL     1     -34.315 -47.725  52.095  0.00  0.00    +0.000 C 
BRANCH   4   5
ATOM      5  C   UNL     1     -35.280 -46.717  51.465  0.00  0.00    +0.000 C 
ATOM      6  C   UNL     1     -36.244 -45.708  50.835  0.00  0.00    +0.000 C 
BRANCH   6   7
ATOM      7  C   UNL     1     -37.210 -44.699  50.205  0.00  0.00    +0.000 C 
ATOM      8  C   UNL     1     -38.174 -43.690  49.574  0.00  0.00    +0.000 C 
BRANCH   8   9
ATOM      9  C   UNL     1     -39.138 -42.681  48.944  0.00  0.00    +0.000 C 
BRANCH   9  10
ATOM     10  C   UNL     1     -40.103 -41.671  48.314  0.00  0.00    +0.000 C 
ATOM     11  C   UNL     1     -41.066 -40.662  47.684  0.00  0.00    +0.000 C 
BRANCH  11  12
ATOM     12  C   UNL     1     -42.030 -39.651  47.054  0.00  0.00    +0.000 C 
ATOM     13  C   UNL     1     -42.993 -38.641  46.423  0.00  0.00    +0.000 C 
ATOM     14  C   UNL     1     -43.957 -37.631  45.793  0.00  0.00    +0.000 C 
ENDBRANCH  11  12
ENDBRANCH   9  10
ENDBRANCH   8   9
ENDBRANCH   6   7
ENDBRANCH   4   5
ENDBRANCH   1   3
BRANCH   2  15
ATOM     15  C   UNL     1     -30.667 -51.547  54.478  0.00  0.00    +0.000 C 
BRANCH  15  16
ATOM     16  C   UNL     1     -29.770 -52.486  55.064  0.00  0.00    +0.000 A 
ATOM     17  C   UNL     1     -30.186 -53.263  56.143  0.00  0.00    +0.000 A 
ATOM     18  C   UNL     1     -28.481 -52.624  54.553  0.00  0.00    +0.000 A 
ATOM     19  C   UNL     1     -27.611 -53.545  55.133  0.00  0.00    +0.000 A 
ATOM     20  C   UNL     1     -29.301 -54.178  56.708  0.00  0.00    +0.000 A 
ATOM     21  C   UNL     1     -28.011 -54.327  56.211  0.00  0.00    +0.000 A 
BRANCH  20  22
ATOM     22  O   UNL     1     -29.685 -54.951  57.766  0.00  0.00    +0.000 OA
ATOM     23  H   UNL     1     -28.978 -55.595  57.949  0.00  0.00    +0.000 HD
ENDBRANCH  20  22
BRANCH  19  24
ATOM     24  O   UNL     1     -26.342 -53.699  54.653  0.00  0.00    +0.000 OA
ATOM     25  H   UNL     1     -25.787 -52.990  55.021  0.00  0.00    +0.000 HD
ENDBRANCH  19  24
ENDBRANCH  15  16
ENDBRANCH   2  15
TORSDOF 10
ENDMDL
MODEL 9
REMARK VINA RESULT:      -4.1     26.247     32.027
REMARK  Name = 76617_Cardol.pdbqt.pdb
REMARK  10 active torsions:
REMARK  status: ('A' for Active; 'I' for Inactive)
REMARK    1  A    between atoms: C_1  and  C_2
REMARK    2  A    between atoms: C_3  and  C_4
REMARK    3  A    between atoms: C_5  and  C_6
REMARK    4  A    between atoms: C_7  and  C_8
REMARK    5  A    between atoms: C_8  and  C_9
REMARK    6  A    between atoms: C_10  and  C_11
REMARK    7  A    between atoms: C_14  and  C_15
REMARK    8  A    between atoms: C_15  and  C_16
REMARK    9  A    between atoms: C_19  and  O_24
REMARK   10  A    between atoms: C_20  and  O_22
REMARK                            x       y       z     vdW  Elec       q    Type
REMARK                         _______ _______ _______ _____ _____    ______ ____
ROOT
ATOM      1  C   UNL     1     -31.015 -51.870  54.991  0.00  0.00    +0.000 C 
ATOM      2  C   UNL     1     -31.566 -51.074  54.283  0.00  0.00    +0.000 C 
ENDROOT
BRANCH   1   3
ATOM      3  C   UNL     1     -30.313 -52.886  55.896  0.00  0.00    +0.000 C 
ATOM      4  C   UNL     1     -29.611 -53.904  56.802  0.00  0.00    +0.000 C 
BRANCH   4   5
ATOM      5  C   UNL     1     -28.910 -54.921  57.706  0.00  0.00    +0.000 C 
ATOM      6  C   UNL     1     -28.209 -55.940  58.610  0.00  0.00    +0.000 C 
BRANCH   6   7
ATOM      7  C   UNL     1     -27.508 -56.959  59.514  0.00  0.00    +0.000 C 
ATOM      8  C   UNL     1     -26.807 -57.977  60.418  0.00  0.00    +0.000 C 
BRANCH   8   9
ATOM      9  C   UNL     1     -26.105 -58.994  61.322  0.00  0.00    +0.000 C 
BRANCH   9  10
ATOM     10  C   UNL     1     -25.405 -60.014  62.226  0.00  0.00    +0.000 C 
ATOM     11  C   UNL     1     -24.705 -61.033  63.129  0.00  0.00    +0.000 C 
BRANCH  11  12
ATOM     12  C   UNL     1     -24.005 -62.053  64.034  0.00  0.00    +0.000 C 
ATOM     13  C   UNL     1     -23.307 -63.072  64.938  0.00  0.00    +0.000 C 
ATOM     14  C   UNL     1     -22.607 -64.092  65.842  0.00  0.00    +0.000 C 
ENDBRANCH  11  12
ENDBRANCH   9  10
ENDBRANCH   8   9
ENDBRANCH   6   7
ENDBRANCH   4   5
ENDBRANCH   1   3
BRANCH   2  15
ATOM     15  C   UNL     1     -32.269 -50.057  53.377  0.00  0.00    +0.000 C 
BRANCH  15  16
ATOM     16  C   UNL     1     -32.921 -49.110  52.536  0.00  0.00    +0.000 A 
ATOM     17  C   UNL     1     -33.907 -48.278  53.062  0.00  0.00    +0.000 A 
ATOM     18  C   UNL     1     -32.570 -49.021  51.191  0.00  0.00    +0.000 A 
ATOM     19  C   UNL     1     -33.214 -48.093  50.376  0.00  0.00    +0.000 A 
ATOM     20  C   UNL     1     -34.538 -47.355  52.232  0.00  0.00    +0.000 A 
ATOM     21  C   UNL     1     -34.200 -47.254  50.886  0.00  0.00    +0.000 A 
BRANCH  20  22
ATOM     22  O   UNL     1     -35.507 -46.528  52.723  0.00  0.00    +0.000 OA
ATOM     23  H   UNL     1     -36.264 -46.544  52.113  0.00  0.00    +0.000 HD
ENDBRANCH  20  22
BRANCH  19  24
ATOM     24  O   UNL     1     -32.890 -47.985  49.054  0.00  0.00    +0.000 OA
ATOM     25  H   UNL     1     -33.678 -47.686  48.569  0.00  0.00    +0.000 HD
ENDBRANCH  19  24
ENDBRANCH  15  16
ENDBRANCH   2  15
TORSDOF 10
ENDMDL
