MODEL 1
REMARK VINA RESULT:      -5.5      0.000      0.000
REMARK  Name = 85668777_Hyaluronidase.pdbqt.pdb
REMARK  5 active torsions:
REMARK  status: ('A' for Active; 'I' for Inactive)
REMARK    1  A    between atoms: N_1  and  C_13
REMARK    2  A    between atoms: C_14  and  C_15
REMARK    3  A    between atoms: C_15  and  C_16
REMARK    4  A    between atoms: C_17  and  C_19
REMARK    5  A    between atoms: C_19  and  O_20
REMARK                            x       y       z     vdW  Elec       q    Type
REMARK                         _______ _______ _______ _____ _____    ______ ____
ROOT
ATOM      1  N   UNL     1     -45.890 -38.469  49.603  0.00  0.00    +0.000 N 
ATOM      2  C   UNL     1     -47.765 -36.940  49.681  0.00  0.00    +0.000 C 
ATOM      3  C   UNL     1     -47.418 -37.510  51.056  0.00  0.00    +0.000 A 
ATOM      4  C   UNL     1     -46.676 -37.652  48.788  0.00  0.00    +0.000 C 
ATOM      5  C   UNL     1     -46.321 -38.390  50.938  0.00  0.00    +0.000 A 
ATOM      6  C   UNL     1     -49.218 -37.369  49.302  0.00  0.00    +0.000 C 
ATOM      7  C   UNL     1     -47.587 -35.388  49.711  0.00  0.00    +0.000 C 
ATOM      8  C   UNL     1     -48.015 -37.274  52.286  0.00  0.00    +0.000 A 
ATOM      9  C   UNL     1     -45.809 -39.041  52.047  0.00  0.00    +0.000 A 
ATOM     10  C   UNL     1     -46.452 -37.562  47.461  0.00  0.00    +0.000 C 
ATOM     11  C   UNL     1     -47.498 -37.930  53.403  0.00  0.00    +0.000 A 
ATOM     12  C   UNL     1     -46.407 -38.803  53.284  0.00  0.00    +0.000 A 
ENDROOT
BRANCH   1  13
ATOM     13  C   UNL     1     -44.785 -39.288  49.169  0.00  0.00    +0.000 C 
ATOM     14  C   UNL     1     -43.613 -40.158  48.702  0.00  0.00    +0.000 C 
BRANCH  14  15
ATOM     15  C   UNL     1     -42.442 -41.027  48.235  0.00  0.00    +0.000 C 
BRANCH  15  16
ATOM     16  C   UNL     1     -41.271 -41.896  47.768  0.00  0.00    +0.000 C 
ATOM     17  C   UNL     1     -40.098 -42.764  47.302  0.00  0.00    +0.000 C 
BRANCH  17  19
ATOM     18  O   UNL     1     -38.444 -43.432  45.793  0.00  0.00    +0.000 OA
ATOM     19  C   UNL     1     -39.002 -43.576  46.867  0.00  0.00    +0.000 C 
BRANCH  19  20
ATOM     20  O   UNL     1     -38.635 -44.520  47.751  0.00  0.00    +0.000 OA
ATOM     21  H   UNL     1     -38.858 -44.124  48.618  0.00  0.00    +0.000 HD
ENDBRANCH  19  20
ENDBRANCH  17  19
ENDBRANCH  15  16
ENDBRANCH  14  15
ENDBRANCH   1  13
TORSDOF 5
ENDMDL
MODEL 2
REMARK VINA RESULT:      -5.4     29.876     31.710
REMARK  Name = 85668777_Hyaluronidase.pdbqt.pdb
REMARK  5 active torsions:
REMARK  status: ('A' for Active; 'I' for Inactive)
REMARK    1  A    between atoms: N_1  and  C_13
REMARK    2  A    between atoms: C_14  and  C_15
REMARK    3  A    between atoms: C_15  and  C_16
REMARK    4  A    between atoms: C_17  and  C_19
REMARK    5  A    between atoms: C_19  and  O_20
REMARK                            x       y       z     vdW  Elec       q    Type
REMARK                         _______ _______ _______ _____ _____    ______ ____
ROOT
ATOM      1  N   UNL     1     -34.793 -64.839  66.482  0.00  0.00    +0.000 N 
ATOM      2  C   UNL     1     -34.796 -64.884  68.902  0.00  0.00    +0.000 C 
ATOM      3  C   UNL     1     -35.926 -64.027  68.332  0.00  0.00    +0.000 A 
ATOM      4  C   UNL     1     -34.106 -65.377  67.571  0.00  0.00    +0.000 C 
ATOM      5  C   UNL     1     -35.865 -64.044  66.923  0.00  0.00    +0.000 A 
ATOM      6  C   UNL     1     -33.854 -63.984  69.763  0.00  0.00    +0.000 C 
ATOM      7  C   UNL     1     -35.413 -66.062  69.722  0.00  0.00    +0.000 C 
ATOM      8  C   UNL     1     -36.906 -63.304  68.996  0.00  0.00    +0.000 A 
ATOM      9  C   UNL     1     -36.783 -63.341  66.163  0.00  0.00    +0.000 A 
ATOM     10  C   UNL     1     -33.034 -66.177  67.398  0.00  0.00    +0.000 C 
ATOM     11  C   UNL     1     -37.831 -62.596  68.229  0.00  0.00    +0.000 A 
ATOM     12  C   UNL     1     -37.770 -62.615  66.829  0.00  0.00    +0.000 A 
ENDROOT
BRANCH   1  13
ATOM     13  C   UNL     1     -34.476 -65.051  65.091  0.00  0.00    +0.000 C 
ATOM     14  C   UNL     1     -34.145 -65.278  63.612  0.00  0.00    +0.000 C 
BRANCH  14  15
ATOM     15  C   UNL     1     -33.814 -65.504  62.134  0.00  0.00    +0.000 C 
BRANCH  15  16
ATOM     16  C   UNL     1     -33.485 -65.730  60.656  0.00  0.00    +0.000 C 
ATOM     17  C   UNL     1     -33.155 -65.956  59.177  0.00  0.00    +0.000 C 
BRANCH  17  19
ATOM     18  O   UNL     1     -33.596 -66.742  57.021  0.00  0.00    +0.000 OA
ATOM     19  C   UNL     1     -32.849 -66.166  57.794  0.00  0.00    +0.000 C 
BRANCH  19  20
ATOM     20  O   UNL     1     -31.658 -65.671  57.416  0.00  0.00    +0.000 OA
ATOM     21  H   UNL     1     -31.160 -66.462  57.126  0.00  0.00    +0.000 HD
ENDBRANCH  19  20
ENDBRANCH  17  19
ENDBRANCH  15  16
ENDBRANCH  14  15
ENDBRANCH   1  13
TORSDOF 5
ENDMDL
MODEL 3
REMARK VINA RESULT:      -5.4      8.514     11.397
REMARK  Name = 85668777_Hyaluronidase.pdbqt.pdb
REMARK  5 active torsions:
REMARK  status: ('A' for Active; 'I' for Inactive)
REMARK    1  A    between atoms: N_1  and  C_13
REMARK    2  A    between atoms: C_14  and  C_15
REMARK    3  A    between atoms: C_15  and  C_16
REMARK    4  A    between atoms: C_17  and  C_19
REMARK    5  A    between atoms: C_19  and  O_20
REMARK                            x       y       z     vdW  Elec       q    Type
REMARK                         _______ _______ _______ _____ _____    ______ ____
ROOT
ATOM      1  N   UNL     1     -35.816 -42.829  51.296  0.00  0.00    +0.000 N 
ATOM      2  C   UNL     1     -35.788 -40.427  51.006  0.00  0.00    +0.000 C 
ATOM      3  C   UNL     1     -36.998 -41.082  50.340  0.00  0.00    +0.000 A 
ATOM      4  C   UNL     1     -35.070 -41.693  51.615  0.00  0.00    +0.000 C 
ATOM      5  C   UNL     1     -36.951 -42.477  50.547  0.00  0.00    +0.000 A 
ATOM      6  C   UNL     1     -34.924 -39.719  49.915  0.00  0.00    +0.000 C 
ATOM      7  C   UNL     1     -36.286 -39.439  52.110  0.00  0.00    +0.000 C 
ATOM      8  C   UNL     1     -38.033 -40.500  49.623  0.00  0.00    +0.000 A 
ATOM      9  C   UNL     1     -37.938 -43.304  50.040  0.00  0.00    +0.000 A 
ATOM     10  C   UNL     1     -33.932 -41.781  52.333  0.00  0.00    +0.000 C 
ATOM     11  C   UNL     1     -39.027 -41.335  49.113  0.00  0.00    +0.000 A 
ATOM     12  C   UNL     1     -38.980 -42.720  49.320  0.00  0.00    +0.000 A 
ENDROOT
BRANCH   1  13
ATOM     13  C   UNL     1     -35.496 -44.186  51.669  0.00  0.00    +0.000 C 
ATOM     14  C   UNL     1     -35.155 -45.627  52.061  0.00  0.00    +0.000 C 
BRANCH  14  15
ATOM     15  C   UNL     1     -34.815 -47.069  52.451  0.00  0.00    +0.000 C 
BRANCH  15  16
ATOM     16  C   UNL     1     -34.473 -48.509  52.841  0.00  0.00    +0.000 C 
ATOM     17  C   UNL     1     -34.131 -49.950  53.231  0.00  0.00    +0.000 C 
BRANCH  17  19
ATOM     18  O   UNL     1     -33.212 -52.067  52.862  0.00  0.00    +0.000 OA
ATOM     19  C   UNL     1     -33.809 -51.297  53.595  0.00  0.00    +0.000 C 
BRANCH  19  20
ATOM     20  O   UNL     1     -34.226 -51.647  54.825  0.00  0.00    +0.000 OA
ATOM     21  H   UNL     1     -33.967 -52.588  54.899  0.00  0.00    +0.000 HD
ENDBRANCH  19  20
ENDBRANCH  17  19
ENDBRANCH  15  16
ENDBRANCH  14  15
ENDBRANCH   1  13
TORSDOF 5
ENDMDL
MODEL 4
REMARK VINA RESULT:      -5.1      4.481      6.674
REMARK  Name = 85668777_Hyaluronidase.pdbqt.pdb
REMARK  5 active torsions:
REMARK  status: ('A' for Active; 'I' for Inactive)
REMARK    1  A    between atoms: N_1  and  C_13
REMARK    2  A    between atoms: C_14  and  C_15
REMARK    3  A    between atoms: C_15  and  C_16
REMARK    4  A    between atoms: C_17  and  C_19
REMARK    5  A    between atoms: C_19  and  O_20
REMARK                            x       y       z     vdW  Elec       q    Type
REMARK                         _______ _______ _______ _____ _____    ______ ____
ROOT
ATOM      1  N   UNL     1     -40.382 -40.691  48.641  0.00  0.00    +0.000 N 
ATOM      2  C   UNL     1     -41.239 -38.922  47.230  0.00  0.00    +0.000 C 
ATOM      3  C   UNL     1     -42.309 -39.502  48.155  0.00  0.00    +0.000 A 
ATOM      4  C   UNL     1     -39.992 -39.794  47.645  0.00  0.00    +0.000 C 
ATOM      5  C   UNL     1     -41.744 -40.524  48.945  0.00  0.00    +0.000 A 
ATOM      6  C   UNL     1     -41.663 -39.158  45.745  0.00  0.00    +0.000 C 
ATOM      7  C   UNL     1     -41.042 -37.408  47.563  0.00  0.00    +0.000 C 
ATOM      8  C   UNL     1     -43.647 -39.159  48.281  0.00  0.00    +0.000 A 
ATOM      9  C   UNL     1     -42.509 -41.213  49.870  0.00  0.00    +0.000 A 
ATOM     10  C   UNL     1     -38.724 -39.765  47.185  0.00  0.00    +0.000 C 
ATOM     11  C   UNL     1     -44.417 -39.854  49.213  0.00  0.00    +0.000 A 
ATOM     12  C   UNL     1     -43.854 -40.869  49.998  0.00  0.00    +0.000 A 
ENDROOT
BRANCH   1  13
ATOM     13  C   UNL     1     -39.533 -41.662  49.288  0.00  0.00    +0.000 C 
ATOM     14  C   UNL     1     -38.634 -42.692  49.978  0.00  0.00    +0.000 C 
BRANCH  14  15
ATOM     15  C   UNL     1     -37.736 -43.722  50.670  0.00  0.00    +0.000 C 
BRANCH  15  16
ATOM     16  C   UNL     1     -36.839 -44.752  51.362  0.00  0.00    +0.000 C 
ATOM     17  C   UNL     1     -35.942 -45.783  52.055  0.00  0.00    +0.000 C 
BRANCH  17  19
ATOM     18  O   UNL     1     -35.319 -47.946  52.680  0.00  0.00    +0.000 OA
ATOM     19  C   UNL     1     -35.105 -46.746  52.704  0.00  0.00    +0.000 C 
BRANCH  19  20
ATOM     20  O   UNL     1     -34.054 -46.212  53.350  0.00  0.00    +0.000 OA
ATOM     21  H   UNL     1     -34.017 -45.294  53.012  0.00  0.00    +0.000 HD
ENDBRANCH  19  20
ENDBRANCH  17  19
ENDBRANCH  15  16
ENDBRANCH  14  15
ENDBRANCH   1  13
TORSDOF 5
ENDMDL
MODEL 5
REMARK VINA RESULT:      -5.1     21.200     23.424
REMARK  Name = 85668777_Hyaluronidase.pdbqt.pdb
REMARK  5 active torsions:
REMARK  status: ('A' for Active; 'I' for Inactive)
REMARK    1  A    between atoms: N_1  and  C_13
REMARK    2  A    between atoms: C_14  and  C_15
REMARK    3  A    between atoms: C_15  and  C_16
REMARK    4  A    between atoms: C_17  and  C_19
REMARK    5  A    between atoms: C_19  and  O_20
REMARK                            x       y       z     vdW  Elec       q    Type
REMARK                         _______ _______ _______ _____ _____    ______ ____
ROOT
ATOM      1  N   UNL     1     -41.892 -56.699  35.615  0.00  0.00    +0.000 N 
ATOM      2  C   UNL     1     -40.569 -55.179  34.276  0.00  0.00    +0.000 C 
ATOM      3  C   UNL     1     -41.934 -54.599  34.642  0.00  0.00    +0.000 A 
ATOM      4  C   UNL     1     -40.653 -56.587  34.983  0.00  0.00    +0.000 C 
ATOM      5  C   UNL     1     -42.651 -55.533  35.419  0.00  0.00    +0.000 A 
ATOM      6  C   UNL     1     -40.463 -55.298  32.723  0.00  0.00    +0.000 C 
ATOM      7  C   UNL     1     -39.449 -54.275  34.886  0.00  0.00    +0.000 C 
ATOM      8  C   UNL     1     -42.486 -53.367  34.317  0.00  0.00    +0.000 A 
ATOM      9  C   UNL     1     -43.923 -55.247  35.880  0.00  0.00    +0.000 A 
ATOM     10  C   UNL     1     -39.748 -57.586  35.032  0.00  0.00    +0.000 C 
ATOM     11  C   UNL     1     -43.769 -53.080  34.782  0.00  0.00    +0.000 A 
ATOM     12  C   UNL     1     -44.479 -54.009  35.555  0.00  0.00    +0.000 A 
ENDROOT
BRANCH   1  13
ATOM     13  C   UNL     1     -42.358 -57.836  36.373  0.00  0.00    +0.000 C 
ATOM     14  C   UNL     1     -42.848 -59.044  37.177  0.00  0.00    +0.000 C 
BRANCH  14  15
ATOM     15  C   UNL     1     -43.336 -60.253  37.981  0.00  0.00    +0.000 C 
BRANCH  15  16
ATOM     16  C   UNL     1     -43.824 -61.461  38.785  0.00  0.00    +0.000 C 
ATOM     17  C   UNL     1     -44.312 -62.670  39.589  0.00  0.00    +0.000 C 
BRANCH  17  19
ATOM     18  O   UNL     1     -45.721 -64.486  40.012  0.00  0.00    +0.000 OA
ATOM     19  C   UNL     1     -44.767 -63.801  40.340  0.00  0.00    +0.000 C 
BRANCH  19  20
ATOM     20  O   UNL     1     -44.048 -64.048  41.449  0.00  0.00    +0.000 OA
ATOM     21  H   UNL     1     -44.229 -64.990  41.638  0.00  0.00    +0.000 HD
ENDBRANCH  19  20
ENDBRANCH  17  19
ENDBRANCH  15  16
ENDBRANCH  14  15
ENDBRANCH   1  13
TORSDOF 5
ENDMDL
MODEL 6
REMARK VINA RESULT:      -5.0      1.759      3.496
REMARK  Name = 85668777_Hyaluronidase.pdbqt.pdb
REMARK  5 active torsions:
REMARK  status: ('A' for Active; 'I' for Inactive)
REMARK    1  A    between atoms: N_1  and  C_13
REMARK    2  A    between atoms: C_14  and  C_15
REMARK    3  A    between atoms: C_15  and  C_16
REMARK    4  A    between atoms: C_17  and  C_19
REMARK    5  A    between atoms: C_19  and  O_20
REMARK                            x       y       z     vdW  Elec       q    Type
REMARK                         _______ _______ _______ _____ _____    ______ ____
ROOT
ATOM      1  N   UNL     1     -44.204 -39.135  50.599  0.00  0.00    +0.000 N 
ATOM      2  C   UNL     1     -45.888 -37.863  51.784  0.00  0.00    +0.000 C 
ATOM      3  C   UNL     1     -46.197 -37.997  50.293  0.00  0.00    +0.000 A 
ATOM      4  C   UNL     1     -44.532 -38.665  51.872  0.00  0.00    +0.000 C 
ATOM      5  C   UNL     1     -45.180 -38.746  49.666  0.00  0.00    +0.000 A 
ATOM      6  C   UNL     1     -45.710 -36.352  52.136  0.00  0.00    +0.000 C 
ATOM      7  C   UNL     1     -47.031 -38.540  52.606  0.00  0.00    +0.000 C 
ATOM      8  C   UNL     1     -47.272 -37.503  49.567  0.00  0.00    +0.000 A 
ATOM      9  C   UNL     1     -45.226 -39.010  48.308  0.00  0.00    +0.000 A 
ATOM     10  C   UNL     1     -43.741 -38.914  52.936  0.00  0.00    +0.000 C 
ATOM     11  C   UNL     1     -47.316 -37.770  48.199  0.00  0.00    +0.000 A 
ATOM     12  C   UNL     1     -46.305 -38.515  47.577  0.00  0.00    +0.000 A 
ENDROOT
BRANCH   1  13
ATOM     13  C   UNL     1     -43.039 -39.914  50.256  0.00  0.00    +0.000 C 
ATOM     14  C   UNL     1     -41.799 -40.737  49.894  0.00  0.00    +0.000 C 
BRANCH  14  15
ATOM     15  C   UNL     1     -40.558 -41.559  49.531  0.00  0.00    +0.000 C 
BRANCH  15  16
ATOM     16  C   UNL     1     -39.318 -42.380  49.168  0.00  0.00    +0.000 C 
ATOM     17  C   UNL     1     -38.077 -43.202  48.806  0.00  0.00    +0.000 C 
BRANCH  17  19
ATOM     18  O   UNL     1     -36.016 -43.552  47.761  0.00  0.00    +0.000 OA
ATOM     19  C   UNL     1     -36.918 -43.971  48.466  0.00  0.00    +0.000 C 
BRANCH  19  20
ATOM     20  O   UNL     1     -36.907 -45.208  48.995  0.00  0.00    +0.000 OA
ATOM     21  H   UNL     1     -37.856 -45.422  49.101  0.00  0.00    +0.000 HD
ENDBRANCH  19  20
ENDBRANCH  17  19
ENDBRANCH  15  16
ENDBRANCH  14  15
ENDBRANCH   1  13
TORSDOF 5
ENDMDL
MODEL 7
REMARK VINA RESULT:      -5.0      2.572      3.623
REMARK  Name = 85668777_Hyaluronidase.pdbqt.pdb
REMARK  5 active torsions:
REMARK  status: ('A' for Active; 'I' for Inactive)
REMARK    1  A    between atoms: N_1  and  C_13
REMARK    2  A    between atoms: C_14  and  C_15
REMARK    3  A    between atoms: C_15  and  C_16
REMARK    4  A    between atoms: C_17  and  C_19
REMARK    5  A    between atoms: C_19  and  O_20
REMARK                            x       y       z     vdW  Elec       q    Type
REMARK                         _______ _______ _______ _____ _____    ______ ____
ROOT
ATOM      1  N   UNL     1     -43.316 -39.287  48.688  0.00  0.00    +0.000 N 
ATOM      2  C   UNL     1     -44.966 -37.916  49.808  0.00  0.00    +0.000 C 
ATOM      3  C   UNL     1     -44.692 -39.224  50.549  0.00  0.00    +0.000 A 
ATOM      4  C   UNL     1     -43.987 -38.068  48.580  0.00  0.00    +0.000 C 
ATOM      5  C   UNL     1     -43.726 -39.972  49.844  0.00  0.00    +0.000 A 
ATOM      6  C   UNL     1     -46.465 -37.876  49.374  0.00  0.00    +0.000 C 
ATOM      7  C   UNL     1     -44.577 -36.716  50.731  0.00  0.00    +0.000 C 
ATOM      8  C   UNL     1     -45.246 -39.704  51.728  0.00  0.00    +0.000 A 
ATOM      9  C   UNL     1     -43.303 -41.204  50.309  0.00  0.00    +0.000 A 
ATOM     10  C   UNL     1     -43.759 -37.231  47.547  0.00  0.00    +0.000 C 
ATOM     11  C   UNL     1     -44.819 -40.946  52.195  0.00  0.00    +0.000 A 
ATOM     12  C   UNL     1     -43.858 -41.687  51.494  0.00  0.00    +0.000 A 
ENDROOT
BRANCH   1  13
ATOM     13  C   UNL     1     -42.334 -39.799  47.763  0.00  0.00    +0.000 C 
ATOM     14  C   UNL     1     -41.291 -40.338  46.780  0.00  0.00    +0.000 C 
BRANCH  14  15
ATOM     15  C   UNL     1     -40.247 -40.876  45.795  0.00  0.00    +0.000 C 
BRANCH  15  16
ATOM     16  C   UNL     1     -39.205 -41.415  44.811  0.00  0.00    +0.000 C 
ATOM     17  C   UNL     1     -38.163 -41.954  43.827  0.00  0.00    +0.000 C 
BRANCH  17  19
ATOM     18  O   UNL     1     -36.194 -41.839  42.574  0.00  0.00    +0.000 OA
ATOM     19  C   UNL     1     -37.191 -42.458  42.905  0.00  0.00    +0.000 C 
BRANCH  19  20
ATOM     20  O   UNL     1     -37.471 -43.684  42.429  0.00  0.00    +0.000 OA
ATOM     21  H   UNL     1     -36.664 -44.200  42.630  0.00  0.00    +0.000 HD
ENDBRANCH  19  20
ENDBRANCH  17  19
ENDBRANCH  15  16
ENDBRANCH  14  15
ENDBRANCH   1  13
TORSDOF 5
ENDMDL
MODEL 8
REMARK VINA RESULT:      -4.8      7.930     10.156
REMARK  Name = 85668777_Hyaluronidase.pdbqt.pdb
REMARK  5 active torsions:
REMARK  status: ('A' for Active; 'I' for Inactive)
REMARK    1  A    between atoms: N_1  and  C_13
REMARK    2  A    between atoms: C_14  and  C_15
REMARK    3  A    between atoms: C_15  and  C_16
REMARK    4  A    between atoms: C_17  and  C_19
REMARK    5  A    between atoms: C_19  and  O_20
REMARK                            x       y       z     vdW  Elec       q    Type
REMARK                         _______ _______ _______ _____ _____    ______ ____
ROOT
ATOM      1  N   UNL     1     -37.070 -42.211  47.900  0.00  0.00    +0.000 N 
ATOM      2  C   UNL     1     -37.207 -40.189  46.577  0.00  0.00    +0.000 C 
ATOM      3  C   UNL     1     -38.515 -40.980  46.574  0.00  0.00    +0.000 A 
ATOM      4  C   UNL     1     -36.314 -41.108  47.498  0.00  0.00    +0.000 C 
ATOM      5  C   UNL     1     -38.365 -42.141  47.360  0.00  0.00    +0.000 A 
ATOM      6  C   UNL     1     -36.660 -40.098  45.117  0.00  0.00    +0.000 C 
ATOM      7  C   UNL     1     -37.462 -38.783  47.210  0.00  0.00    +0.000 C 
ATOM      8  C   UNL     1     -39.715 -40.699  45.937  0.00  0.00    +0.000 A 
ATOM      9  C   UNL     1     -39.412 -43.032  47.520  0.00  0.00    +0.000 A 
ATOM     10  C   UNL     1     -35.033 -40.954  47.892  0.00  0.00    +0.000 C 
ATOM     11  C   UNL     1     -40.769 -41.598  46.098  0.00  0.00    +0.000 A 
ATOM     12  C   UNL     1     -40.619 -42.750  46.881  0.00  0.00    +0.000 A 
ENDROOT
BRANCH   1  13
ATOM     13  C   UNL     1     -36.616 -43.285  48.751  0.00  0.00    +0.000 C 
ATOM     14  C   UNL     1     -36.138 -44.428  49.652  0.00  0.00    +0.000 C 
BRANCH  14  15
ATOM     15  C   UNL     1     -35.662 -45.571  50.553  0.00  0.00    +0.000 C 
BRANCH  15  16
ATOM     16  C   UNL     1     -35.187 -46.713  51.454  0.00  0.00    +0.000 C 
ATOM     17  C   UNL     1     -34.711 -47.857  52.357  0.00  0.00    +0.000 C 
BRANCH  17  19
ATOM     18  O   UNL     1     -33.094 -49.198  53.378  0.00  0.00    +0.000 OA
ATOM     19  C   UNL     1     -34.269 -48.925  53.200  0.00  0.00    +0.000 C 
BRANCH  19  20
ATOM     20  O   UNL     1     -35.267 -49.611  53.785  0.00  0.00    +0.000 OA
ATOM     21  H   UNL     1     -35.252 -50.476  53.329  0.00  0.00    +0.000 HD
ENDBRANCH  19  20
ENDBRANCH  17  19
ENDBRANCH  15  16
ENDBRANCH  14  15
ENDBRANCH   1  13
TORSDOF 5
ENDMDL
MODEL 9
REMARK VINA RESULT:      -4.8      1.166      3.189
REMARK  Name = 85668777_Hyaluronidase.pdbqt.pdb
REMARK  5 active torsions:
REMARK  status: ('A' for Active; 'I' for Inactive)
REMARK    1  A    between atoms: N_1  and  C_13
REMARK    2  A    between atoms: C_14  and  C_15
REMARK    3  A    between atoms: C_15  and  C_16
REMARK    4  A    between atoms: C_17  and  C_19
REMARK    5  A    between atoms: C_19  and  O_20
REMARK                            x       y       z     vdW  Elec       q    Type
REMARK                         _______ _______ _______ _____ _____    ______ ____
ROOT
ATOM      1  N   UNL     1     -46.665 -38.129  50.887  0.00  0.00    +0.000 N 
ATOM      2  C   UNL     1     -48.110 -37.086  52.524  0.00  0.00    +0.000 C 
ATOM      3  C   UNL     1     -48.588 -36.856  51.091  0.00  0.00    +0.000 A 
ATOM      4  C   UNL     1     -46.816 -37.951  52.263  0.00  0.00    +0.000 C 
ATOM      5  C   UNL     1     -47.704 -37.487  50.192  0.00  0.00    +0.000 A 
ATOM      6  C   UNL     1     -47.782 -35.708  53.182  0.00  0.00    +0.000 C 
ATOM      7  C   UNL     1     -49.205 -37.879  53.307  0.00  0.00    +0.000 C 
ATOM      8  C   UNL     1     -49.695 -36.156  50.632  0.00  0.00    +0.000 A 
ATOM      9  C   UNL     1     -47.915 -37.427  48.826  0.00  0.00    +0.000 A 
ATOM     10  C   UNL     1     -45.936 -38.478  53.140  0.00  0.00    +0.000 C 
ATOM     11  C   UNL     1     -49.907 -36.096  49.255  0.00  0.00    +0.000 A 
ATOM     12  C   UNL     1     -49.028 -36.725  48.363  0.00  0.00    +0.000 A 
ENDROOT
BRANCH   1  13
ATOM     13  C   UNL     1     -45.605 -38.863  50.239  0.00  0.00    +0.000 C 
ATOM     14  C   UNL     1     -44.482 -39.641  49.546  0.00  0.00    +0.000 C 
BRANCH  14  15
ATOM     15  C   UNL     1     -43.360 -40.419  48.852  0.00  0.00    +0.000 C 
BRANCH  15  16
ATOM     16  C   UNL     1     -42.238 -41.197  48.159  0.00  0.00    +0.000 C 
ATOM     17  C   UNL     1     -41.114 -41.974  47.466  0.00  0.00    +0.000 C 
BRANCH  17  19
ATOM     18  O   UNL     1     -39.588 -42.382  45.745  0.00  0.00    +0.000 OA
ATOM     19  C   UNL     1     -40.064 -42.703  46.820  0.00  0.00    +0.000 C 
BRANCH  19  20
ATOM     20  O   UNL     1     -39.644 -43.781  47.505  0.00  0.00    +0.000 OA
ATOM     21  H   UNL     1     -38.780 -43.991  47.097  0.00  0.00    +0.000 HD
ENDBRANCH  19  20
ENDBRANCH  17  19
ENDBRANCH  15  16
ENDBRANCH  14  15
ENDBRANCH   1  13
TORSDOF 5
ENDMDL
