MODEL 1
REMARK VINA RESULT:      -5.6      0.000      0.000
REMARK  Name = 86311066_OplopantriolA.pdbqt.pdb
REMARK  12 active torsions:
REMARK  status: ('A' for Active; 'I' for Inactive)
REMARK    1  A    between atoms: C_1  and  C_3
REMARK    2  A    between atoms: C_2  and  C_13
REMARK    3  A    between atoms: C_4  and  C_5
REMARK    4  A    between atoms: C_6  and  C_7
REMARK    5  A    between atoms: C_8  and  C_9
REMARK    6  A    between atoms: C_10  and  O_11
REMARK    7  A    between atoms: C_13  and  O_14
REMARK    8  A    between atoms: C_13  and  C_16
REMARK    9  A    between atoms: C_17  and  C_18
REMARK   10  A    between atoms: C_19  and  C_20
REMARK   11  A    between atoms: C_20  and  C_21
REMARK   12  A    between atoms: C_20  and  O_23
REMARK                            x       y       z     vdW  Elec       q    Type
REMARK                         _______ _______ _______ _____ _____    ______ ____
ROOT
ATOM      1  C   UNL     1     -64.031 -68.990  29.374  0.00  0.00    +0.000 C 
ATOM      2  C   UNL     1     -64.072 -69.454  28.267  0.00  0.00    +0.000 C 
ENDROOT
BRANCH   1   3
ATOM      3  C   UNL     1     -63.978 -68.399  30.785  0.00  0.00    +0.000 C 
ATOM      4  C   UNL     1     -63.924 -67.807  32.197  0.00  0.00    +0.000 C 
BRANCH   4   5
ATOM      5  C   UNL     1     -63.870 -67.216  33.609  0.00  0.00    +0.000 C 
ATOM      6  C   UNL     1     -63.816 -66.626  35.022  0.00  0.00    +0.000 C 
BRANCH   6   7
ATOM      7  C   UNL     1     -63.763 -66.036  36.434  0.00  0.00    +0.000 C 
ATOM      8  C   UNL     1     -63.709 -65.446  37.847  0.00  0.00    +0.000 C 
BRANCH   8   9
ATOM      9  C   UNL     1     -63.655 -64.854  39.258  0.00  0.00    +0.000 C 
ATOM     10  C   UNL     1     -63.601 -64.263  40.670  0.00  0.00    +0.000 C 
BRANCH  10  11
ATOM     11  O   UNL     1     -63.553 -63.750  41.894  0.00  0.00    +0.000 OA
ATOM     12  H   UNL     1     -62.977 -64.287  42.464  0.00  0.00    +0.000 HD
ENDBRANCH  10  11
ENDBRANCH   8   9
ENDBRANCH   6   7
ENDBRANCH   4   5
ENDBRANCH   1   3
BRANCH   2  13
ATOM     13  C   UNL     1     -64.121 -70.002  26.962  0.00  0.00    +0.000 C 
BRANCH  13  14
ATOM     14  O   UNL     1     -65.359 -70.320  26.452  0.00  0.00    +0.000 OA
ATOM     15  H   UNL     1     -65.462 -71.279  26.334  0.00  0.00    +0.000 HD
ENDBRANCH  13  14
BRANCH  13  16
ATOM     16  C   UNL     1     -62.973 -70.236  26.163  0.00  0.00    +0.000 C 
ATOM     17  C   UNL     1     -62.001 -70.434  25.486  0.00  0.00    +0.000 C 
BRANCH  17  18
ATOM     18  C   UNL     1     -60.763 -70.685  24.621  0.00  0.00    +0.000 C 
ATOM     19  C   UNL     1     -59.792 -70.882  23.943  0.00  0.00    +0.000 C 
BRANCH  19  20
ATOM     20  C   UNL     1     -58.643 -71.114  23.141  0.00  0.00    +0.000 C 
BRANCH  20  21
ATOM     21  C   UNL     1     -57.447 -71.700  23.641  0.00  0.00    +0.000 C 
ATOM     22  C   UNL     1     -56.329 -72.263  24.104  0.00  0.00    +0.000 C 
ENDBRANCH  20  21
BRANCH  20  23
ATOM     23  O   UNL     1     -58.690 -70.752  21.810  0.00  0.00    +0.000 OA
ATOM     24  H   UNL     1     -57.801 -70.694  21.419  0.00  0.00    +0.000 HD
ENDBRANCH  20  23
ENDBRANCH  19  20
ENDBRANCH  17  18
ENDBRANCH  13  16
ENDBRANCH   2  13
TORSDOF 12
ENDMDL
MODEL 2
REMARK VINA RESULT:      -4.9     40.334     45.180
REMARK  Name = 86311066_OplopantriolA.pdbqt.pdb
REMARK  12 active torsions:
REMARK  status: ('A' for Active; 'I' for Inactive)
REMARK    1  A    between atoms: C_1  and  C_3
REMARK    2  A    between atoms: C_2  and  C_13
REMARK    3  A    between atoms: C_4  and  C_5
REMARK    4  A    between atoms: C_6  and  C_7
REMARK    5  A    between atoms: C_8  and  C_9
REMARK    6  A    between atoms: C_10  and  O_11
REMARK    7  A    between atoms: C_13  and  O_14
REMARK    8  A    between atoms: C_13  and  C_16
REMARK    9  A    between atoms: C_17  and  C_18
REMARK   10  A    between atoms: C_19  and  C_20
REMARK   11  A    between atoms: C_20  and  C_21
REMARK   12  A    between atoms: C_20  and  O_23
REMARK                            x       y       z     vdW  Elec       q    Type
REMARK                         _______ _______ _______ _____ _____    ______ ____
ROOT
ATOM      1  C   UNL     1     -31.930 -52.070  55.764  0.00  0.00    +0.000 C 
ATOM      2  C   UNL     1     -32.568 -51.826  54.776  0.00  0.00    +0.000 C 
ENDROOT
BRANCH   1   3
ATOM      3  C   UNL     1     -31.119 -52.380  57.025  0.00  0.00    +0.000 C 
ATOM      4  C   UNL     1     -30.307 -52.690  58.286  0.00  0.00    +0.000 C 
BRANCH   4   5
ATOM      5  C   UNL     1     -29.495 -52.999  59.548  0.00  0.00    +0.000 C 
ATOM      6  C   UNL     1     -28.685 -53.308  60.810  0.00  0.00    +0.000 C 
BRANCH   6   7
ATOM      7  C   UNL     1     -27.874 -53.617  62.072  0.00  0.00    +0.000 C 
ATOM      8  C   UNL     1     -27.063 -53.926  63.334  0.00  0.00    +0.000 C 
BRANCH   8   9
ATOM      9  C   UNL     1     -26.251 -54.236  64.596  0.00  0.00    +0.000 C 
ATOM     10  C   UNL     1     -25.439 -54.547  65.857  0.00  0.00    +0.000 C 
BRANCH  10  11
ATOM     11  O   UNL     1     -24.736 -54.816  66.950  0.00  0.00    +0.000 OA
ATOM     12  H   UNL     1     -24.320 -54.006  67.292  0.00  0.00    +0.000 HD
ENDBRANCH  10  11
ENDBRANCH   8   9
ENDBRANCH   6   7
ENDBRANCH   4   5
ENDBRANCH   1   3
BRANCH   2  13
ATOM     13  C   UNL     1     -33.319 -51.538  53.610  0.00  0.00    +0.000 C 
BRANCH  13  14
ATOM     14  O   UNL     1     -33.553 -52.571  52.732  0.00  0.00    +0.000 OA
ATOM     15  H   UNL     1     -33.973 -53.328  53.175  0.00  0.00    +0.000 HD
ENDBRANCH  13  14
BRANCH  13  16
ATOM     16  C   UNL     1     -33.836 -50.252  53.305  0.00  0.00    +0.000 C 
ATOM     17  C   UNL     1     -34.274 -49.164  53.048  0.00  0.00    +0.000 C 
BRANCH  17  18
ATOM     18  C   UNL     1     -34.833 -47.777  52.722  0.00  0.00    +0.000 C 
ATOM     19  C   UNL     1     -35.272 -46.689  52.467  0.00  0.00    +0.000 C 
BRANCH  19  20
ATOM     20  C   UNL     1     -35.790 -45.402  52.163  0.00  0.00    +0.000 C 
BRANCH  20  21
ATOM     21  C   UNL     1     -36.796 -45.175  51.183  0.00  0.00    +0.000 C 
ATOM     22  C   UNL     1     -37.735 -44.948  50.262  0.00  0.00    +0.000 C 
ENDBRANCH  20  21
BRANCH  20  23
ATOM     23  O   UNL     1     -35.291 -44.316  52.854  0.00  0.00    +0.000 OA
ATOM     24  H   UNL     1     -35.697 -44.229  53.734  0.00  0.00    +0.000 HD
ENDBRANCH  20  23
ENDBRANCH  19  20
ENDBRANCH  17  18
ENDBRANCH  13  16
ENDBRANCH   2  13
TORSDOF 12
ENDMDL
MODEL 3
REMARK VINA RESULT:      -4.8      5.521      7.950
REMARK  Name = 86311066_OplopantriolA.pdbqt.pdb
REMARK  12 active torsions:
REMARK  status: ('A' for Active; 'I' for Inactive)
REMARK    1  A    between atoms: C_1  and  C_3
REMARK    2  A    between atoms: C_2  and  C_13
REMARK    3  A    between atoms: C_4  and  C_5
REMARK    4  A    between atoms: C_6  and  C_7
REMARK    5  A    between atoms: C_8  and  C_9
REMARK    6  A    between atoms: C_10  and  O_11
REMARK    7  A    between atoms: C_13  and  O_14
REMARK    8  A    between atoms: C_13  and  C_16
REMARK    9  A    between atoms: C_17  and  C_18
REMARK   10  A    between atoms: C_19  and  C_20
REMARK   11  A    between atoms: C_20  and  C_21
REMARK   12  A    between atoms: C_20  and  O_23
REMARK                            x       y       z     vdW  Elec       q    Type
REMARK                         _______ _______ _______ _____ _____    ______ ____
ROOT
ATOM      1  C   UNL     1     -63.261 -67.692  35.643  0.00  0.00    +0.000 C 
ATOM      2  C   UNL     1     -63.582 -67.193  34.599  0.00  0.00    +0.000 C 
ENDROOT
BRANCH   1   3
ATOM      3  C   UNL     1     -62.853 -68.329  36.974  0.00  0.00    +0.000 C 
ATOM      4  C   UNL     1     -62.443 -68.968  38.304  0.00  0.00    +0.000 C 
BRANCH   4   5
ATOM      5  C   UNL     1     -62.034 -69.607  39.635  0.00  0.00    +0.000 C 
ATOM      6  C   UNL     1     -61.623 -70.245  40.965  0.00  0.00    +0.000 C 
BRANCH   6   7
ATOM      7  C   UNL     1     -61.212 -70.884  42.295  0.00  0.00    +0.000 C 
ATOM      8  C   UNL     1     -60.802 -71.524  43.625  0.00  0.00    +0.000 C 
BRANCH   8   9
ATOM      9  C   UNL     1     -60.390 -72.163  44.954  0.00  0.00    +0.000 C 
ATOM     10  C   UNL     1     -59.978 -72.803  46.284  0.00  0.00    +0.000 C 
BRANCH  10  11
ATOM     11  O   UNL     1     -59.621 -73.357  47.436  0.00  0.00    +0.000 OA
ATOM     12  H   UNL     1     -60.159 -74.148  47.612  0.00  0.00    +0.000 HD
ENDBRANCH  10  11
ENDBRANCH   8   9
ENDBRANCH   6   7
ENDBRANCH   4   5
ENDBRANCH   1   3
BRANCH   2  13
ATOM     13  C   UNL     1     -63.961 -66.603  33.368  0.00  0.00    +0.000 C 
BRANCH  13  14
ATOM     14  O   UNL     1     -64.346 -65.282  33.387  0.00  0.00    +0.000 OA
ATOM     15  H   UNL     1     -65.294 -65.183  33.196  0.00  0.00    +0.000 HD
ENDBRANCH  13  14
BRANCH  13  16
ATOM     16  C   UNL     1     -63.964 -67.298  32.131  0.00  0.00    +0.000 C 
ATOM     17  C   UNL     1     -63.966 -67.886  31.084  0.00  0.00    +0.000 C 
BRANCH  17  18
ATOM     18  C   UNL     1     -63.966 -68.638  29.750  0.00  0.00    +0.000 C 
ATOM     19  C   UNL     1     -63.967 -69.227  28.704  0.00  0.00    +0.000 C 
BRANCH  19  20
ATOM     20  C   UNL     1     -63.966 -69.924  27.467  0.00  0.00    +0.000 C 
BRANCH  20  21
ATOM     21  C   UNL     1     -65.149 -70.213  26.732  0.00  0.00    +0.000 C 
ATOM     22  C   UNL     1     -66.253 -70.497  26.037  0.00  0.00    +0.000 C 
ENDBRANCH  20  21
BRANCH  20  23
ATOM     23  O   UNL     1     -62.755 -70.342  26.951  0.00  0.00    +0.000 OA
ATOM     24  H   UNL     1     -62.866 -71.058  26.303  0.00  0.00    +0.000 HD
ENDBRANCH  20  23
ENDBRANCH  19  20
ENDBRANCH  17  18
ENDBRANCH  13  16
ENDBRANCH   2  13
TORSDOF 12
ENDMDL
MODEL 4
REMARK VINA RESULT:      -4.5     16.326     20.712
REMARK  Name = 86311066_OplopantriolA.pdbqt.pdb
REMARK  12 active torsions:
REMARK  status: ('A' for Active; 'I' for Inactive)
REMARK    1  A    between atoms: C_1  and  C_3
REMARK    2  A    between atoms: C_2  and  C_13
REMARK    3  A    between atoms: C_4  and  C_5
REMARK    4  A    between atoms: C_6  and  C_7
REMARK    5  A    between atoms: C_8  and  C_9
REMARK    6  A    between atoms: C_10  and  O_11
REMARK    7  A    between atoms: C_13  and  O_14
REMARK    8  A    between atoms: C_13  and  C_16
REMARK    9  A    between atoms: C_17  and  C_18
REMARK   10  A    between atoms: C_19  and  C_20
REMARK   11  A    between atoms: C_20  and  C_21
REMARK   12  A    between atoms: C_20  and  O_23
REMARK                            x       y       z     vdW  Elec       q    Type
REMARK                         _______ _______ _______ _____ _____    ______ ____
ROOT
ATOM      1  C   UNL     1     -46.871 -66.490  29.848  0.00  0.00    +0.000 C 
ATOM      2  C   UNL     1     -47.133 -67.406  30.579  0.00  0.00    +0.000 C 
ENDROOT
BRANCH   1   3
ATOM      3  C   UNL     1     -46.537 -65.323  28.915  0.00  0.00    +0.000 C 
ATOM      4  C   UNL     1     -46.201 -64.156  27.982  0.00  0.00    +0.000 C 
BRANCH   4   5
ATOM      5  C   UNL     1     -45.865 -62.988  27.049  0.00  0.00    +0.000 C 
ATOM      6  C   UNL     1     -45.531 -61.821  26.116  0.00  0.00    +0.000 C 
BRANCH   6   7
ATOM      7  C   UNL     1     -45.196 -60.653  25.183  0.00  0.00    +0.000 C 
ATOM      8  C   UNL     1     -44.861 -59.486  24.249  0.00  0.00    +0.000 C 
BRANCH   8   9
ATOM      9  C   UNL     1     -44.525 -58.318  23.317  0.00  0.00    +0.000 C 
ATOM     10  C   UNL     1     -44.189 -57.150  22.385  0.00  0.00    +0.000 C 
BRANCH  10  11
ATOM     11  O   UNL     1     -43.897 -56.138  21.577  0.00  0.00    +0.000 OA
ATOM     12  H   UNL     1     -43.133 -56.359  21.020  0.00  0.00    +0.000 HD
ENDBRANCH  10  11
ENDBRANCH   8   9
ENDBRANCH   6   7
ENDBRANCH   4   5
ENDBRANCH   1   3
BRANCH   2  13
ATOM     13  C   UNL     1     -47.441 -68.486  31.443  0.00  0.00    +0.000 C 
BRANCH  13  14
ATOM     14  O   UNL     1     -48.285 -69.462  30.964  0.00  0.00    +0.000 OA
ATOM     15  H   UNL     1     -48.227 -69.543  29.998  0.00  0.00    +0.000 HD
ENDBRANCH  13  14
BRANCH  13  16
ATOM     16  C   UNL     1     -46.930 -68.610  32.761  0.00  0.00    +0.000 C 
ATOM     17  C   UNL     1     -46.497 -68.714  33.875  0.00  0.00    +0.000 C 
BRANCH  17  18
ATOM     18  C   UNL     1     -45.945 -68.845  35.297  0.00  0.00    +0.000 C 
ATOM     19  C   UNL     1     -45.512 -68.947  36.412  0.00  0.00    +0.000 C 
BRANCH  19  20
ATOM     20  C   UNL     1     -44.998 -69.068  37.731  0.00  0.00    +0.000 C 
BRANCH  20  21
ATOM     21  C   UNL     1     -45.612 -68.469  38.866  0.00  0.00    +0.000 C 
ATOM     22  C   UNL     1     -46.190 -67.922  39.937  0.00  0.00    +0.000 C 
ENDBRANCH  20  21
BRANCH  20  23
ATOM     23  O   UNL     1     -43.845 -69.802  37.920  0.00  0.00    +0.000 OA
ATOM     24  H   UNL     1     -43.258 -69.760  37.145  0.00  0.00    +0.000 HD
ENDBRANCH  20  23
ENDBRANCH  19  20
ENDBRANCH  17  18
ENDBRANCH  13  16
ENDBRANCH   2  13
TORSDOF 12
ENDMDL
MODEL 5
REMARK VINA RESULT:      -4.5     40.460     41.917
REMARK  Name = 86311066_OplopantriolA.pdbqt.pdb
REMARK  12 active torsions:
REMARK  status: ('A' for Active; 'I' for Inactive)
REMARK    1  A    between atoms: C_1  and  C_3
REMARK    2  A    between atoms: C_2  and  C_13
REMARK    3  A    between atoms: C_4  and  C_5
REMARK    4  A    between atoms: C_6  and  C_7
REMARK    5  A    between atoms: C_8  and  C_9
REMARK    6  A    between atoms: C_10  and  O_11
REMARK    7  A    between atoms: C_13  and  O_14
REMARK    8  A    between atoms: C_13  and  C_16
REMARK    9  A    between atoms: C_17  and  C_18
REMARK   10  A    between atoms: C_19  and  C_20
REMARK   11  A    between atoms: C_20  and  C_21
REMARK   12  A    between atoms: C_20  and  O_23
REMARK                            x       y       z     vdW  Elec       q    Type
REMARK                         _______ _______ _______ _____ _____    ______ ____
ROOT
ATOM      1  C   UNL     1     -37.525 -43.292  50.622  0.00  0.00    +0.000 C 
ATOM      2  C   UNL     1     -38.096 -42.320  50.206  0.00  0.00    +0.000 C 
ENDROOT
BRANCH   1   3
ATOM      3  C   UNL     1     -36.800 -44.531  51.153  0.00  0.00    +0.000 C 
ATOM      4  C   UNL     1     -36.074 -45.771  51.683  0.00  0.00    +0.000 C 
BRANCH   4   5
ATOM      5  C   UNL     1     -35.349 -47.012  52.214  0.00  0.00    +0.000 C 
ATOM      6  C   UNL     1     -34.625 -48.253  52.745  0.00  0.00    +0.000 C 
BRANCH   6   7
ATOM      7  C   UNL     1     -33.901 -49.493  53.277  0.00  0.00    +0.000 C 
ATOM      8  C   UNL     1     -33.177 -50.734  53.809  0.00  0.00    +0.000 C 
BRANCH   8   9
ATOM      9  C   UNL     1     -32.454 -51.975  54.341  0.00  0.00    +0.000 C 
ATOM     10  C   UNL     1     -31.731 -53.216  54.872  0.00  0.00    +0.000 C 
BRANCH  10  11
ATOM     11  O   UNL     1     -31.104 -54.291  55.333  0.00  0.00    +0.000 OA
ATOM     12  H   UNL     1     -31.185 -55.027  54.702  0.00  0.00    +0.000 HD
ENDBRANCH  10  11
ENDBRANCH   8   9
ENDBRANCH   6   7
ENDBRANCH   4   5
ENDBRANCH   1   3
BRANCH   2  13
ATOM     13  C   UNL     1     -38.767 -41.173  49.716  0.00  0.00    +0.000 C 
BRANCH  13  14
ATOM     14  O   UNL     1     -38.076 -40.351  48.855  0.00  0.00    +0.000 OA
ATOM     15  H   UNL     1     -37.959 -39.460  49.227  0.00  0.00    +0.000 HD
ENDBRANCH  13  14
BRANCH  13  16
ATOM     16  C   UNL     1     -40.100 -40.832  50.064  0.00  0.00    +0.000 C 
ATOM     17  C   UNL     1     -41.227 -40.546  50.358  0.00  0.00    +0.000 C 
BRANCH  17  18
ATOM     18  C   UNL     1     -42.666 -40.182  50.735  0.00  0.00    +0.000 C 
ATOM     19  C   UNL     1     -43.794 -39.896  51.031  0.00  0.00    +0.000 C 
BRANCH  19  20
ATOM     20  C   UNL     1     -45.128 -39.557  51.380  0.00  0.00    +0.000 C 
BRANCH  20  21
ATOM     21  C   UNL     1     -45.887 -38.565  50.698  0.00  0.00    +0.000 C 
ATOM     22  C   UNL     1     -46.607 -37.646  50.052  0.00  0.00    +0.000 C 
ENDBRANCH  20  21
BRANCH  20  23
ATOM     23  O   UNL     1     -45.718 -40.223  52.436  0.00  0.00    +0.000 OA
ATOM     24  H   UNL     1     -46.673 -40.045  52.487  0.00  0.00    +0.000 HD
ENDBRANCH  20  23
ENDBRANCH  19  20
ENDBRANCH  17  18
ENDBRANCH  13  16
ENDBRANCH   2  13
TORSDOF 12
ENDMDL
MODEL 6
REMARK VINA RESULT:      -4.4     15.634     21.499
REMARK  Name = 86311066_OplopantriolA.pdbqt.pdb
REMARK  12 active torsions:
REMARK  status: ('A' for Active; 'I' for Inactive)
REMARK    1  A    between atoms: C_1  and  C_3
REMARK    2  A    between atoms: C_2  and  C_13
REMARK    3  A    between atoms: C_4  and  C_5
REMARK    4  A    between atoms: C_6  and  C_7
REMARK    5  A    between atoms: C_8  and  C_9
REMARK    6  A    between atoms: C_10  and  O_11
REMARK    7  A    between atoms: C_13  and  O_14
REMARK    8  A    between atoms: C_13  and  C_16
REMARK    9  A    between atoms: C_17  and  C_18
REMARK   10  A    between atoms: C_19  and  C_20
REMARK   11  A    between atoms: C_20  and  C_21
REMARK   12  A    between atoms: C_20  and  O_23
REMARK                            x       y       z     vdW  Elec       q    Type
REMARK                         _______ _______ _______ _____ _____    ______ ____
ROOT
ATOM      1  C   UNL     1     -47.150 -67.275  28.977  0.00  0.00    +0.000 C 
ATOM      2  C   UNL     1     -47.602 -67.057  30.069  0.00  0.00    +0.000 C 
ENDROOT
BRANCH   1   3
ATOM      3  C   UNL     1     -46.573 -67.554  27.587  0.00  0.00    +0.000 C 
ATOM      4  C   UNL     1     -45.997 -67.832  26.195  0.00  0.00    +0.000 C 
BRANCH   4   5
ATOM      5  C   UNL     1     -45.421 -68.111  24.803  0.00  0.00    +0.000 C 
ATOM      6  C   UNL     1     -44.843 -68.388  23.412  0.00  0.00    +0.000 C 
BRANCH   6   7
ATOM      7  C   UNL     1     -44.266 -68.666  22.021  0.00  0.00    +0.000 C 
ATOM      8  C   UNL     1     -43.690 -68.943  20.629  0.00  0.00    +0.000 C 
BRANCH   8   9
ATOM      9  C   UNL     1     -43.112 -69.220  19.238  0.00  0.00    +0.000 C 
ATOM     10  C   UNL     1     -42.533 -69.496  17.847  0.00  0.00    +0.000 C 
BRANCH  10  11
ATOM     11  O   UNL     1     -42.032 -69.736  16.641  0.00  0.00    +0.000 OA
ATOM     12  H   UNL     1     -41.340 -70.417  16.692  0.00  0.00    +0.000 HD
ENDBRANCH  10  11
ENDBRANCH   8   9
ENDBRANCH   6   7
ENDBRANCH   4   5
ENDBRANCH   1   3
BRANCH   2  13
ATOM     13  C   UNL     1     -48.134 -66.798  31.356  0.00  0.00    +0.000 C 
BRANCH  13  14
ATOM     14  O   UNL     1     -48.758 -67.838  32.006  0.00  0.00    +0.000 OA
ATOM     15  H   UNL     1     -48.869 -68.609  31.425  0.00  0.00    +0.000 HD
ENDBRANCH  13  14
BRANCH  13  16
ATOM     16  C   UNL     1     -48.056 -65.537  32.000  0.00  0.00    +0.000 C 
ATOM     17  C   UNL     1     -47.992 -64.469  32.546  0.00  0.00    +0.000 C 
BRANCH  17  18
ATOM     18  C   UNL     1     -47.911 -63.109  33.243  0.00  0.00    +0.000 C 
ATOM     19  C   UNL     1     -47.848 -62.042  33.790  0.00  0.00    +0.000 C 
BRANCH  19  20
ATOM     20  C   UNL     1     -47.772 -60.780  34.437  0.00  0.00    +0.000 C 
BRANCH  20  21
ATOM     21  C   UNL     1     -46.572 -60.023  34.535  0.00  0.00    +0.000 C 
ATOM     22  C   UNL     1     -45.453 -59.300  34.622  0.00  0.00    +0.000 C 
ENDBRANCH  20  21
BRANCH  20  23
ATOM     23  O   UNL     1     -48.922 -60.263  35.000  0.00  0.00    +0.000 OA
ATOM     24  H   UNL     1     -48.747 -59.848  35.862  0.00  0.00    +0.000 HD
ENDBRANCH  20  23
ENDBRANCH  19  20
ENDBRANCH  17  18
ENDBRANCH  13  16
ENDBRANCH   2  13
TORSDOF 12
ENDMDL
MODEL 7
REMARK VINA RESULT:      -4.3     27.843     30.933
REMARK  Name = 86311066_OplopantriolA.pdbqt.pdb
REMARK  12 active torsions:
REMARK  status: ('A' for Active; 'I' for Inactive)
REMARK    1  A    between atoms: C_1  and  C_3
REMARK    2  A    between atoms: C_2  and  C_13
REMARK    3  A    between atoms: C_4  and  C_5
REMARK    4  A    between atoms: C_6  and  C_7
REMARK    5  A    between atoms: C_8  and  C_9
REMARK    6  A    between atoms: C_10  and  O_11
REMARK    7  A    between atoms: C_13  and  O_14
REMARK    8  A    between atoms: C_13  and  C_16
REMARK    9  A    between atoms: C_17  and  C_18
REMARK   10  A    between atoms: C_19  and  C_20
REMARK   11  A    between atoms: C_20  and  C_21
REMARK   12  A    between atoms: C_20  and  O_23
REMARK                            x       y       z     vdW  Elec       q    Type
REMARK                         _______ _______ _______ _____ _____    ______ ____
ROOT
ATOM      1  C   UNL     1     -69.900 -59.108  58.072  0.00  0.00    +0.000 C 
ATOM      2  C   UNL     1     -70.151 -57.945  58.232  0.00  0.00    +0.000 C 
ENDROOT
BRANCH   1   3
ATOM      3  C   UNL     1     -69.582 -60.592  57.868  0.00  0.00    +0.000 C 
ATOM      4  C   UNL     1     -69.264 -62.076  57.663  0.00  0.00    +0.000 C 
BRANCH   4   5
ATOM      5  C   UNL     1     -68.947 -63.561  57.459  0.00  0.00    +0.000 C 
ATOM      6  C   UNL     1     -68.631 -65.045  57.254  0.00  0.00    +0.000 C 
BRANCH   6   7
ATOM      7  C   UNL     1     -68.315 -66.530  57.049  0.00  0.00    +0.000 C 
ATOM      8  C   UNL     1     -67.999 -68.015  56.844  0.00  0.00    +0.000 C 
BRANCH   8   9
ATOM      9  C   UNL     1     -67.681 -69.499  56.641  0.00  0.00    +0.000 C 
ATOM     10  C   UNL     1     -67.364 -70.984  56.438  0.00  0.00    +0.000 C 
BRANCH  10  11
ATOM     11  O   UNL     1     -67.089 -72.271  56.262  0.00  0.00    +0.000 OA
ATOM     12  H   UNL     1     -66.747 -72.659  57.084  0.00  0.00    +0.000 HD
ENDBRANCH  10  11
ENDBRANCH   8   9
ENDBRANCH   6   7
ENDBRANCH   4   5
ENDBRANCH   1   3
BRANCH   2  13
ATOM     13  C   UNL     1     -70.446 -56.572  58.423  0.00  0.00    +0.000 C 
BRANCH  13  14
ATOM     14  O   UNL     1     -71.189 -56.229  59.529  0.00  0.00    +0.000 OA
ATOM     15  H   UNL     1     -70.935 -56.752  60.308  0.00  0.00    +0.000 HD
ENDBRANCH  13  14
BRANCH  13  16
ATOM     16  C   UNL     1     -70.019 -55.546  57.542  0.00  0.00    +0.000 C 
ATOM     17  C   UNL     1     -69.656 -54.678  56.796  0.00  0.00    +0.000 C 
BRANCH  17  18
ATOM     18  C   UNL     1     -69.192 -53.572  55.845  0.00  0.00    +0.000 C 
ATOM     19  C   UNL     1     -68.828 -52.704  55.098  0.00  0.00    +0.000 C 
BRANCH  19  20
ATOM     20  C   UNL     1     -68.396 -51.679  54.216  0.00  0.00    +0.000 C 
BRANCH  20  21
ATOM     21  C   UNL     1     -69.233 -51.100  53.222  0.00  0.00    +0.000 C 
ATOM     22  C   UNL     1     -70.029 -50.553  52.300  0.00  0.00    +0.000 C 
ENDBRANCH  20  21
BRANCH  20  23
ATOM     23  O   UNL     1     -67.099 -51.222  54.328  0.00  0.00    +0.000 OA
ATOM     24  H   UNL     1     -66.918 -50.490  53.714  0.00  0.00    +0.000 HD
ENDBRANCH  20  23
ENDBRANCH  19  20
ENDBRANCH  17  18
ENDBRANCH  13  16
ENDBRANCH   2  13
TORSDOF 12
ENDMDL
MODEL 8
REMARK VINA RESULT:      -4.1      5.536      6.507
REMARK  Name = 86311066_OplopantriolA.pdbqt.pdb
REMARK  12 active torsions:
REMARK  status: ('A' for Active; 'I' for Inactive)
REMARK    1  A    between atoms: C_1  and  C_3
REMARK    2  A    between atoms: C_2  and  C_13
REMARK    3  A    between atoms: C_4  and  C_5
REMARK    4  A    between atoms: C_6  and  C_7
REMARK    5  A    between atoms: C_8  and  C_9
REMARK    6  A    between atoms: C_10  and  O_11
REMARK    7  A    between atoms: C_13  and  O_14
REMARK    8  A    between atoms: C_13  and  C_16
REMARK    9  A    between atoms: C_17  and  C_18
REMARK   10  A    between atoms: C_19  and  C_20
REMARK   11  A    between atoms: C_20  and  C_21
REMARK   12  A    between atoms: C_20  and  O_23
REMARK                            x       y       z     vdW  Elec       q    Type
REMARK                         _______ _______ _______ _____ _____    ______ ____
ROOT
ATOM      1  C   UNL     1     -63.200 -68.069  34.595  0.00  0.00    +0.000 C 
ATOM      2  C   UNL     1     -63.360 -68.705  33.588  0.00  0.00    +0.000 C 
ENDROOT
BRANCH   1   3
ATOM      3  C   UNL     1     -62.996 -67.260  35.878  0.00  0.00    +0.000 C 
ATOM      4  C   UNL     1     -62.793 -66.451  37.163  0.00  0.00    +0.000 C 
BRANCH   4   5
ATOM      5  C   UNL     1     -62.591 -65.641  38.447  0.00  0.00    +0.000 C 
ATOM      6  C   UNL     1     -62.387 -64.830  39.730  0.00  0.00    +0.000 C 
BRANCH   6   7
ATOM      7  C   UNL     1     -62.184 -64.019  41.014  0.00  0.00    +0.000 C 
ATOM      8  C   UNL     1     -61.980 -63.208  42.297  0.00  0.00    +0.000 C 
BRANCH   8   9
ATOM      9  C   UNL     1     -61.776 -62.399  43.581  0.00  0.00    +0.000 C 
ATOM     10  C   UNL     1     -61.572 -61.590  44.866  0.00  0.00    +0.000 C 
BRANCH  10  11
ATOM     11  O   UNL     1     -61.394 -60.888  45.979  0.00  0.00    +0.000 OA
ATOM     12  H   UNL     1     -62.247 -60.564  46.314  0.00  0.00    +0.000 HD
ENDBRANCH  10  11
ENDBRANCH   8   9
ENDBRANCH   6   7
ENDBRANCH   4   5
ENDBRANCH   1   3
BRANCH   2  13
ATOM     13  C   UNL     1     -63.550 -69.454  32.401  0.00  0.00    +0.000 C 
BRANCH  13  14
ATOM     14  O   UNL     1     -64.499 -69.005  31.511  0.00  0.00    +0.000 OA
ATOM     15  H   UNL     1     -65.356 -69.443  31.650  0.00  0.00    +0.000 HD
ENDBRANCH  13  14
BRANCH  13  16
ATOM     16  C   UNL     1     -62.820 -70.629  32.087  0.00  0.00    +0.000 C 
ATOM     17  C   UNL     1     -62.202 -71.623  31.822  0.00  0.00    +0.000 C 
BRANCH  17  18
ATOM     18  C   UNL     1     -61.412 -72.890  31.485  0.00  0.00    +0.000 C 
ATOM     19  C   UNL     1     -60.792 -73.885  31.221  0.00  0.00    +0.000 C 
BRANCH  19  20
ATOM     20  C   UNL     1     -60.058 -75.060  30.910  0.00  0.00    +0.000 C 
BRANCH  20  21
ATOM     21  C   UNL     1     -60.472 -76.003  29.928  0.00  0.00    +0.000 C 
ATOM     22  C   UNL     1     -60.854 -76.899  29.016  0.00  0.00    +0.000 C 
ENDBRANCH  20  21
BRANCH  20  23
ATOM     23  O   UNL     1     -58.884 -75.299  31.595  0.00  0.00    +0.000 OA
ATOM     24  H   UNL     1     -58.809 -74.744  32.390  0.00  0.00    +0.000 HD
ENDBRANCH  20  23
ENDBRANCH  19  20
ENDBRANCH  17  18
ENDBRANCH  13  16
ENDBRANCH   2  13
TORSDOF 12
ENDMDL
MODEL 9
REMARK VINA RESULT:      -4.1     34.299     40.277
REMARK  Name = 86311066_OplopantriolA.pdbqt.pdb
REMARK  12 active torsions:
REMARK  status: ('A' for Active; 'I' for Inactive)
REMARK    1  A    between atoms: C_1  and  C_3
REMARK    2  A    between atoms: C_2  and  C_13
REMARK    3  A    between atoms: C_4  and  C_5
REMARK    4  A    between atoms: C_6  and  C_7
REMARK    5  A    between atoms: C_8  and  C_9
REMARK    6  A    between atoms: C_10  and  O_11
REMARK    7  A    between atoms: C_13  and  O_14
REMARK    8  A    between atoms: C_13  and  C_16
REMARK    9  A    between atoms: C_17  and  C_18
REMARK   10  A    between atoms: C_19  and  C_20
REMARK   11  A    between atoms: C_20  and  C_21
REMARK   12  A    between atoms: C_20  and  O_23
REMARK                            x       y       z     vdW  Elec       q    Type
REMARK                         _______ _______ _______ _____ _____    ______ ____
ROOT
ATOM      1  C   UNL     1     -36.671 -41.616  44.011  0.00  0.00    +0.000 C 
ATOM      2  C   UNL     1     -35.936 -41.694  44.958  0.00  0.00    +0.000 C 
ENDROOT
BRANCH   1   3
ATOM      3  C   UNL     1     -37.607 -41.515  42.804  0.00  0.00    +0.000 C 
ATOM      4  C   UNL     1     -38.543 -41.416  41.595  0.00  0.00    +0.000 C 
BRANCH   4   5
ATOM      5  C   UNL     1     -39.478 -41.316  40.386  0.00  0.00    +0.000 C 
ATOM      6  C   UNL     1     -40.415 -41.218  39.178  0.00  0.00    +0.000 C 
BRANCH   6   7
ATOM      7  C   UNL     1     -41.351 -41.119  37.970  0.00  0.00    +0.000 C 
ATOM      8  C   UNL     1     -42.287 -41.021  36.761  0.00  0.00    +0.000 C 
BRANCH   8   9
ATOM      9  C   UNL     1     -43.222 -40.923  35.553  0.00  0.00    +0.000 C 
ATOM     10  C   UNL     1     -44.157 -40.826  34.344  0.00  0.00    +0.000 C 
BRANCH  10  11
ATOM     11  O   UNL     1     -44.968 -40.743  33.296  0.00  0.00    +0.000 OA
ATOM     12  H   UNL     1     -44.489 -40.960  32.479  0.00  0.00    +0.000 HD
ENDBRANCH  10  11
ENDBRANCH   8   9
ENDBRANCH   6   7
ENDBRANCH   4   5
ENDBRANCH   1   3
BRANCH   2  13
ATOM     13  C   UNL     1     -35.071 -41.785  46.076  0.00  0.00    +0.000 C 
BRANCH  13  14
ATOM     14  O   UNL     1     -33.880 -41.099  46.016  0.00  0.00    +0.000 OA
ATOM     15  H   UNL     1     -33.952 -40.221  46.425  0.00  0.00    +0.000 HD
ENDBRANCH  13  14
BRANCH  13  16
ATOM     16  C   UNL     1     -35.368 -42.540  47.241  0.00  0.00    +0.000 C 
ATOM     17  C   UNL     1     -35.619 -43.179  48.225  0.00  0.00    +0.000 C 
BRANCH  17  18
ATOM     18  C   UNL     1     -35.941 -43.995  49.480  0.00  0.00    +0.000 C 
ATOM     19  C   UNL     1     -36.193 -44.635  50.464  0.00  0.00    +0.000 C 
BRANCH  19  20
ATOM     20  C   UNL     1     -36.491 -45.391  51.629  0.00  0.00    +0.000 C 
BRANCH  20  21
ATOM     21  C   UNL     1     -35.574 -46.301  52.225  0.00  0.00    +0.000 C 
ATOM     22  C   UNL     1     -34.702 -47.145  52.781  0.00  0.00    +0.000 C 
ENDBRANCH  20  21
BRANCH  20  23
ATOM     23  O   UNL     1     -37.733 -45.235  52.211  0.00  0.00    +0.000 OA
ATOM     24  H   UNL     1     -37.773 -44.441  52.771  0.00  0.00    +0.000 HD
ENDBRANCH  20  23
ENDBRANCH  19  20
ENDBRANCH  17  18
ENDBRANCH  13  16
ENDBRANCH   2  13
TORSDOF 12
ENDMDL
