MODEL 1
REMARK VINA RESULT:      -8.2      0.000      0.000
REMARK  Name = 91746246_sitosterol.pdbqt.pdb
REMARK  10 active torsions:
REMARK  status: ('A' for Active; 'I' for Inactive)
REMARK    1  A    between atoms: C_5  and  C_20
REMARK    2  A    between atoms: C_19  and  O_30
REMARK    3  A    between atoms: C_20  and  C_22
REMARK    4  A    between atoms: C_23  and  C_24
REMARK    5  A    between atoms: C_24  and  C_28
REMARK    6  A    between atoms: O_30  and  C_32
REMARK    7  A    between atoms: C_32  and  C_33
REMARK    8  A    between atoms: C_34  and  C_35
REMARK    9  A    between atoms: C_38  and  O_41
REMARK   10  A    between atoms: C_40  and  O_43
REMARK                            x       y       z     vdW  Elec       q    Type
REMARK                         _______ _______ _______ _____ _____    ______ ____
ROOT
ATOM      1  C   UNL     1     -46.590 -61.644  32.143  0.00  0.00    +0.000 C 
ATOM      2  C   UNL     1     -45.571 -60.878  33.144  0.00  0.00    +0.000 C 
ATOM      3  C   UNL     1     -45.519 -61.167  34.591  0.00  0.00    +0.000 C 
ATOM      4  C   UNL     1     -46.173 -62.337  35.284  0.00  0.00    +0.000 C 
ATOM      5  C   UNL     1     -45.720 -61.944  30.930  0.00  0.00    +0.000 C 
ATOM      6  C   UNL     1     -47.029 -62.819  32.895  0.00  0.00    +0.000 C 
ATOM      7  C   UNL     1     -46.130 -62.562  36.818  0.00  0.00    +0.000 C 
ATOM      8  C   UNL     1     -44.365 -60.632  32.416  0.00  0.00    +0.000 C 
ATOM      9  C   UNL     1     -46.874 -63.154  34.358  0.00  0.00    +0.000 C 
ATOM     10  C   UNL     1     -44.451 -61.309  31.075  0.00  0.00    +0.000 C 
ATOM     11  C   UNL     1     -44.685 -60.417  35.457  0.00  0.00    +0.000 C 
ATOM     12  C   UNL     1     -47.719 -60.639  31.791  0.00  0.00    +0.000 C 
ATOM     13  C   UNL     1     -44.952 -61.702  37.590  0.00  0.00    +0.000 C 
ATOM     14  C   UNL     1     -45.790 -63.982  37.127  0.00  0.00    +0.000 C 
ATOM     15  C   UNL     1     -44.445 -60.723  36.905  0.00  0.00    +0.000 C 
ATOM     16  C   UNL     1     -47.493 -62.137  37.439  0.00  0.00    +0.000 C 
ATOM     17  C   UNL     1     -44.053 -62.482  38.411  0.00  0.00    +0.000 C 
ATOM     18  C   UNL     1     -44.726 -64.656  38.009  0.00  0.00    +0.000 C 
ATOM     19  C   UNL     1     -43.774 -63.857  38.730  0.00  0.00    +0.000 C 
ENDROOT
BRANCH   5  20
ATOM     20  C   UNL     1     -46.199 -62.543  29.726  0.00  0.00    +0.000 C 
ATOM     21  C   UNL     1     -46.632 -61.726  28.538  0.00  0.00    +0.000 C 
BRANCH  20  22
ATOM     22  C   UNL     1     -46.528 -63.926  29.676  0.00  0.00    +0.000 C 
ATOM     23  C   UNL     1     -46.880 -65.421  29.624  0.00  0.00    +0.000 C 
BRANCH  23  24
ATOM     24  C   UNL     1     -47.195 -66.812  29.563  0.00  0.00    +0.000 C 
ATOM     25  C   UNL     1     -47.935 -67.460  30.625  0.00  0.00    +0.000 C 
ATOM     26  C   UNL     1     -48.259 -68.938  30.631  0.00  0.00    +0.000 C 
ATOM     27  C   UNL     1     -48.459 -66.711  31.833  0.00  0.00    +0.000 C 
BRANCH  24  28
ATOM     28  C   UNL     1     -46.773 -67.576  28.442  0.00  0.00    +0.000 C 
ATOM     29  C   UNL     1     -46.253 -68.375  27.241  0.00  0.00    +0.000 C 
ENDBRANCH  24  28
ENDBRANCH  23  24
ENDBRANCH  20  22
ENDBRANCH   5  20
BRANCH  19  30
ATOM     30  O   UNL     1     -43.426 -64.175  40.039  0.00  0.00    +0.000 OA
BRANCH  30  32
ATOM     31  O   UNL     1     -44.577 -66.033  40.834  0.00  0.00    +0.000 OA
ATOM     32  C   UNL     1     -44.437 -64.828  40.684  0.00  0.00    +0.000 C 
BRANCH  32  33
ATOM     33  C   UNL     1     -45.389 -63.904  41.247  0.00  0.00    +0.000 C 
ATOM     34  C   UNL     1     -46.187 -63.128  41.700  0.00  0.00    +0.000 C 
BRANCH  34  35
ATOM     35  C   UNL     1     -47.138 -62.200  42.218  0.00  0.00    +0.000 A 
ATOM     36  C   UNL     1     -47.581 -62.327  43.534  0.00  0.00    +0.000 A 
ATOM     37  C   UNL     1     -47.628 -61.177  41.411  0.00  0.00    +0.000 A 
ATOM     38  C   UNL     1     -48.516 -61.431  44.060  0.00  0.00    +0.000 A 
ATOM     39  C   UNL     1     -48.561 -60.278  41.921  0.00  0.00    +0.000 A 
ATOM     40  C   UNL     1     -49.000 -60.410  43.238  0.00  0.00    +0.000 A 
BRANCH  38  41
ATOM     41  O   UNL     1     -49.005 -61.486  45.342  0.00  0.00    +0.000 OA
ATOM     42  C   UNL     1     -48.053 -61.740  46.342  0.00  0.00    +0.000 C 
ENDBRANCH  38  41
BRANCH  40  43
ATOM     43  O   UNL     1     -49.918 -59.525  43.733  0.00  0.00    +0.000 OA
ATOM     44  H   UNL     1     -49.807 -59.467  44.700  0.00  0.00    +0.000 HD
ENDBRANCH  40  43
ENDBRANCH  34  35
ENDBRANCH  32  33
ENDBRANCH  30  32
ENDBRANCH  19  30
TORSDOF 10
ENDMDL
MODEL 2
REMARK VINA RESULT:      -8.2      3.301      6.397
REMARK  Name = 91746246_sitosterol.pdbqt.pdb
REMARK  10 active torsions:
REMARK  status: ('A' for Active; 'I' for Inactive)
REMARK    1  A    between atoms: C_5  and  C_20
REMARK    2  A    between atoms: C_19  and  O_30
REMARK    3  A    between atoms: C_20  and  C_22
REMARK    4  A    between atoms: C_23  and  C_24
REMARK    5  A    between atoms: C_24  and  C_28
REMARK    6  A    between atoms: O_30  and  C_32
REMARK    7  A    between atoms: C_32  and  C_33
REMARK    8  A    between atoms: C_34  and  C_35
REMARK    9  A    between atoms: C_38  and  O_41
REMARK   10  A    between atoms: C_40  and  O_43
REMARK                            x       y       z     vdW  Elec       q    Type
REMARK                         _______ _______ _______ _____ _____    ______ ____
ROOT
ATOM      1  C   UNL     1     -45.930 -67.878  30.158  0.00  0.00    +0.000 C 
ATOM      2  C   UNL     1     -46.617 -68.419  31.523  0.00  0.00    +0.000 C 
ATOM      3  C   UNL     1     -45.913 -68.401  32.821  0.00  0.00    +0.000 C 
ATOM      4  C   UNL     1     -44.625 -67.676  33.120  0.00  0.00    +0.000 C 
ATOM      5  C   UNL     1     -47.051 -67.080  29.503  0.00  0.00    +0.000 C 
ATOM      6  C   UNL     1     -44.789 -67.084  30.610  0.00  0.00    +0.000 C 
ATOM      7  C   UNL     1     -43.901 -67.736  34.490  0.00  0.00    +0.000 C 
ATOM      8  C   UNL     1     -48.009 -68.099  31.455  0.00  0.00    +0.000 C 
ATOM      9  C   UNL     1     -44.144 -66.992  31.972  0.00  0.00    +0.000 C 
ATOM     10  C   UNL     1     -48.263 -67.257  30.234  0.00  0.00    +0.000 C 
ATOM     11  C   UNL     1     -46.501 -68.967  33.979  0.00  0.00    +0.000 C 
ATOM     12  C   UNL     1     -45.559 -69.125  29.312  0.00  0.00    +0.000 C 
ATOM     13  C   UNL     1     -44.853 -68.268  35.729  0.00  0.00    +0.000 C 
ATOM     14  C   UNL     1     -43.490 -66.368  34.923  0.00  0.00    +0.000 C 
ATOM     15  C   UNL     1     -45.944 -68.870  35.368  0.00  0.00    +0.000 C 
ATOM     16  C   UNL     1     -42.689 -68.709  34.389  0.00  0.00    +0.000 C 
ATOM     17  C   UNL     1     -44.919 -67.393  36.878  0.00  0.00    +0.000 C 
ATOM     18  C   UNL     1     -43.704 -65.546  36.204  0.00  0.00    +0.000 C 
ATOM     19  C   UNL     1     -44.471 -66.089  37.291  0.00  0.00    +0.000 C 
ENDROOT
BRANCH   5  20
ATOM     20  C   UNL     1     -46.956 -66.470  28.216  0.00  0.00    +0.000 C 
ATOM     21  C   UNL     1     -46.866 -67.277  26.948  0.00  0.00    +0.000 C 
BRANCH  20  22
ATOM     22  C   UNL     1     -46.689 -65.079  28.082  0.00  0.00    +0.000 C 
ATOM     23  C   UNL     1     -46.401 -63.577  27.935  0.00  0.00    +0.000 C 
BRANCH  23  24
ATOM     24  C   UNL     1     -46.117 -62.185  27.790  0.00  0.00    +0.000 C 
ATOM     25  C   UNL     1     -46.164 -61.289  28.925  0.00  0.00    +0.000 C 
ATOM     26  C   UNL     1     -45.913 -59.800  28.821  0.00  0.00    +0.000 C 
ATOM     27  C   UNL     1     -46.467 -61.764  30.331  0.00  0.00    +0.000 C 
BRANCH  24  28
ATOM     28  C   UNL     1     -45.784 -61.670  26.509  0.00  0.00    +0.000 C 
ATOM     29  C   UNL     1     -45.358 -61.117  25.144  0.00  0.00    +0.000 C 
ENDBRANCH  24  28
ENDBRANCH  23  24
ENDBRANCH  20  22
ENDBRANCH   5  20
BRANCH  19  30
ATOM     30  O   UNL     1     -44.057 -65.918  38.609  0.00  0.00    +0.000 OA
BRANCH  30  32
ATOM     31  O   UNL     1     -45.371 -65.736  40.519  0.00  0.00    +0.000 OA
ATOM     32  C   UNL     1     -45.053 -65.404  39.386  0.00  0.00    +0.000 C 
BRANCH  32  33
ATOM     33  C   UNL     1     -45.740 -64.324  38.721  0.00  0.00    +0.000 C 
ATOM     34  C   UNL     1     -46.324 -63.424  38.180  0.00  0.00    +0.000 C 
BRANCH  34  35
ATOM     35  C   UNL     1     -47.031 -62.356  37.552  0.00  0.00    +0.000 A 
ATOM     36  C   UNL     1     -46.360 -61.504  36.676  0.00  0.00    +0.000 A 
ATOM     37  C   UNL     1     -48.383 -62.162  37.819  0.00  0.00    +0.000 A 
ATOM     38  C   UNL     1     -47.034 -60.448  36.055  0.00  0.00    +0.000 A 
ATOM     39  C   UNL     1     -49.067 -61.114  37.207  0.00  0.00    +0.000 A 
ATOM     40  C   UNL     1     -48.391 -60.265  36.333  0.00  0.00    +0.000 A 
BRANCH  38  41
ATOM     41  O   UNL     1     -46.449 -59.563  35.183  0.00  0.00    +0.000 OA
ATOM     42  C   UNL     1     -45.516 -58.681  35.751  0.00  0.00    +0.000 C 
ENDBRANCH  38  41
BRANCH  40  43
ATOM     43  O   UNL     1     -49.067 -59.236  35.737  0.00  0.00    +0.000 OA
ATOM     44  H   UNL     1     -48.685 -58.392  36.042  0.00  0.00    +0.000 HD
ENDBRANCH  40  43
ENDBRANCH  34  35
ENDBRANCH  32  33
ENDBRANCH  30  32
ENDBRANCH  19  30
TORSDOF 10
ENDMDL
MODEL 3
REMARK VINA RESULT:      -8.1     10.276     14.503
REMARK  Name = 91746246_sitosterol.pdbqt.pdb
REMARK  10 active torsions:
REMARK  status: ('A' for Active; 'I' for Inactive)
REMARK    1  A    between atoms: C_5  and  C_20
REMARK    2  A    between atoms: C_19  and  O_30
REMARK    3  A    between atoms: C_20  and  C_22
REMARK    4  A    between atoms: C_23  and  C_24
REMARK    5  A    between atoms: C_24  and  C_28
REMARK    6  A    between atoms: O_30  and  C_32
REMARK    7  A    between atoms: C_32  and  C_33
REMARK    8  A    between atoms: C_34  and  C_35
REMARK    9  A    between atoms: C_38  and  O_41
REMARK   10  A    between atoms: C_40  and  O_43
REMARK                            x       y       z     vdW  Elec       q    Type
REMARK                         _______ _______ _______ _____ _____    ______ ____
ROOT
ATOM      1  C   UNL     1     -36.108 -60.363  37.883  0.00  0.00    +0.000 C 
ATOM      2  C   UNL     1     -35.959 -58.750  37.944  0.00  0.00    +0.000 C 
ATOM      3  C   UNL     1     -36.556 -57.864  36.925  0.00  0.00    +0.000 C 
ATOM      4  C   UNL     1     -37.562 -58.270  35.877  0.00  0.00    +0.000 C 
ATOM      5  C   UNL     1     -36.410 -60.735  39.329  0.00  0.00    +0.000 C 
ATOM      6  C   UNL     1     -37.204 -60.596  36.944  0.00  0.00    +0.000 C 
ATOM      7  C   UNL     1     -38.115 -57.307  34.795  0.00  0.00    +0.000 C 
ATOM      8  C   UNL     1     -35.976 -58.374  39.324  0.00  0.00    +0.000 C 
ATOM      9  C   UNL     1     -37.880 -59.651  35.981  0.00  0.00    +0.000 C 
ATOM     10  C   UNL     1     -36.280 -59.585  40.163  0.00  0.00    +0.000 C 
ATOM     11  C   UNL     1     -36.331 -56.465  36.951  0.00  0.00    +0.000 C 
ATOM     12  C   UNL     1     -34.735 -60.928  37.432  0.00  0.00    +0.000 C 
ATOM     13  C   UNL     1     -37.883 -55.709  35.137  0.00  0.00    +0.000 C 
ATOM     14  C   UNL     1     -39.599 -57.434  34.693  0.00  0.00    +0.000 C 
ATOM     15  C   UNL     1     -37.004 -55.464  36.061  0.00  0.00    +0.000 C 
ATOM     16  C   UNL     1     -37.407 -57.595  33.439  0.00  0.00    +0.000 C 
ATOM     17  C   UNL     1     -39.075 -54.891  35.113  0.00  0.00    +0.000 C 
ATOM     18  C   UNL     1     -40.761 -56.429  34.749  0.00  0.00    +0.000 C 
ATOM     19  C   UNL     1     -40.500 -55.033  34.965  0.00  0.00    +0.000 C 
ENDROOT
BRANCH   5  20
ATOM     20  C   UNL     1     -36.540 -62.076  39.803  0.00  0.00    +0.000 C 
ATOM     21  C   UNL     1     -37.609 -63.007  39.298  0.00  0.00    +0.000 C 
BRANCH  20  22
ATOM     22  C   UNL     1     -35.829 -62.518  40.954  0.00  0.00    +0.000 C 
ATOM     23  C   UNL     1     -35.062 -62.999  42.195  0.00  0.00    +0.000 C 
BRANCH  23  24
ATOM     24  C   UNL     1     -34.364 -63.454  43.355  0.00  0.00    +0.000 C 
ATOM     25  C   UNL     1     -33.242 -64.362  43.246  0.00  0.00    +0.000 C 
ATOM     26  C   UNL     1     -32.495 -64.906  44.444  0.00  0.00    +0.000 C 
ATOM     27  C   UNL     1     -32.710 -64.850  41.915  0.00  0.00    +0.000 C 
BRANCH  24  28
ATOM     28  C   UNL     1     -34.778 -63.008  44.638  0.00  0.00    +0.000 C 
ATOM     29  C   UNL     1     -35.268 -62.482  45.993  0.00  0.00    +0.000 C 
ENDBRANCH  24  28
ENDBRANCH  23  24
ENDBRANCH  20  22
ENDBRANCH   5  20
BRANCH  19  30
ATOM     30  O   UNL     1     -41.190 -54.061  34.248  0.00  0.00    +0.000 OA
BRANCH  30  32
ATOM     31  O   UNL     1     -41.743 -53.052  36.269  0.00  0.00    +0.000 OA
ATOM     32  C   UNL     1     -41.903 -53.240  35.072  0.00  0.00    +0.000 C 
BRANCH  32  33
ATOM     33  C   UNL     1     -42.928 -52.526  34.350  0.00  0.00    +0.000 C 
ATOM     34  C   UNL     1     -43.771 -51.932  33.734  0.00  0.00    +0.000 C 
BRANCH  34  35
ATOM     35  C   UNL     1     -44.759 -51.225  32.987  0.00  0.00    +0.000 A 
ATOM     36  C   UNL     1     -44.587 -51.039  31.616  0.00  0.00    +0.000 A 
ATOM     37  C   UNL     1     -45.886 -50.717  33.626  0.00  0.00    +0.000 A 
ATOM     38  C   UNL     1     -45.541 -50.345  30.867  0.00  0.00    +0.000 A 
ATOM     39  C   UNL     1     -46.845 -50.022  32.892  0.00  0.00    +0.000 A 
ATOM     40  C   UNL     1     -46.668 -49.839  31.521  0.00  0.00    +0.000 A 
BRANCH  38  41
ATOM     41  O   UNL     1     -45.448 -50.116  29.516  0.00  0.00    +0.000 OA
ATOM     42  C   UNL     1     -44.256 -49.513  29.084  0.00  0.00    +0.000 C 
ENDBRANCH  38  41
BRANCH  40  43
ATOM     43  O   UNL     1     -47.612 -49.154  30.806  0.00  0.00    +0.000 OA
ATOM     44  H   UNL     1     -48.495 -49.472  31.071  0.00  0.00    +0.000 HD
ENDBRANCH  40  43
ENDBRANCH  34  35
ENDBRANCH  32  33
ENDBRANCH  30  32
ENDBRANCH  19  30
TORSDOF 10
ENDMDL
MODEL 4
REMARK VINA RESULT:      -8.1      2.887      5.030
REMARK  Name = 91746246_sitosterol.pdbqt.pdb
REMARK  10 active torsions:
REMARK  status: ('A' for Active; 'I' for Inactive)
REMARK    1  A    between atoms: C_5  and  C_20
REMARK    2  A    between atoms: C_19  and  O_30
REMARK    3  A    between atoms: C_20  and  C_22
REMARK    4  A    between atoms: C_23  and  C_24
REMARK    5  A    between atoms: C_24  and  C_28
REMARK    6  A    between atoms: O_30  and  C_32
REMARK    7  A    between atoms: C_32  and  C_33
REMARK    8  A    between atoms: C_34  and  C_35
REMARK    9  A    between atoms: C_38  and  O_41
REMARK   10  A    between atoms: C_40  and  O_43
REMARK                            x       y       z     vdW  Elec       q    Type
REMARK                         _______ _______ _______ _____ _____    ______ ____
ROOT
ATOM      1  C   UNL     1     -45.630 -67.297  31.127  0.00  0.00    +0.000 C 
ATOM      2  C   UNL     1     -46.171 -68.262  32.311  0.00  0.00    +0.000 C 
ATOM      3  C   UNL     1     -45.758 -68.092  33.718  0.00  0.00    +0.000 C 
ATOM      4  C   UNL     1     -45.025 -66.904  34.289  0.00  0.00    +0.000 C 
ATOM      5  C   UNL     1     -46.884 -67.021  30.307  0.00  0.00    +0.000 C 
ATOM      6  C   UNL     1     -45.078 -66.135  31.822  0.00  0.00    +0.000 C 
ATOM      7  C   UNL     1     -44.568 -66.803  35.767  0.00  0.00    +0.000 C 
ATOM      8  C   UNL     1     -47.523 -68.607  31.994  0.00  0.00    +0.000 C 
ATOM      9  C   UNL     1     -44.761 -65.935  33.284  0.00  0.00    +0.000 C 
ATOM     10  C   UNL     1     -47.962 -67.824  30.786  0.00  0.00    +0.000 C 
ATOM     11  C   UNL     1     -46.173 -69.007  34.717  0.00  0.00    +0.000 C 
ATOM     12  C   UNL     1     -44.595 -68.117  30.311  0.00  0.00    +0.000 C 
ATOM     13  C   UNL     1     -45.326 -67.865  36.778  0.00  0.00    +0.000 C 
ATOM     14  C   UNL     1     -44.920 -65.466  36.331  0.00  0.00    +0.000 C 
ATOM     15  C   UNL     1     -45.938 -68.846  36.189  0.00  0.00    +0.000 C 
ATOM     16  C   UNL     1     -43.041 -67.093  35.855  0.00  0.00    +0.000 C 
ATOM     17  C   UNL     1     -45.966 -67.272  37.931  0.00  0.00    +0.000 C 
ATOM     18  C   UNL     1     -45.682 -65.005  37.584  0.00  0.00    +0.000 C 
ATOM     19  C   UNL     1     -46.252 -65.973  38.480  0.00  0.00    +0.000 C 
ENDROOT
BRANCH   5  20
ATOM     20  C   UNL     1     -46.901 -66.275  29.090  0.00  0.00    +0.000 C 
ATOM     21  C   UNL     1     -47.747 -65.043  28.913  0.00  0.00    +0.000 C 
BRANCH  20  22
ATOM     22  C   UNL     1     -46.314 -66.797  27.903  0.00  0.00    +0.000 C 
ATOM     23  C   UNL     1     -45.681 -67.358  26.621  0.00  0.00    +0.000 C 
BRANCH  23  24
ATOM     24  C   UNL     1     -45.108 -67.875  25.420  0.00  0.00    +0.000 C 
ATOM     25  C   UNL     1     -45.050 -67.078  24.213  0.00  0.00    +0.000 C 
ATOM     26  C   UNL     1     -44.491 -67.590  22.904  0.00  0.00    +0.000 C 
ATOM     27  C   UNL     1     -45.544 -65.647  24.153  0.00  0.00    +0.000 C 
BRANCH  24  28
ATOM     28  C   UNL     1     -44.585 -69.196  25.408  0.00  0.00    +0.000 C 
ATOM     29  C   UNL     1     -43.957 -70.594  25.392  0.00  0.00    +0.000 C 
ENDBRANCH  24  28
ENDBRANCH  23  24
ENDBRANCH  20  22
ENDBRANCH   5  20
BRANCH  19  30
ATOM     30  O   UNL     1     -46.166 -65.803  39.858  0.00  0.00    +0.000 OA
BRANCH  30  32
ATOM     31  O   UNL     1     -44.195 -64.573  39.756  0.00  0.00    +0.000 OA
ATOM     32  C   UNL     1     -45.318 -64.785  40.188  0.00  0.00    +0.000 C 
BRANCH  32  33
ATOM     33  C   UNL     1     -45.917 -63.886  41.143  0.00  0.00    +0.000 C 
ATOM     34  C   UNL     1     -46.424 -63.152  41.948  0.00  0.00    +0.000 C 
BRANCH  34  35
ATOM     35  C   UNL     1     -47.033 -62.296  42.913  0.00  0.00    +0.000 A 
ATOM     36  C   UNL     1     -48.323 -61.815  42.694  0.00  0.00    +0.000 A 
ATOM     37  C   UNL     1     -46.339 -61.937  44.065  0.00  0.00    +0.000 A 
ATOM     38  C   UNL     1     -48.935 -60.971  43.624  0.00  0.00    +0.000 A 
ATOM     39  C   UNL     1     -46.937 -61.096  45.001  0.00  0.00    +0.000 A 
ATOM     40  C   UNL     1     -48.227 -60.618  44.776  0.00  0.00    +0.000 A 
BRANCH  38  41
ATOM     41  O   UNL     1     -50.200 -60.453  43.485  0.00  0.00    +0.000 OA
ATOM     42  C   UNL     1     -50.332 -59.428  42.534  0.00  0.00    +0.000 C 
ENDBRANCH  38  41
BRANCH  40  43
ATOM     43  O   UNL     1     -48.808 -59.791  45.697  0.00  0.00    +0.000 OA
ATOM     44  H   UNL     1     -48.113 -59.439  46.284  0.00  0.00    +0.000 HD
ENDBRANCH  40  43
ENDBRANCH  34  35
ENDBRANCH  32  33
ENDBRANCH  30  32
ENDBRANCH  19  30
TORSDOF 10
ENDMDL
MODEL 5
REMARK VINA RESULT:      -7.8     25.034     28.737
REMARK  Name = 91746246_sitosterol.pdbqt.pdb
REMARK  10 active torsions:
REMARK  status: ('A' for Active; 'I' for Inactive)
REMARK    1  A    between atoms: C_5  and  C_20
REMARK    2  A    between atoms: C_19  and  O_30
REMARK    3  A    between atoms: C_20  and  C_22
REMARK    4  A    between atoms: C_23  and  C_24
REMARK    5  A    between atoms: C_24  and  C_28
REMARK    6  A    between atoms: O_30  and  C_32
REMARK    7  A    between atoms: C_32  and  C_33
REMARK    8  A    between atoms: C_34  and  C_35
REMARK    9  A    between atoms: C_38  and  O_41
REMARK   10  A    between atoms: C_40  and  O_43
REMARK                            x       y       z     vdW  Elec       q    Type
REMARK                         _______ _______ _______ _____ _____    ______ ____
ROOT
ATOM      1  C   UNL     1     -32.542 -47.974  52.237  0.00  0.00    +0.000 C 
ATOM      2  C   UNL     1     -33.315 -49.371  52.519  0.00  0.00    +0.000 C 
ATOM      3  C   UNL     1     -32.631 -50.550  53.087  0.00  0.00    +0.000 C 
ATOM      4  C   UNL     1     -31.256 -50.563  53.707  0.00  0.00    +0.000 C 
ATOM      5  C   UNL     1     -33.529 -46.928  52.738  0.00  0.00    +0.000 C 
ATOM      6  C   UNL     1     -31.304 -48.076  53.008  0.00  0.00    +0.000 C 
ATOM      7  C   UNL     1     -30.564 -51.845  54.240  0.00  0.00    +0.000 C 
ATOM      8  C   UNL     1     -34.646 -49.045  52.927  0.00  0.00    +0.000 C 
ATOM      9  C   UNL     1     -30.669 -49.270  53.679  0.00  0.00    +0.000 C 
ATOM     10  C   UNL     1     -34.762 -47.553  53.087  0.00  0.00    +0.000 C 
ATOM     11  C   UNL     1     -33.308 -51.786  53.236  0.00  0.00    +0.000 C 
ATOM     12  C   UNL     1     -32.342 -47.869  50.701  0.00  0.00    +0.000 C 
ATOM     13  C   UNL     1     -31.597 -53.106  54.501  0.00  0.00    +0.000 C 
ATOM     14  C   UNL     1     -29.968 -51.594  55.585  0.00  0.00    +0.000 C 
ATOM     15  C   UNL     1     -32.759 -52.994  53.933  0.00  0.00    +0.000 C 
ATOM     16  C   UNL     1     -29.503 -52.324  53.207  0.00  0.00    +0.000 C 
ATOM     17  C   UNL     1     -31.552 -53.679  55.827  0.00  0.00    +0.000 C 
ATOM     18  C   UNL     1     -30.078 -52.297  56.948  0.00  0.00    +0.000 C 
ATOM     19  C   UNL     1     -30.927 -53.445  57.103  0.00  0.00    +0.000 C 
ENDROOT
BRANCH   5  20
ATOM     20  C   UNL     1     -33.333 -45.518  52.623  0.00  0.00    +0.000 C 
ATOM     21  C   UNL     1     -32.217 -44.801  53.334  0.00  0.00    +0.000 C 
BRANCH  20  22
ATOM     22  C   UNL     1     -34.326 -44.686  52.035  0.00  0.00    +0.000 C 
ATOM     23  C   UNL     1     -35.398 -43.786  51.402  0.00  0.00    +0.000 C 
BRANCH  23  24
ATOM     24  C   UNL     1     -36.407 -42.956  50.826  0.00  0.00    +0.000 C 
ATOM     25  C   UNL     1     -37.567 -43.528  50.176  0.00  0.00    +0.000 C 
ATOM     26  C   UNL     1     -38.644 -42.696  49.514  0.00  0.00    +0.000 C 
ATOM     27  C   UNL     1     -37.812 -45.021  50.104  0.00  0.00    +0.000 C 
BRANCH  24  28
ATOM     28  C   UNL     1     -36.270 -41.544  50.890  0.00  0.00    +0.000 C 
ATOM     29  C   UNL     1     -36.116 -40.025  51.028  0.00  0.00    +0.000 C 
ENDBRANCH  24  28
ENDBRANCH  23  24
ENDBRANCH  20  22
ENDBRANCH   5  20
BRANCH  19  30
ATOM     30  O   UNL     1     -30.509 -54.544  57.846  0.00  0.00    +0.000 OA
BRANCH  30  32
ATOM     31  O   UNL     1     -28.248 -54.915  57.449  0.00  0.00    +0.000 OA
ATOM     32  C   UNL     1     -29.173 -54.486  58.121  0.00  0.00    +0.000 C 
BRANCH  32  33
ATOM     33  C   UNL     1     -28.918 -53.791  59.359  0.00  0.00    +0.000 C 
ATOM     34  C   UNL     1     -28.687 -53.214  60.387  0.00  0.00    +0.000 C 
BRANCH  34  35
ATOM     35  C   UNL     1     -28.393 -52.531  61.604  0.00  0.00    +0.000 A 
ATOM     36  C   UNL     1     -29.166 -52.777  62.738  0.00  0.00    +0.000 A 
ATOM     37  C   UNL     1     -27.344 -51.618  61.658  0.00  0.00    +0.000 A 
ATOM     38  C   UNL     1     -28.898 -52.115  63.940  0.00  0.00    +0.000 A 
ATOM     39  C   UNL     1     -27.066 -50.950  62.848  0.00  0.00    +0.000 A 
ATOM     40  C   UNL     1     -27.842 -51.200  63.979  0.00  0.00    +0.000 A 
BRANCH  38  41
ATOM     41  O   UNL     1     -29.610 -52.297  65.100  0.00  0.00    +0.000 OA
ATOM     42  C   UNL     1     -30.916 -51.780  65.096  0.00  0.00    +0.000 C 
ENDBRANCH  38  41
BRANCH  40  43
ATOM     43  O   UNL     1     -27.566 -50.540  65.144  0.00  0.00    +0.000 OA
ATOM     44  H   UNL     1     -26.894 -49.855  64.964  0.00  0.00    +0.000 HD
ENDBRANCH  40  43
ENDBRANCH  34  35
ENDBRANCH  32  33
ENDBRANCH  30  32
ENDBRANCH  19  30
TORSDOF 10
ENDMDL
MODEL 6
REMARK VINA RESULT:      -7.7      7.046     11.860
REMARK  Name = 91746246_sitosterol.pdbqt.pdb
REMARK  10 active torsions:
REMARK  status: ('A' for Active; 'I' for Inactive)
REMARK    1  A    between atoms: C_5  and  C_20
REMARK    2  A    between atoms: C_19  and  O_30
REMARK    3  A    between atoms: C_20  and  C_22
REMARK    4  A    between atoms: C_23  and  C_24
REMARK    5  A    between atoms: C_24  and  C_28
REMARK    6  A    between atoms: O_30  and  C_32
REMARK    7  A    between atoms: C_32  and  C_33
REMARK    8  A    between atoms: C_34  and  C_35
REMARK    9  A    between atoms: C_38  and  O_41
REMARK   10  A    between atoms: C_40  and  O_43
REMARK                            x       y       z     vdW  Elec       q    Type
REMARK                         _______ _______ _______ _____ _____    ______ ____
ROOT
ATOM      1  C   UNL     1     -40.631 -70.606  41.930  0.00  0.00    +0.000 C 
ATOM      2  C   UNL     1     -40.640 -69.828  40.509  0.00  0.00    +0.000 C 
ATOM      3  C   UNL     1     -41.705 -68.873  40.139  0.00  0.00    +0.000 C 
ATOM      4  C   UNL     1     -42.743 -68.300  41.071  0.00  0.00    +0.000 C 
ATOM      5  C   UNL     1     -39.172 -70.515  42.362  0.00  0.00    +0.000 C 
ATOM      6  C   UNL     1     -41.570 -69.859  42.765  0.00  0.00    +0.000 C 
ATOM      7  C   UNL     1     -43.873 -67.340  40.616  0.00  0.00    +0.000 C 
ATOM      8  C   UNL     1     -39.279 -69.557  40.162  0.00  0.00    +0.000 C 
ATOM      9  C   UNL     1     -42.581 -68.803  42.390  0.00  0.00    +0.000 C 
ATOM     10  C   UNL     1     -38.390 -69.953  41.310  0.00  0.00    +0.000 C 
ATOM     11  C   UNL     1     -41.739 -68.278  38.854  0.00  0.00    +0.000 C 
ATOM     12  C   UNL     1     -41.042 -72.075  41.645  0.00  0.00    +0.000 C 
ATOM     13  C   UNL     1     -43.600 -66.630  39.151  0.00  0.00    +0.000 C 
ATOM     14  C   UNL     1     -43.984 -66.184  41.553  0.00  0.00    +0.000 C 
ATOM     15  C   UNL     1     -42.680 -67.191  38.428  0.00  0.00    +0.000 C 
ATOM     16  C   UNL     1     -45.208 -68.134  40.502  0.00  0.00    +0.000 C 
ATOM     17  C   UNL     1     -43.673 -65.186  39.140  0.00  0.00    +0.000 C 
ATOM     18  C   UNL     1     -43.985 -64.658  41.368  0.00  0.00    +0.000 C 
ATOM     19  C   UNL     1     -43.830 -64.089  40.059  0.00  0.00    +0.000 C 
ENDROOT
BRANCH   5  20
ATOM     20  C   UNL     1     -38.640 -71.138  43.531  0.00  0.00    +0.000 C 
ATOM     21  C   UNL     1     -39.114 -70.789  44.916  0.00  0.00    +0.000 C 
BRANCH  20  22
ATOM     22  C   UNL     1     -37.464 -71.936  43.464  0.00  0.00    +0.000 C 
ATOM     23  C   UNL     1     -36.192 -72.796  43.395  0.00  0.00    +0.000 C 
BRANCH  23  24
ATOM     24  C   UNL     1     -35.001 -73.581  43.332  0.00  0.00    +0.000 C 
ATOM     25  C   UNL     1     -33.716 -72.971  43.066  0.00  0.00    +0.000 C 
ATOM     26  C   UNL     1     -32.430 -73.759  42.948  0.00  0.00    +0.000 C 
ATOM     27  C   UNL     1     -33.540 -71.477  42.886  0.00  0.00    +0.000 C 
BRANCH  24  28
ATOM     28  C   UNL     1     -35.078 -74.985  43.531  0.00  0.00    +0.000 C 
ATOM     29  C   UNL     1     -35.114 -76.509  43.695  0.00  0.00    +0.000 C 
ENDBRANCH  24  28
ENDBRANCH  23  24
ENDBRANCH  20  22
ENDBRANCH   5  20
BRANCH  19  30
ATOM     30  O   UNL     1     -44.597 -62.998  39.661  0.00  0.00    +0.000 OA
BRANCH  30  32
ATOM     31  O   UNL     1     -43.259 -61.197  40.272  0.00  0.00    +0.000 OA
ATOM     32  C   UNL     1     -44.273 -61.873  40.363  0.00  0.00    +0.000 C 
BRANCH  32  33
ATOM     33  C   UNL     1     -45.325 -61.497  41.275  0.00  0.00    +0.000 C 
ATOM     34  C   UNL     1     -46.213 -61.180  42.020  0.00  0.00    +0.000 C 
BRANCH  34  35
ATOM     35  C   UNL     1     -47.277 -60.798  42.888  0.00  0.00    +0.000 A 
ATOM     36  C   UNL     1     -48.546 -60.559  42.363  0.00  0.00    +0.000 A 
ATOM     37  C   UNL     1     -47.048 -60.659  44.254  0.00  0.00    +0.000 A 
ATOM     38  C   UNL     1     -49.602 -60.180  43.197  0.00  0.00    +0.000 A 
ATOM     39  C   UNL     1     -48.090 -60.281  45.097  0.00  0.00    +0.000 A 
ATOM     40  C   UNL     1     -49.357 -60.043  44.566  0.00  0.00    +0.000 A 
BRANCH  38  41
ATOM     41  O   UNL     1     -50.879 -59.924  42.762  0.00  0.00    +0.000 OA
ATOM     42  C   UNL     1     -51.041 -58.742  42.021  0.00  0.00    +0.000 C 
ENDBRANCH  38  41
BRANCH  40  43
ATOM     43  O   UNL     1     -50.377 -59.669  45.399  0.00  0.00    +0.000 OA
ATOM     44  H   UNL     1     -50.022 -59.572  46.302  0.00  0.00    +0.000 HD
ENDBRANCH  40  43
ENDBRANCH  34  35
ENDBRANCH  32  33
ENDBRANCH  30  32
ENDBRANCH  19  30
TORSDOF 10
ENDMDL
MODEL 7
REMARK VINA RESULT:      -7.6      6.874     11.637
REMARK  Name = 91746246_sitosterol.pdbqt.pdb
REMARK  10 active torsions:
REMARK  status: ('A' for Active; 'I' for Inactive)
REMARK    1  A    between atoms: C_5  and  C_20
REMARK    2  A    between atoms: C_19  and  O_30
REMARK    3  A    between atoms: C_20  and  C_22
REMARK    4  A    between atoms: C_23  and  C_24
REMARK    5  A    between atoms: C_24  and  C_28
REMARK    6  A    between atoms: O_30  and  C_32
REMARK    7  A    between atoms: C_32  and  C_33
REMARK    8  A    between atoms: C_34  and  C_35
REMARK    9  A    between atoms: C_38  and  O_41
REMARK   10  A    between atoms: C_40  and  O_43
REMARK                            x       y       z     vdW  Elec       q    Type
REMARK                         _______ _______ _______ _____ _____    ______ ____
ROOT
ATOM      1  C   UNL     1     -40.814 -70.539  42.124  0.00  0.00    +0.000 C 
ATOM      2  C   UNL     1     -40.685 -69.743  40.718  0.00  0.00    +0.000 C 
ATOM      3  C   UNL     1     -41.711 -68.787  40.255  0.00  0.00    +0.000 C 
ATOM      4  C   UNL     1     -42.840 -68.229  41.086  0.00  0.00    +0.000 C 
ATOM      5  C   UNL     1     -39.406 -70.448  42.700  0.00  0.00    +0.000 C 
ATOM      6  C   UNL     1     -41.835 -69.804  42.870  0.00  0.00    +0.000 C 
ATOM      7  C   UNL     1     -43.923 -67.267  40.531  0.00  0.00    +0.000 C 
ATOM      8  C   UNL     1     -39.297 -69.465  40.512  0.00  0.00    +0.000 C 
ATOM      9  C   UNL     1     -42.808 -68.747  42.408  0.00  0.00    +0.000 C 
ATOM     10  C   UNL     1     -38.525 -69.872  41.738  0.00  0.00    +0.000 C 
ATOM     11  C   UNL     1     -41.620 -68.177  38.980  0.00  0.00    +0.000 C 
ATOM     12  C   UNL     1     -41.189 -72.005  41.783  0.00  0.00    +0.000 C 
ATOM     13  C   UNL     1     -43.508 -66.538  39.109  0.00  0.00    +0.000 C 
ATOM     14  C   UNL     1     -44.131 -66.123  41.466  0.00  0.00    +0.000 C 
ATOM     15  C   UNL     1     -42.518 -67.088  38.475  0.00  0.00    +0.000 C 
ATOM     16  C   UNL     1     -45.236 -68.063  40.275  0.00  0.00    +0.000 C 
ATOM     17  C   UNL     1     -43.585 -65.094  39.108  0.00  0.00    +0.000 C 
ATOM     18  C   UNL     1     -44.120 -64.594  41.300  0.00  0.00    +0.000 C 
ATOM     19  C   UNL     1     -43.837 -64.009  40.019  0.00  0.00    +0.000 C 
ENDROOT
BRANCH   5  20
ATOM     20  C   UNL     1     -38.991 -71.084  43.909  0.00  0.00    +0.000 C 
ATOM     21  C   UNL     1     -38.562 -70.304  45.122  0.00  0.00    +0.000 C 
BRANCH  20  22
ATOM     22  C   UNL     1     -38.722 -72.481  43.947  0.00  0.00    +0.000 C 
ATOM     23  C   UNL     1     -38.429 -73.989  43.989  0.00  0.00    +0.000 C 
BRANCH  23  24
ATOM     24  C   UNL     1     -38.145 -75.387  44.014  0.00  0.00    +0.000 C 
ATOM     25  C   UNL     1     -39.201 -76.364  44.171  0.00  0.00    +0.000 C 
ATOM     26  C   UNL     1     -38.951 -77.855  44.246  0.00  0.00    +0.000 C 
ATOM     27  C   UNL     1     -40.663 -75.980  44.271  0.00  0.00    +0.000 C 
BRANCH  24  28
ATOM     28  C   UNL     1     -36.801 -75.830  43.885  0.00  0.00    +0.000 C 
ATOM     29  C   UNL     1     -35.344 -76.265  43.690  0.00  0.00    +0.000 C 
ENDBRANCH  24  28
ENDBRANCH  23  24
ENDBRANCH  20  22
ENDBRANCH   5  20
BRANCH  19  30
ATOM     30  O   UNL     1     -44.565 -62.915  39.560  0.00  0.00    +0.000 OA
BRANCH  30  32
ATOM     31  O   UNL     1     -43.243 -61.062  40.032  0.00  0.00    +0.000 OA
ATOM     32  C   UNL     1     -44.221 -61.770  40.217  0.00  0.00    +0.000 C 
BRANCH  32  33
ATOM     33  C   UNL     1     -45.204 -61.416  41.212  0.00  0.00    +0.000 C 
ATOM     34  C   UNL     1     -46.035 -61.130  42.031  0.00  0.00    +0.000 C 
BRANCH  34  35
ATOM     35  C   UNL     1     -47.036 -60.799  42.991  0.00  0.00    +0.000 A 
ATOM     36  C   UNL     1     -48.333 -60.510  42.567  0.00  0.00    +0.000 A 
ATOM     37  C   UNL     1     -46.717 -60.757  44.345  0.00  0.00    +0.000 A 
ATOM     38  C   UNL     1     -49.326 -60.178  43.492  0.00  0.00    +0.000 A 
ATOM     39  C   UNL     1     -47.698 -60.427  45.278  0.00  0.00    +0.000 A 
ATOM     40  C   UNL     1     -48.992 -60.139  44.848  0.00  0.00    +0.000 A 
BRANCH  38  41
ATOM     41  O   UNL     1     -50.625 -59.880  43.160  0.00  0.00    +0.000 OA
ATOM     42  C   UNL     1     -50.843 -58.578  42.680  0.00  0.00    +0.000 C 
ENDBRANCH  38  41
BRANCH  40  43
ATOM     43  O   UNL     1     -49.950 -59.814  45.769  0.00  0.00    +0.000 OA
ATOM     44  H   UNL     1     -49.762 -58.920  46.114  0.00  0.00    +0.000 HD
ENDBRANCH  40  43
ENDBRANCH  34  35
ENDBRANCH  32  33
ENDBRANCH  30  32
ENDBRANCH  19  30
TORSDOF 10
ENDMDL
MODEL 8
REMARK VINA RESULT:      -7.5     24.631     28.154
REMARK  Name = 91746246_sitosterol.pdbqt.pdb
REMARK  10 active torsions:
REMARK  status: ('A' for Active; 'I' for Inactive)
REMARK    1  A    between atoms: C_5  and  C_20
REMARK    2  A    between atoms: C_19  and  O_30
REMARK    3  A    between atoms: C_20  and  C_22
REMARK    4  A    between atoms: C_23  and  C_24
REMARK    5  A    between atoms: C_24  and  C_28
REMARK    6  A    between atoms: O_30  and  C_32
REMARK    7  A    between atoms: C_32  and  C_33
REMARK    8  A    between atoms: C_34  and  C_35
REMARK    9  A    between atoms: C_38  and  O_41
REMARK   10  A    between atoms: C_40  and  O_43
REMARK                            x       y       z     vdW  Elec       q    Type
REMARK                         _______ _______ _______ _____ _____    ______ ____
ROOT
ATOM      1  C   UNL     1     -31.887 -51.082  52.431  0.00  0.00    +0.000 C 
ATOM      2  C   UNL     1     -32.566 -51.994  53.586  0.00  0.00    +0.000 C 
ATOM      3  C   UNL     1     -31.773 -52.637  54.652  0.00  0.00    +0.000 C 
ATOM      4  C   UNL     1     -30.328 -52.350  54.977  0.00  0.00    +0.000 C 
ATOM      5  C   UNL     1     -32.834 -49.893  52.330  0.00  0.00    +0.000 C 
ATOM      6  C   UNL     1     -30.555 -50.769  52.946  0.00  0.00    +0.000 C 
ATOM      7  C   UNL     1     -29.528 -53.097  56.076  0.00  0.00    +0.000 C 
ATOM      8  C   UNL     1     -33.842 -51.421  53.884  0.00  0.00    +0.000 C 
ATOM      9  C   UNL     1     -29.796 -51.360  54.109  0.00  0.00    +0.000 C 
ATOM     10  C   UNL     1     -33.988 -50.123  53.136  0.00  0.00    +0.000 C 
ATOM     11  C   UNL     1     -32.381 -53.505  55.593  0.00  0.00    +0.000 C 
ATOM     12  C   UNL     1     -31.896 -51.922  51.126  0.00  0.00    +0.000 C 
ATOM     13  C   UNL     1     -30.473 -53.899  57.166  0.00  0.00    +0.000 C 
ATOM     14  C   UNL     1     -28.767 -52.126  56.917  0.00  0.00    +0.000 C 
ATOM     15  C   UNL     1     -31.703 -54.087  56.797  0.00  0.00    +0.000 C 
ATOM     16  C   UNL     1     -28.597 -54.151  55.408  0.00  0.00    +0.000 C 
ATOM     17  C   UNL     1     -30.232 -53.572  58.553  0.00  0.00    +0.000 C 
ATOM     18  C   UNL     1     -28.672 -51.872  58.430  0.00  0.00    +0.000 C 
ATOM     19  C   UNL     1     -29.452 -52.658  59.345  0.00  0.00    +0.000 C 
ENDROOT
BRANCH   5  20
ATOM     20  C   UNL     1     -32.704 -48.841  51.373  0.00  0.00    +0.000 C 
ATOM     21  C   UNL     1     -31.572 -48.791  50.382  0.00  0.00    +0.000 C 
BRANCH  20  22
ATOM     22  C   UNL     1     -33.491 -47.660  51.472  0.00  0.00    +0.000 C 
ATOM     23  C   UNL     1     -34.340 -46.384  51.576  0.00  0.00    +0.000 C 
BRANCH  23  24
ATOM     24  C   UNL     1     -35.114 -45.188  51.675  0.00  0.00    +0.000 C 
ATOM     25  C   UNL     1     -34.676 -44.078  52.495  0.00  0.00    +0.000 C 
ATOM     26  C   UNL     1     -35.476 -42.806  52.668  0.00  0.00    +0.000 C 
ATOM     27  C   UNL     1     -33.366 -44.089  53.254  0.00  0.00    +0.000 C 
BRANCH  24  28
ATOM     28  C   UNL     1     -36.336 -45.085  50.959  0.00  0.00    +0.000 C 
ATOM     29  C   UNL     1     -37.631 -45.021  50.140  0.00  0.00    +0.000 C 
ENDBRANCH  24  28
ENDBRANCH  23  24
ENDBRANCH  20  22
ENDBRANCH   5  20
BRANCH  19  30
ATOM     30  O   UNL     1     -28.901 -53.119  60.537  0.00  0.00    +0.000 OA
BRANCH  30  32
ATOM     31  O   UNL     1     -26.594 -52.973  60.786  0.00  0.00    +0.000 OA
ATOM     32  C   UNL     1     -27.606 -53.517  60.371  0.00  0.00    +0.000 C 
BRANCH  32  33
ATOM     33  C   UNL     1     -27.523 -54.752  59.631  0.00  0.00    +0.000 C 
ATOM     34  C   UNL     1     -27.471 -55.777  59.007  0.00  0.00    +0.000 C 
BRANCH  34  35
ATOM     35  C   UNL     1     -27.426 -56.990  58.258  0.00  0.00    +0.000 A 
ATOM     36  C   UNL     1     -27.036 -56.962  56.920  0.00  0.00    +0.000 A 
ATOM     37  C   UNL     1     -27.777 -58.195  58.859  0.00  0.00    +0.000 A 
ATOM     38  C   UNL     1     -26.990 -58.138  56.167  0.00  0.00    +0.000 A 
ATOM     39  C   UNL     1     -27.737 -59.376  58.120  0.00  0.00    +0.000 A 
ATOM     40  C   UNL     1     -27.346 -59.341  56.782  0.00  0.00    +0.000 A 
BRANCH  38  41
ATOM     41  O   UNL     1     -26.620 -58.198  54.845  0.00  0.00    +0.000 OA
ATOM     42  C   UNL     1     -27.450 -57.502  53.952  0.00  0.00    +0.000 C 
ENDBRANCH  38  41
BRANCH  40  43
ATOM     43  O   UNL     1     -27.311 -60.504  56.062  0.00  0.00    +0.000 OA
ATOM     44  H   UNL     1     -26.523 -61.013  56.329  0.00  0.00    +0.000 HD
ENDBRANCH  40  43
ENDBRANCH  34  35
ENDBRANCH  32  33
ENDBRANCH  30  32
ENDBRANCH  19  30
TORSDOF 10
ENDMDL
MODEL 9
REMARK VINA RESULT:      -7.4      3.735      6.889
REMARK  Name = 91746246_sitosterol.pdbqt.pdb
REMARK  10 active torsions:
REMARK  status: ('A' for Active; 'I' for Inactive)
REMARK    1  A    between atoms: C_5  and  C_20
REMARK    2  A    between atoms: C_19  and  O_30
REMARK    3  A    between atoms: C_20  and  C_22
REMARK    4  A    between atoms: C_23  and  C_24
REMARK    5  A    between atoms: C_24  and  C_28
REMARK    6  A    between atoms: O_30  and  C_32
REMARK    7  A    between atoms: C_32  and  C_33
REMARK    8  A    between atoms: C_34  and  C_35
REMARK    9  A    between atoms: C_38  and  O_41
REMARK   10  A    between atoms: C_40  and  O_43
REMARK                            x       y       z     vdW  Elec       q    Type
REMARK                         _______ _______ _______ _____ _____    ______ ____
ROOT
ATOM      1  C   UNL     1     -46.235 -62.330  28.233  0.00  0.00    +0.000 C 
ATOM      2  C   UNL     1     -45.730 -62.419  29.771  0.00  0.00    +0.000 C 
ATOM      3  C   UNL     1     -46.150 -63.506  30.678  0.00  0.00    +0.000 C 
ATOM      4  C   UNL     1     -46.856 -64.775  30.271  0.00  0.00    +0.000 C 
ATOM      5  C   UNL     1     -44.967 -61.958  27.476  0.00  0.00    +0.000 C 
ATOM      6  C   UNL     1     -46.761 -63.663  27.941  0.00  0.00    +0.000 C 
ATOM      7  C   UNL     1     -47.323 -65.860  31.277  0.00  0.00    +0.000 C 
ATOM      8  C   UNL     1     -44.386 -61.932  29.805  0.00  0.00    +0.000 C 
ATOM      9  C   UNL     1     -47.084 -64.808  28.870  0.00  0.00    +0.000 C 
ATOM     10  C   UNL     1     -43.916 -61.679  28.398  0.00  0.00    +0.000 C 
ATOM     11  C   UNL     1     -45.769 -63.507  32.042  0.00  0.00    +0.000 C 
ATOM     12  C   UNL     1     -47.285 -61.190  28.166  0.00  0.00    +0.000 C 
ATOM     13  C   UNL     1     -46.602 -65.757  32.758  0.00  0.00    +0.000 C 
ATOM     14  C   UNL     1     -46.939 -67.219  30.791  0.00  0.00    +0.000 C 
ATOM     15  C   UNL     1     -46.012 -64.628  33.007  0.00  0.00    +0.000 C 
ATOM     16  C   UNL     1     -48.858 -65.728  31.500  0.00  0.00    +0.000 C 
ATOM     17  C   UNL     1     -45.956 -66.967  33.218  0.00  0.00    +0.000 C 
ATOM     18  C   UNL     1     -46.175 -68.398  31.416  0.00  0.00    +0.000 C 
ATOM     19  C   UNL     1     -45.639 -68.288  32.745  0.00  0.00    +0.000 C 
ENDROOT
BRANCH   5  20
ATOM     20  C   UNL     1     -44.920 -61.678  26.077  0.00  0.00    +0.000 C 
ATOM     21  C   UNL     1     -45.171 -60.301  25.523  0.00  0.00    +0.000 C 
BRANCH  20  22
ATOM     22  C   UNL     1     -44.881 -62.730  25.120  0.00  0.00    +0.000 C 
ATOM     23  C   UNL     1     -44.841 -63.868  24.088  0.00  0.00    +0.000 C 
BRANCH  23  24
ATOM     24  C   UNL     1     -44.805 -64.936  23.142  0.00  0.00    +0.000 C 
ATOM     25  C   UNL     1     -44.784 -66.318  23.573  0.00  0.00    +0.000 C 
ATOM     26  C   UNL     1     -44.704 -67.487  22.615  0.00  0.00    +0.000 C 
ATOM     27  C   UNL     1     -44.845 -66.721  25.032  0.00  0.00    +0.000 C 
BRANCH  24  28
ATOM     28  C   UNL     1     -44.787 -64.640  21.753  0.00  0.00    +0.000 C 
ATOM     29  C   UNL     1     -44.792 -64.256  20.268  0.00  0.00    +0.000 C 
ENDBRANCH  24  28
ENDBRANCH  23  24
ENDBRANCH  20  22
ENDBRANCH   5  20
BRANCH  19  30
ATOM     30  O   UNL     1     -45.733 -69.351  33.639  0.00  0.00    +0.000 OA
BRANCH  30  32
ATOM     31  O   UNL     1     -43.614 -70.309  33.630  0.00  0.00    +0.000 OA
ATOM     32  C   UNL     1     -44.515 -69.677  34.161  0.00  0.00    +0.000 C 
BRANCH  32  33
ATOM     33  C   UNL     1     -44.350 -69.144  35.491  0.00  0.00    +0.000 C 
ATOM     34  C   UNL     1     -44.216 -68.682  36.593  0.00  0.00    +0.000 C 
BRANCH  34  35
ATOM     35  C   UNL     1     -44.059 -68.116  37.892  0.00  0.00    +0.000 A 
ATOM     36  C   UNL     1     -44.960 -67.151  38.339  0.00  0.00    +0.000 A 
ATOM     37  C   UNL     1     -43.007 -68.522  38.708  0.00  0.00    +0.000 A 
ATOM     38  C   UNL     1     -44.821 -66.581  39.608  0.00  0.00    +0.000 A 
ATOM     39  C   UNL     1     -42.855 -67.962  39.974  0.00  0.00    +0.000 A 
ATOM     40  C   UNL     1     -43.759 -66.996  40.416  0.00  0.00    +0.000 A 
BRANCH  38  41
ATOM     41  O   UNL     1     -45.662 -65.625  40.123  0.00  0.00    +0.000 OA
ATOM     42  C   UNL     1     -45.998 -64.579  39.248  0.00  0.00    +0.000 C 
ENDBRANCH  38  41
BRANCH  40  43
ATOM     43  O   UNL     1     -43.604 -66.448  41.659  0.00  0.00    +0.000 OA
ATOM     44  H   UNL     1     -44.013 -65.562  41.664  0.00  0.00    +0.000 HD
ENDBRANCH  40  43
ENDBRANCH  34  35
ENDBRANCH  32  33
ENDBRANCH  30  32
ENDBRANCH  19  30
TORSDOF 10
ENDMDL
