MODEL 1
REMARK VINA RESULT:      -4.3      0.000      0.000
REMARK  Name = 92041_2Ethoxy5fluorouracil.pdbqt.pdb
REMARK  2 active torsions:
REMARK  status: ('A' for Active; 'I' for Inactive)
REMARK    1  A    between atoms: C_5  and  O_10
REMARK    2  A    between atoms: O_10  and  C_11
REMARK                            x       y       z     vdW  Elec       q    Type
REMARK                         _______ _______ _______ _____ _____    ______ ____
ROOT
ATOM      1  F   UNL     1     -63.755 -65.143  37.851  0.00  0.00    +0.000 F 
ATOM      2  O   UNL     1     -65.123 -64.677  40.310  0.00  0.00    +0.000 OA
ATOM      3  N   UNL     1     -63.089 -64.724  41.378  0.00  0.00    +0.000 N 
ATOM      4  N   UNL     1     -61.028 -64.901  40.232  0.00  0.00    +0.000 NA
ATOM      5  C   UNL     1     -61.702 -64.842  41.345  0.00  0.00    +0.000 C 
ATOM      6  C   UNL     1     -63.901 -64.691  40.242  0.00  0.00    +0.000 C 
ATOM      7  C   UNL     1     -63.135 -64.696  38.956  0.00  0.00    +0.000 C 
ATOM      8  C   UNL     1     -61.872 -64.826  39.195  0.00  0.00    +0.000 C 
ATOM      9  H   UNL     1     -63.565 -64.722  42.268  0.00  0.00    +0.000 HD
ENDROOT
BRANCH   5  10
ATOM     10  O   UNL     1     -61.155 -64.886  42.582  0.00  0.00    +0.000 OA
BRANCH  10  11
ATOM     11  C   UNL     1     -61.079 -63.728  43.230  0.00  0.00    +0.000 C 
ATOM     12  C   UNL     1     -60.931 -62.390  43.962  0.00  0.00    +0.000 C 
ENDBRANCH  10  11
ENDBRANCH   5  10
TORSDOF 2
ENDMDL
MODEL 2
REMARK VINA RESULT:      -3.9     34.029     34.742
REMARK  Name = 92041_2Ethoxy5fluorouracil.pdbqt.pdb
REMARK  2 active torsions:
REMARK  status: ('A' for Active; 'I' for Inactive)
REMARK    1  A    between atoms: C_5  and  O_10
REMARK    2  A    between atoms: O_10  and  C_11
REMARK                            x       y       z     vdW  Elec       q    Type
REMARK                         _______ _______ _______ _____ _____    ______ ____
ROOT
ATOM      1  F   UNL     1     -34.837 -47.174  53.249  0.00  0.00    +0.000 F 
ATOM      2  O   UNL     1     -32.697 -47.728  51.447  0.00  0.00    +0.000 OA
ATOM      3  N   UNL     1     -32.829 -49.936  52.068  0.00  0.00    +0.000 N 
ATOM      4  N   UNL     1     -34.494 -50.775  53.523  0.00  0.00    +0.000 NA
ATOM      5  C   UNL     1     -33.421 -50.957  52.808  0.00  0.00    +0.000 C 
ATOM      6  C   UNL     1     -33.293 -48.619  52.036  0.00  0.00    +0.000 C 
ATOM      7  C   UNL     1     -34.562 -48.411  52.804  0.00  0.00    +0.000 C 
ATOM      8  C   UNL     1     -34.895 -49.502  53.411  0.00  0.00    +0.000 C 
ATOM      9  H   UNL     1     -31.976 -50.122  51.562  0.00  0.00    +0.000 HD
ENDROOT
BRANCH   5  10
ATOM     10  O   UNL     1     -32.758 -52.132  52.695  0.00  0.00    +0.000 OA
BRANCH  10  11
ATOM     11  C   UNL     1     -32.313 -52.664  53.829  0.00  0.00    +0.000 C 
ATOM     12  C   UNL     1     -31.777 -53.221  55.151  0.00  0.00    +0.000 C 
ENDBRANCH  10  11
ENDBRANCH   5  10
TORSDOF 2
ENDMDL
MODEL 3
REMARK VINA RESULT:      -3.9     36.132     36.888
REMARK  Name = 92041_2Ethoxy5fluorouracil.pdbqt.pdb
REMARK  2 active torsions:
REMARK  status: ('A' for Active; 'I' for Inactive)
REMARK    1  A    between atoms: C_5  and  O_10
REMARK    2  A    between atoms: O_10  and  C_11
REMARK                            x       y       z     vdW  Elec       q    Type
REMARK                         _______ _______ _______ _____ _____    ______ ____
ROOT
ATOM      1  F   UNL     1     -36.835 -63.182  69.715  0.00  0.00    +0.000 F 
ATOM      2  O   UNL     1     -38.422 -62.014  67.654  0.00  0.00    +0.000 OA
ATOM      3  N   UNL     1     -36.961 -62.897  66.115  0.00  0.00    +0.000 N 
ATOM      4  N   UNL     1     -35.169 -64.325  66.701  0.00  0.00    +0.000 NA
ATOM      5  C   UNL     1     -35.831 -63.650  65.805  0.00  0.00    +0.000 C 
ATOM      6  C   UNL     1     -37.481 -62.756  67.404  0.00  0.00    +0.000 C 
ATOM      7  C   UNL     1     -36.767 -63.576  68.433  0.00  0.00    +0.000 C 
ATOM      8  C   UNL     1     -35.751 -64.168  67.898  0.00  0.00    +0.000 C 
ATOM      9  H   UNL     1     -37.413 -62.361  65.389  0.00  0.00    +0.000 HD
ENDROOT
BRANCH   5  10
ATOM     10  O   UNL     1     -35.515 -63.594  64.490  0.00  0.00    +0.000 OA
BRANCH  10  11
ATOM     11  C   UNL     1     -35.201 -64.751  63.915  0.00  0.00    +0.000 C 
ATOM     12  C   UNL     1     -34.803 -66.096  63.300  0.00  0.00    +0.000 C 
ENDBRANCH  10  11
ENDBRANCH   5  10
TORSDOF 2
ENDMDL
MODEL 4
REMARK VINA RESULT:      -3.8     20.678     21.472
REMARK  Name = 92041_2Ethoxy5fluorouracil.pdbqt.pdb
REMARK  2 active torsions:
REMARK  status: ('A' for Active; 'I' for Inactive)
REMARK    1  A    between atoms: C_5  and  O_10
REMARK    2  A    between atoms: O_10  and  C_11
REMARK                            x       y       z     vdW  Elec       q    Type
REMARK                         _______ _______ _______ _____ _____    ______ ____
ROOT
ATOM      1  F   UNL     1     -63.019 -40.454  39.194  0.00  0.00    +0.000 F 
ATOM      2  O   UNL     1     -61.454 -42.586  40.262  0.00  0.00    +0.000 OA
ATOM      3  N   UNL     1     -63.079 -44.049  39.555  0.00  0.00    +0.000 N 
ATOM      4  N   UNL     1     -64.958 -43.382  38.283  0.00  0.00    +0.000 NA
ATOM      5  C   UNL     1     -64.290 -44.304  38.916  0.00  0.00    +0.000 C 
ATOM      6  C   UNL     1     -62.473 -42.792  39.616  0.00  0.00    +0.000 C 
ATOM      7  C   UNL     1     -63.198 -41.737  38.839  0.00  0.00    +0.000 C 
ATOM      8  C   UNL     1     -64.295 -42.220  38.356  0.00  0.00    +0.000 C 
ATOM      9  H   UNL     1     -62.623 -44.791  40.064  0.00  0.00    +0.000 HD
ENDROOT
BRANCH   5  10
ATOM     10  O   UNL     1     -64.677 -45.595  39.032  0.00  0.00    +0.000 OA
BRANCH  10  11
ATOM     11  C   UNL     1     -65.940 -45.797  39.396  0.00  0.00    +0.000 C 
ATOM     12  C   UNL     1     -67.409 -46.042  39.754  0.00  0.00    +0.000 C 
ENDBRANCH  10  11
ENDBRANCH   5  10
TORSDOF 2
ENDMDL
MODEL 5
REMARK VINA RESULT:      -3.8      3.656      5.176
REMARK  Name = 92041_2Ethoxy5fluorouracil.pdbqt.pdb
REMARK  2 active torsions:
REMARK  status: ('A' for Active; 'I' for Inactive)
REMARK    1  A    between atoms: C_5  and  O_10
REMARK    2  A    between atoms: O_10  and  C_11
REMARK                            x       y       z     vdW  Elec       q    Type
REMARK                         _______ _______ _______ _____ _____    ______ ____
ROOT
ATOM      1  F   UNL     1     -65.931 -66.599  42.064  0.00  0.00    +0.000 F 
ATOM      2  O   UNL     1     -66.488 -68.009  39.648  0.00  0.00    +0.000 OA
ATOM      3  N   UNL     1     -64.952 -66.668  38.587  0.00  0.00    +0.000 N 
ATOM      4  N   UNL     1     -63.613 -65.083  39.722  0.00  0.00    +0.000 NA
ATOM      5  C   UNL     1     -64.007 -65.646  38.615  0.00  0.00    +0.000 C 
ATOM      6  C   UNL     1     -65.597 -67.172  39.719  0.00  0.00    +0.000 C 
ATOM      7  C   UNL     1     -65.108 -66.577  41.003  0.00  0.00    +0.000 C 
ATOM      8  C   UNL     1     -64.248 -65.645  40.759  0.00  0.00    +0.000 C 
ATOM      9  H   UNL     1     -65.250 -67.042  37.699  0.00  0.00    +0.000 HD
ENDROOT
BRANCH   5  10
ATOM     10  O   UNL     1     -63.560 -65.318  37.380  0.00  0.00    +0.000 OA
BRANCH  10  11
ATOM     11  C   UNL     1     -63.361 -66.331  36.542  0.00  0.00    +0.000 C 
ATOM     12  C   UNL     1     -63.192 -67.492  35.557  0.00  0.00    +0.000 C 
ENDBRANCH  10  11
ENDBRANCH   5  10
TORSDOF 2
ENDMDL
MODEL 6
REMARK VINA RESULT:      -3.7      2.183      2.277
REMARK  Name = 92041_2Ethoxy5fluorouracil.pdbqt.pdb
REMARK  2 active torsions:
REMARK  status: ('A' for Active; 'I' for Inactive)
REMARK    1  A    between atoms: C_5  and  O_10
REMARK    2  A    between atoms: O_10  and  C_11
REMARK                            x       y       z     vdW  Elec       q    Type
REMARK                         _______ _______ _______ _____ _____    ______ ____
ROOT
ATOM      1  F   UNL     1     -64.713 -68.097  39.592  0.00  0.00    +0.000 F 
ATOM      2  O   UNL     1     -65.397 -65.888  41.262  0.00  0.00    +0.000 OA
ATOM      3  N   UNL     1     -63.153 -65.560  41.639  0.00  0.00    +0.000 N 
ATOM      4  N   UNL     1     -61.462 -66.804  40.550  0.00  0.00    +0.000 NA
ATOM      5  C   UNL     1     -61.822 -65.904  41.422  0.00  0.00    +0.000 C 
ATOM      6  C   UNL     1     -64.235 -66.152  40.982  0.00  0.00    +0.000 C 
ATOM      7  C   UNL     1     -63.831 -67.143  39.934  0.00  0.00    +0.000 C 
ATOM      8  C   UNL     1     -62.548 -67.295  39.941  0.00  0.00    +0.000 C 
ATOM      9  H   UNL     1     -63.380 -64.885  42.354  0.00  0.00    +0.000 HD
ENDROOT
BRANCH   5  10
ATOM     10  O   UNL     1     -60.970 -65.207  42.209  0.00  0.00    +0.000 OA
BRANCH  10  11
ATOM     11  C   UNL     1     -60.081 -64.445  41.579  0.00  0.00    +0.000 C 
ATOM     12  C   UNL     1     -59.043 -63.541  40.907  0.00  0.00    +0.000 C 
ENDBRANCH  10  11
ENDBRANCH   5  10
TORSDOF 2
ENDMDL
MODEL 7
REMARK VINA RESULT:      -3.6     28.412     29.475
REMARK  Name = 92041_2Ethoxy5fluorouracil.pdbqt.pdb
REMARK  2 active torsions:
REMARK  status: ('A' for Active; 'I' for Inactive)
REMARK    1  A    between atoms: C_5  and  O_10
REMARK    2  A    between atoms: O_10  and  C_11
REMARK                            x       y       z     vdW  Elec       q    Type
REMARK                         _______ _______ _______ _____ _____    ______ ____
ROOT
ATOM      1  F   UNL     1     -34.384 -58.053  48.884  0.00  0.00    +0.000 F 
ATOM      2  O   UNL     1     -35.289 -60.705  48.354  0.00  0.00    +0.000 OA
ATOM      3  N   UNL     1     -34.349 -60.540  46.263  0.00  0.00    +0.000 N 
ATOM      4  N   UNL     1     -33.067 -58.681  45.562  0.00  0.00    +0.000 NA
ATOM      5  C   UNL     1     -33.629 -59.829  45.308  0.00  0.00    +0.000 C 
ATOM      6  C   UNL     1     -34.576 -60.096  47.568  0.00  0.00    +0.000 C 
ATOM      7  C   UNL     1     -33.884 -58.808  47.892  0.00  0.00    +0.000 C 
ATOM      8  C   UNL     1     -33.298 -58.344  46.838  0.00  0.00    +0.000 C 
ATOM      9  H   UNL     1     -34.797 -61.406  46.002  0.00  0.00    +0.000 HD
ENDROOT
BRANCH   5  10
ATOM     10  O   UNL     1     -33.585 -60.462  44.112  0.00  0.00    +0.000 OA
BRANCH  10  11
ATOM     11  C   UNL     1     -34.235 -61.619  44.039  0.00  0.00    +0.000 C 
ATOM     12  C   UNL     1     -34.928 -62.983  43.958  0.00  0.00    +0.000 C 
ENDBRANCH  10  11
ENDBRANCH   5  10
TORSDOF 2
ENDMDL
MODEL 8
REMARK VINA RESULT:      -3.6     27.184     28.272
REMARK  Name = 92041_2Ethoxy5fluorouracil.pdbqt.pdb
REMARK  2 active torsions:
REMARK  status: ('A' for Active; 'I' for Inactive)
REMARK    1  A    between atoms: C_5  and  O_10
REMARK    2  A    between atoms: O_10  and  C_11
REMARK                            x       y       z     vdW  Elec       q    Type
REMARK                         _______ _______ _______ _____ _____    ______ ____
ROOT
ATOM      1  F   UNL     1     -34.859 -63.566  43.812  0.00  0.00    +0.000 F 
ATOM      2  O   UNL     1     -36.963 -62.574  45.461  0.00  0.00    +0.000 OA
ATOM      3  N   UNL     1     -35.405 -61.307  46.579  0.00  0.00    +0.000 N 
ATOM      4  N   UNL     1     -33.134 -61.178  45.930  0.00  0.00    +0.000 NA
ATOM      5  C   UNL     1     -34.095 -60.870  46.755  0.00  0.00    +0.000 C 
ATOM      6  C   UNL     1     -35.823 -62.136  45.535  0.00  0.00    +0.000 C 
ATOM      7  C   UNL     1     -34.742 -62.447  44.547  0.00  0.00    +0.000 C 
ATOM      8  C   UNL     1     -33.622 -61.941  44.943  0.00  0.00    +0.000 C 
ATOM      9  H   UNL     1     -36.103 -61.071  47.269  0.00  0.00    +0.000 HD
ENDROOT
BRANCH   5  10
ATOM     10  O   UNL     1     -33.947 -60.105  47.862  0.00  0.00    +0.000 OA
BRANCH  10  11
ATOM     11  C   UNL     1     -35.066 -59.776  48.499  0.00  0.00    +0.000 C 
ATOM     12  C   UNL     1     -36.326 -59.346  49.258  0.00  0.00    +0.000 C 
ENDBRANCH  10  11
ENDBRANCH   5  10
TORSDOF 2
ENDMDL
MODEL 9
REMARK VINA RESULT:      -3.5     19.986     20.685
REMARK  Name = 92041_2Ethoxy5fluorouracil.pdbqt.pdb
REMARK  2 active torsions:
REMARK  status: ('A' for Active; 'I' for Inactive)
REMARK    1  A    between atoms: C_5  and  O_10
REMARK    2  A    between atoms: O_10  and  C_11
REMARK                            x       y       z     vdW  Elec       q    Type
REMARK                         _______ _______ _______ _____ _____    ______ ____
ROOT
ATOM      1  F   UNL     1     -67.002 -46.713  39.991  0.00  0.00    +0.000 F 
ATOM      2  O   UNL     1     -66.949 -44.552  41.850  0.00  0.00    +0.000 OA
ATOM      3  N   UNL     1     -65.005 -43.829  40.858  0.00  0.00    +0.000 N 
ATOM      4  N   UNL     1     -64.085 -44.838  38.927  0.00  0.00    +0.000 NA
ATOM      5  C   UNL     1     -64.017 -43.959  39.887  0.00  0.00    +0.000 C 
ATOM      6  C   UNL     1     -66.145 -44.634  40.931  0.00  0.00    +0.000 C 
ATOM      7  C   UNL     1     -66.267 -45.606  39.798  0.00  0.00    +0.000 C 
ATOM      8  C   UNL     1     -65.219 -45.540  39.046  0.00  0.00    +0.000 C 
ATOM      9  H   UNL     1     -64.884 -43.159  41.602  0.00  0.00    +0.000 HD
ENDROOT
BRANCH   5  10
ATOM     10  O   UNL     1     -63.001 -43.082  40.059  0.00  0.00    +0.000 OA
BRANCH  10  11
ATOM     11  C   UNL     1     -62.985 -42.036  39.239  0.00  0.00    +0.000 C 
ATOM     12  C   UNL     1     -63.002 -40.799  38.335  0.00  0.00    +0.000 C 
ENDBRANCH  10  11
ENDBRANCH   5  10
TORSDOF 2
ENDMDL
