MODEL 1
REMARK VINA RESULT:      -4.7      0.000      0.000
REMARK  Name = 95716_6Bromoisatin.pdbqt.pdb
REMARK  0 active torsions:
REMARK  status: ('A' for Active; 'I' for Inactive)
REMARK                            x       y       z     vdW  Elec       q    Type
REMARK                         _______ _______ _______ _____ _____    ______ ____
ROOT
ATOM      1 BR   UNL     1     -67.487 -45.904  43.253  0.00  0.00    +0.000 Br
ATOM      2  O   UNL     1     -64.643 -43.964  37.180  0.00  0.00    +0.000 OA
ATOM      3  O   UNL     1     -63.434 -41.578  38.565  0.00  0.00    +0.000 OA
ATOM      4  N   UNL     1     -64.535 -42.538  40.383  0.00  0.00    +0.000 N 
ATOM      5  C   UNL     1     -65.326 -43.668  40.570  0.00  0.00    +0.000 A 
ATOM      6  C   UNL     1     -65.487 -44.381  39.384  0.00  0.00    +0.000 A 
ATOM      7  C   UNL     1     -64.748 -43.664  38.345  0.00  0.00    +0.000 C 
ATOM      8  C   UNL     1     -65.906 -44.089  41.747  0.00  0.00    +0.000 A 
ATOM      9  C   UNL     1     -66.228 -45.541  39.304  0.00  0.00    +0.000 A 
ATOM     10  C   UNL     1     -64.126 -42.433  39.067  0.00  0.00    +0.000 C 
ATOM     11  C   UNL     1     -66.661 -45.263  41.685  0.00  0.00    +0.000 A 
ATOM     12  C   UNL     1     -66.823 -45.981  40.487  0.00  0.00    +0.000 A 
ATOM     13  H   UNL     1     -64.277 -41.866  41.092  0.00  0.00    +0.000 HD
ENDROOT
TORSDOF 0
ENDMDL
MODEL 2
REMARK VINA RESULT:      -4.3     35.891     36.151
REMARK  Name = 95716_6Bromoisatin.pdbqt.pdb
REMARK  0 active torsions:
REMARK  status: ('A' for Active; 'I' for Inactive)
REMARK                            x       y       z     vdW  Elec       q    Type
REMARK                         _______ _______ _______ _____ _____    ______ ____
ROOT
ATOM      1 BR   UNL     1     -33.976 -61.730  41.297  0.00  0.00    +0.000 Br
ATOM      2  O   UNL     1     -33.060 -59.170  47.728  0.00  0.00    +0.000 OA
ATOM      3  O   UNL     1     -35.417 -60.800  48.658  0.00  0.00    +0.000 OA
ATOM      4  N   UNL     1     -35.403 -61.426  46.412  0.00  0.00    +0.000 N 
ATOM      5  C   UNL     1     -34.618 -61.109  45.306  0.00  0.00    +0.000 A 
ATOM      6  C   UNL     1     -33.611 -60.206  45.637  0.00  0.00    +0.000 A 
ATOM      7  C   UNL     1     -33.746 -59.910  47.063  0.00  0.00    +0.000 C 
ATOM      8  C   UNL     1     -34.761 -61.588  44.022  0.00  0.00    +0.000 A 
ATOM      9  C   UNL     1     -32.698 -59.733  44.717  0.00  0.00    +0.000 A 
ATOM     10  C   UNL     1     -34.964 -60.754  47.538  0.00  0.00    +0.000 C 
ATOM     11  C   UNL     1     -33.846 -61.120  43.077  0.00  0.00    +0.000 A 
ATOM     12  C   UNL     1     -32.830 -60.209  43.412  0.00  0.00    +0.000 A 
ATOM     13  H   UNL     1     -36.192 -62.057  46.423  0.00  0.00    +0.000 HD
ENDROOT
TORSDOF 0
ENDMDL
MODEL 3
REMARK VINA RESULT:      -4.1     36.117     36.292
REMARK  Name = 95716_6Bromoisatin.pdbqt.pdb
REMARK  0 active torsions:
REMARK  status: ('A' for Active; 'I' for Inactive)
REMARK                            x       y       z     vdW  Elec       q    Type
REMARK                         _______ _______ _______ _____ _____    ______ ____
ROOT
ATOM      1 BR   UNL     1     -33.894 -62.790  41.644  0.00  0.00    +0.000 Br
ATOM      2  O   UNL     1     -35.163 -60.877  48.237  0.00  0.00    +0.000 OA
ATOM      3  O   UNL     1     -33.033 -58.762  47.981  0.00  0.00    +0.000 OA
ATOM      4  N   UNL     1     -32.900 -59.677  45.840  0.00  0.00    +0.000 N 
ATOM      5  C   UNL     1     -33.557 -60.702  45.164  0.00  0.00    +0.000 A 
ATOM      6  C   UNL     1     -34.515 -61.312  45.970  0.00  0.00    +0.000 A 
ATOM      7  C   UNL     1     -34.482 -60.638  47.268  0.00  0.00    +0.000 C 
ATOM      8  C   UNL     1     -33.341 -61.113  43.867  0.00  0.00    +0.000 A 
ATOM      9  C   UNL     1     -35.304 -62.357  45.534  0.00  0.00    +0.000 A 
ATOM     10  C   UNL     1     -33.381 -59.548  47.130  0.00  0.00    +0.000 C 
ATOM     11  C   UNL     1     -34.130 -62.170  43.408  0.00  0.00    +0.000 A 
ATOM     12  C   UNL     1     -35.097 -62.785  44.222  0.00  0.00    +0.000 A 
ATOM     13  H   UNL     1     -32.168 -59.090  45.467  0.00  0.00    +0.000 HD
ENDROOT
TORSDOF 0
ENDMDL
MODEL 4
REMARK VINA RESULT:      -4.1     29.716     30.849
REMARK  Name = 95716_6Bromoisatin.pdbqt.pdb
REMARK  0 active torsions:
REMARK  status: ('A' for Active; 'I' for Inactive)
REMARK                            x       y       z     vdW  Elec       q    Type
REMARK                         _______ _______ _______ _____ _____    ______ ____
ROOT
ATOM      1 BR   UNL     1     -68.137 -72.317  26.012  0.00  0.00    +0.000 Br
ATOM      2  O   UNL     1     -61.818 -69.348  26.005  0.00  0.00    +0.000 OA
ATOM      3  O   UNL     1     -60.809 -71.617  24.300  0.00  0.00    +0.000 OA
ATOM      4  N   UNL     1     -63.029 -72.292  24.531  0.00  0.00    +0.000 N 
ATOM      5  C   UNL     1     -64.151 -71.781  25.177  0.00  0.00    +0.000 A 
ATOM      6  C   UNL     1     -63.863 -70.587  25.834  0.00  0.00    +0.000 A 
ATOM      7  C   UNL     1     -62.449 -70.296  25.601  0.00  0.00    +0.000 C 
ATOM      8  C   UNL     1     -65.415 -72.331  25.206  0.00  0.00    +0.000 A 
ATOM      9  C   UNL     1     -64.807 -69.881  26.550  0.00  0.00    +0.000 A 
ATOM     10  C   UNL     1     -61.933 -71.471  24.720  0.00  0.00    +0.000 C 
ATOM     11  C   UNL     1     -66.384 -71.629  25.926  0.00  0.00    +0.000 A 
ATOM     12  C   UNL     1     -66.092 -70.425  26.589  0.00  0.00    +0.000 A 
ATOM     13  H   UNL     1     -62.988 -73.144  23.989  0.00  0.00    +0.000 HD
ENDROOT
TORSDOF 0
ENDMDL
MODEL 5
REMARK VINA RESULT:      -4.1     36.273     36.555
REMARK  Name = 95716_6Bromoisatin.pdbqt.pdb
REMARK  0 active torsions:
REMARK  status: ('A' for Active; 'I' for Inactive)
REMARK                            x       y       z     vdW  Elec       q    Type
REMARK                         _______ _______ _______ _____ _____    ______ ____
ROOT
ATOM      1 BR   UNL     1     -31.270 -62.004  44.021  0.00  0.00    +0.000 Br
ATOM      2  O   UNL     1     -33.900 -57.511  48.672  0.00  0.00    +0.000 OA
ATOM      3  O   UNL     1     -36.222 -59.383  49.094  0.00  0.00    +0.000 OA
ATOM      4  N   UNL     1     -35.042 -60.614  47.502  0.00  0.00    +0.000 N 
ATOM      5  C   UNL     1     -33.856 -60.432  46.798  0.00  0.00    +0.000 A 
ATOM      6  C   UNL     1     -33.242 -59.228  47.134  0.00  0.00    +0.000 A 
ATOM      7  C   UNL     1     -34.089 -58.575  48.132  0.00  0.00    +0.000 C 
ATOM      8  C   UNL     1     -33.299 -61.289  45.873  0.00  0.00    +0.000 A 
ATOM      9  C   UNL     1     -32.052 -58.813  46.574  0.00  0.00    +0.000 A 
ATOM     10  C   UNL     1     -35.287 -59.546  48.345  0.00  0.00    +0.000 C 
ATOM     11  C   UNL     1     -32.094 -60.886  45.295  0.00  0.00    +0.000 A 
ATOM     12  C   UNL     1     -31.475 -59.670  45.636  0.00  0.00    +0.000 A 
ATOM     13  H   UNL     1     -35.664 -61.408  47.430  0.00  0.00    +0.000 HD
ENDROOT
TORSDOF 0
ENDMDL
MODEL 6
REMARK VINA RESULT:      -4.1     24.321     25.321
REMARK  Name = 95716_6Bromoisatin.pdbqt.pdb
REMARK  0 active torsions:
REMARK  status: ('A' for Active; 'I' for Inactive)
REMARK                            x       y       z     vdW  Elec       q    Type
REMARK                         _______ _______ _______ _____ _____    ______ ____
ROOT
ATOM      1 BR   UNL     1     -38.583 -42.127  49.609  0.00  0.00    +0.000 Br
ATOM      2  O   UNL     1     -45.112 -40.009  48.335  0.00  0.00    +0.000 OA
ATOM      3  O   UNL     1     -45.435 -39.402  51.268  0.00  0.00    +0.000 OA
ATOM      4  N   UNL     1     -43.237 -40.182  51.295  0.00  0.00    +0.000 N 
ATOM      5  C   UNL     1     -42.350 -40.660  50.334  0.00  0.00    +0.000 A 
ATOM      6  C   UNL     1     -42.926 -40.667  49.066  0.00  0.00    +0.000 A 
ATOM      7  C   UNL     1     -44.289 -40.157  49.207  0.00  0.00    +0.000 C 
ATOM      8  C   UNL     1     -41.056 -41.088  50.539  0.00  0.00    +0.000 A 
ATOM      9  C   UNL     1     -42.253 -41.096  47.941  0.00  0.00    +0.000 A 
ATOM     10  C   UNL     1     -44.450 -39.845  50.724  0.00  0.00    +0.000 C 
ATOM     11  C   UNL     1     -40.359 -41.526  49.411  0.00  0.00    +0.000 A 
ATOM     12  C   UNL     1     -40.941 -41.533  48.132  0.00  0.00    +0.000 A 
ATOM     13  H   UNL     1     -43.050 -40.083  52.283  0.00  0.00    +0.000 HD
ENDROOT
TORSDOF 0
ENDMDL
MODEL 7
REMARK VINA RESULT:      -3.9     35.065     36.089
REMARK  Name = 95716_6Bromoisatin.pdbqt.pdb
REMARK  0 active torsions:
REMARK  status: ('A' for Active; 'I' for Inactive)
REMARK                            x       y       z     vdW  Elec       q    Type
REMARK                         _______ _______ _______ _____ _____    ______ ____
ROOT
ATOM      1 BR   UNL     1     -61.311 -80.301  54.857  0.00  0.00    +0.000 Br
ATOM      2  O   UNL     1     -59.164 -73.677  55.362  0.00  0.00    +0.000 OA
ATOM      3  O   UNL     1     -57.182 -74.203  53.157  0.00  0.00    +0.000 OA
ATOM      4  N   UNL     1     -58.156 -76.318  53.286  0.00  0.00    +0.000 N 
ATOM      5  C   UNL     1     -59.158 -76.895  54.061  0.00  0.00    +0.000 A 
ATOM      6  C   UNL     1     -59.692 -75.981  54.967  0.00  0.00    +0.000 A 
ATOM      7  C   UNL     1     -58.989 -74.714  54.769  0.00  0.00    +0.000 C 
ATOM      8  C   UNL     1     -59.613 -78.194  53.997  0.00  0.00    +0.000 A 
ATOM      9  C   UNL     1     -60.701 -76.306  55.850  0.00  0.00    +0.000 A 
ATOM     10  C   UNL     1     -57.967 -74.992  53.629  0.00  0.00    +0.000 C 
ATOM     11  C   UNL     1     -60.634 -78.541  54.884  0.00  0.00    +0.000 A 
ATOM     12  C   UNL     1     -61.173 -77.618  55.797  0.00  0.00    +0.000 A 
ATOM     13  H   UNL     1     -57.621 -76.779  52.563  0.00  0.00    +0.000 HD
ENDROOT
TORSDOF 0
ENDMDL
MODEL 8
REMARK VINA RESULT:      -3.8     21.752     22.714
REMARK  Name = 95716_6Bromoisatin.pdbqt.pdb
REMARK  0 active torsions:
REMARK  status: ('A' for Active; 'I' for Inactive)
REMARK                            x       y       z     vdW  Elec       q    Type
REMARK                         _______ _______ _______ _____ _____    ______ ____
ROOT
ATOM      1 BR   UNL     1     -63.078 -44.958  18.495  0.00  0.00    +0.000 Br
ATOM      2  O   UNL     1     -64.015 -51.854  19.050  0.00  0.00    +0.000 OA
ATOM      3  O   UNL     1     -61.566 -52.274  17.349  0.00  0.00    +0.000 OA
ATOM      4  N   UNL     1     -61.585 -49.943  17.394  0.00  0.00    +0.000 N 
ATOM      5  C   UNL     1     -62.402 -48.976  17.972  0.00  0.00    +0.000 A 
ATOM      6  C   UNL     1     -63.448 -49.553  18.689  0.00  0.00    +0.000 A 
ATOM      7  C   UNL     1     -63.304 -51.004  18.569  0.00  0.00    +0.000 C 
ATOM      8  C   UNL     1     -62.256 -47.608  17.890  0.00  0.00    +0.000 A 
ATOM      9  C   UNL     1     -64.398 -48.809  19.356  0.00  0.00    +0.000 A 
ATOM     10  C   UNL     1     -62.038 -51.215  17.690  0.00  0.00    +0.000 C 
ATOM     11  C   UNL     1     -63.209 -46.838  18.560  0.00  0.00    +0.000 A 
ATOM     12  C   UNL     1     -64.264 -47.422  19.283  0.00  0.00    +0.000 A 
ATOM     13  H   UNL     1     -60.765 -49.771  16.828  0.00  0.00    +0.000 HD
ENDROOT
TORSDOF 0
ENDMDL
MODEL 9
REMARK VINA RESULT:      -3.7     22.635     23.642
REMARK  Name = 95716_6Bromoisatin.pdbqt.pdb
REMARK  0 active torsions:
REMARK  status: ('A' for Active; 'I' for Inactive)
REMARK                            x       y       z     vdW  Elec       q    Type
REMARK                         _______ _______ _______ _____ _____    ______ ____
ROOT
ATOM      1 BR   UNL     1     -60.649 -45.726  17.118  0.00  0.00    +0.000 Br
ATOM      2  O   UNL     1     -62.466 -52.464  16.897  0.00  0.00    +0.000 OA
ATOM      3  O   UNL     1     -64.266 -52.006  19.268  0.00  0.00    +0.000 OA
ATOM      4  N   UNL     1     -63.425 -49.844  19.023  0.00  0.00    +0.000 N 
ATOM      5  C   UNL     1     -62.531 -49.228  18.152  0.00  0.00    +0.000 A 
ATOM      6  C   UNL     1     -62.031 -50.128  17.213  0.00  0.00    +0.000 A 
ATOM      7  C   UNL     1     -62.643 -51.427  17.491  0.00  0.00    +0.000 C 
ATOM      8  C   UNL     1     -62.144 -47.906  18.157  0.00  0.00    +0.000 A 
ATOM      9  C   UNL     1     -61.127 -49.765  16.237  0.00  0.00    +0.000 A 
ATOM     10  C   UNL     1     -63.572 -51.184  18.716  0.00  0.00    +0.000 C 
ATOM     11  C   UNL     1     -61.228 -47.520  17.176  0.00  0.00    +0.000 A 
ATOM     12  C   UNL     1     -60.724 -48.429  16.230  0.00  0.00    +0.000 A 
ATOM     13  H   UNL     1     -63.917 -49.400  19.786  0.00  0.00    +0.000 HD
ENDROOT
TORSDOF 0
ENDMDL
