MODEL 1
REMARK VINA RESULT:      -7.1      0.000      0.000
REMARK  Name = 969516_Curcumin.pdbqt.pdb
REMARK  8 active torsions:
REMARK  status: ('A' for Active; 'I' for Inactive)
REMARK    1  A    between atoms: C_3  and  C_5
REMARK    2  A    between atoms: C_4  and  C_6
REMARK    3  A    between atoms: C_8  and  O_12
REMARK    4  A    between atoms: C_10  and  O_14
REMARK    5  A    between atoms: C_17  and  C_19
REMARK    6  A    between atoms: C_18  and  C_20
REMARK    7  A    between atoms: C_22  and  O_26
REMARK    8  A    between atoms: C_24  and  O_28
REMARK                            x       y       z     vdW  Elec       q    Type
REMARK                         _______ _______ _______ _____ _____    ______ ____
ROOT
ATOM      1  C   UNL     1     -43.585 -55.344  35.135  0.00  0.00    +0.000 C 
ATOM      2  O   UNL     1     -44.076 -55.158  37.366  0.00  0.00    +0.000 OA
ATOM      3  C   UNL     1     -43.684 -55.872  36.456  0.00  0.00    +0.000 C 
ATOM      4  O   UNL     1     -42.823 -55.402  32.975  0.00  0.00    +0.000 OA
ATOM      5  C   UNL     1     -43.483 -54.812  33.817  0.00  0.00    +0.000 C 
ENDROOT
BRANCH   3   7
ATOM      6  C   UNL     1     -43.026 -58.390  36.915  0.00  0.00    +0.000 C 
ATOM      7  C   UNL     1     -43.325 -57.245  36.706  0.00  0.00    +0.000 C 
BRANCH   6   8
ATOM      8  C   UNL     1     -42.672 -59.750  37.160  0.00  0.00    +0.000 A 
ATOM      9  C   UNL     1     -43.455 -60.528  38.013  0.00  0.00    +0.000 A 
ATOM     10  C   UNL     1     -43.122 -61.862  38.265  0.00  0.00    +0.000 A 
ATOM     11  C   UNL     1     -41.547 -60.298  36.551  0.00  0.00    +0.000 A 
ATOM     12  C   UNL     1     -41.990 -62.402  37.646  0.00  0.00    +0.000 A 
ATOM     13  C   UNL     1     -41.207 -61.625  36.793  0.00  0.00    +0.000 A 
BRANCH  10  14
ATOM     14  O   UNL     1     -43.844 -62.689  39.090  0.00  0.00    +0.000 OA
ATOM     15  C   UNL     1     -43.748 -62.426  40.461  0.00  0.00    +0.000 C 
ENDBRANCH  10  14
BRANCH  12  16
ATOM     16  O   UNL     1     -41.587 -63.696  37.832  0.00  0.00    +0.000 OA
ATOM     17  H   UNL     1     -41.789 -64.234  37.048  0.00  0.00    +0.000 HD
ENDBRANCH  12  16
ENDBRANCH   6   8
ENDBRANCH   3   7
BRANCH   5  19
ATOM     18  C   UNL     1     -44.721 -52.559  33.207  0.00  0.00    +0.000 C 
ATOM     19  C   UNL     1     -44.159 -53.584  33.486  0.00  0.00    +0.000 C 
BRANCH  18  20
ATOM     20  C   UNL     1     -45.383 -51.341  32.876  0.00  0.00    +0.000 A 
ATOM     21  C   UNL     1     -45.464 -50.934  31.545  0.00  0.00    +0.000 A 
ATOM     22  C   UNL     1     -46.111 -49.743  31.204  0.00  0.00    +0.000 A 
ATOM     23  C   UNL     1     -45.949 -50.559  33.882  0.00  0.00    +0.000 A 
ATOM     24  C   UNL     1     -46.673 -48.969  32.222  0.00  0.00    +0.000 A 
ATOM     25  C   UNL     1     -46.595 -49.371  33.555  0.00  0.00    +0.000 A 
BRANCH  22  26
ATOM     26  O   UNL     1     -46.235 -49.269  29.920  0.00  0.00    +0.000 OA
ATOM     27  C   UNL     1     -45.030 -48.957  29.271  0.00  0.00    +0.000 C 
ENDBRANCH  22  26
BRANCH  24  28
ATOM     28  O   UNL     1     -47.310 -47.800  31.909  0.00  0.00    +0.000 OA
ATOM     29  H   UNL     1     -46.891 -47.073  32.406  0.00  0.00    +0.000 HD
ENDBRANCH  24  28
ENDBRANCH  18  20
ENDBRANCH   5  19
TORSDOF 8
ENDMDL
MODEL 2
REMARK VINA RESULT:      -7.1      7.644     10.291
REMARK  Name = 969516_Curcumin.pdbqt.pdb
REMARK  8 active torsions:
REMARK  status: ('A' for Active; 'I' for Inactive)
REMARK    1  A    between atoms: C_3  and  C_5
REMARK    2  A    between atoms: C_4  and  C_6
REMARK    3  A    between atoms: C_8  and  O_12
REMARK    4  A    between atoms: C_10  and  O_14
REMARK    5  A    between atoms: C_17  and  C_19
REMARK    6  A    between atoms: C_18  and  C_20
REMARK    7  A    between atoms: C_22  and  O_26
REMARK    8  A    between atoms: C_24  and  O_28
REMARK                            x       y       z     vdW  Elec       q    Type
REMARK                         _______ _______ _______ _____ _____    ______ ____
ROOT
ATOM      1  C   UNL     1     -47.682 -62.217  38.118  0.00  0.00    +0.000 C 
ATOM      2  O   UNL     1     -45.922 -63.418  38.964  0.00  0.00    +0.000 OA
ATOM      3  C   UNL     1     -46.849 -62.655  39.190  0.00  0.00    +0.000 C 
ATOM      4  O   UNL     1     -49.601 -61.280  37.288  0.00  0.00    +0.000 OA
ATOM      5  C   UNL     1     -48.514 -61.785  37.047  0.00  0.00    +0.000 C 
ENDROOT
BRANCH   3   7
ATOM      6  C   UNL     1     -47.319 -61.808  41.649  0.00  0.00    +0.000 C 
ATOM      7  C   UNL     1     -47.106 -62.193  40.531  0.00  0.00    +0.000 C 
BRANCH   6   8
ATOM      8  C   UNL     1     -47.570 -61.352  42.977  0.00  0.00    +0.000 A 
ATOM      9  C   UNL     1     -48.781 -60.731  43.280  0.00  0.00    +0.000 A 
ATOM     10  C   UNL     1     -49.044 -60.277  44.576  0.00  0.00    +0.000 A 
ATOM     11  C   UNL     1     -46.608 -61.526  43.967  0.00  0.00    +0.000 A 
ATOM     12  C   UNL     1     -48.070 -60.458  45.562  0.00  0.00    +0.000 A 
ATOM     13  C   UNL     1     -46.859 -61.079  45.261  0.00  0.00    +0.000 A 
BRANCH  10  14
ATOM     14  O   UNL     1     -50.212 -59.659  44.949  0.00  0.00    +0.000 OA
ATOM     15  C   UNL     1     -50.937 -59.042  43.922  0.00  0.00    +0.000 C 
ENDBRANCH  10  14
BRANCH  12  16
ATOM     16  O   UNL     1     -48.237 -60.048  46.857  0.00  0.00    +0.000 OA
ATOM     17  H   UNL     1     -47.607 -59.341  47.076  0.00  0.00    +0.000 HD
ENDBRANCH  12  16
ENDBRANCH   6   8
ENDBRANCH   3   7
BRANCH   5  19
ATOM     18  C   UNL     1     -47.700 -62.072  34.550  0.00  0.00    +0.000 C 
ATOM     19  C   UNL     1     -48.070 -61.943  35.686  0.00  0.00    +0.000 C 
BRANCH  18  20
ATOM     20  C   UNL     1     -47.267 -62.223  33.199  0.00  0.00    +0.000 A 
ATOM     21  C   UNL     1     -46.990 -61.095  32.428  0.00  0.00    +0.000 A 
ATOM     22  C   UNL     1     -46.564 -61.227  31.104  0.00  0.00    +0.000 A 
ATOM     23  C   UNL     1     -47.119 -63.497  32.654  0.00  0.00    +0.000 A 
ATOM     24  C   UNL     1     -46.420 -62.510  30.570  0.00  0.00    +0.000 A 
ATOM     25  C   UNL     1     -46.695 -63.641  31.337  0.00  0.00    +0.000 A 
BRANCH  22  26
ATOM     26  O   UNL     1     -46.271 -60.170  30.276  0.00  0.00    +0.000 OA
ATOM     27  C   UNL     1     -45.067 -59.502  30.549  0.00  0.00    +0.000 C 
ENDBRANCH  22  26
BRANCH  24  28
ATOM     28  O   UNL     1     -46.003 -62.659  29.276  0.00  0.00    +0.000 OA
ATOM     29  H   UNL     1     -45.668 -63.568  29.158  0.00  0.00    +0.000 HD
ENDBRANCH  24  28
ENDBRANCH  18  20
ENDBRANCH   5  19
TORSDOF 8
ENDMDL
MODEL 3
REMARK VINA RESULT:      -7.0      7.406     12.424
REMARK  Name = 969516_Curcumin.pdbqt.pdb
REMARK  8 active torsions:
REMARK  status: ('A' for Active; 'I' for Inactive)
REMARK    1  A    between atoms: C_3  and  C_5
REMARK    2  A    between atoms: C_4  and  C_6
REMARK    3  A    between atoms: C_8  and  O_12
REMARK    4  A    between atoms: C_10  and  O_14
REMARK    5  A    between atoms: C_17  and  C_19
REMARK    6  A    between atoms: C_18  and  C_20
REMARK    7  A    between atoms: C_22  and  O_26
REMARK    8  A    between atoms: C_24  and  O_28
REMARK                            x       y       z     vdW  Elec       q    Type
REMARK                         _______ _______ _______ _____ _____    ______ ____
ROOT
ATOM      1  C   UNL     1     -47.565 -62.393  38.259  0.00  0.00    +0.000 C 
ATOM      2  O   UNL     1     -49.546 -61.539  37.483  0.00  0.00    +0.000 OA
ATOM      3  C   UNL     1     -48.430 -61.957  37.213  0.00  0.00    +0.000 C 
ATOM      4  O   UNL     1     -45.728 -63.518  39.042  0.00  0.00    +0.000 OA
ATOM      5  C   UNL     1     -46.705 -62.831  39.306  0.00  0.00    +0.000 C 
ENDROOT
BRANCH   3   7
ATOM      6  C   UNL     1     -47.606 -62.054  34.704  0.00  0.00    +0.000 C 
ATOM      7  C   UNL     1     -47.980 -62.009  35.844  0.00  0.00    +0.000 C 
BRANCH   6   8
ATOM      8  C   UNL     1     -47.163 -62.107  33.348  0.00  0.00    +0.000 A 
ATOM      9  C   UNL     1     -46.802 -60.933  32.689  0.00  0.00    +0.000 A 
ATOM     10  C   UNL     1     -46.366 -60.966  31.362  0.00  0.00    +0.000 A 
ATOM     11  C   UNL     1     -47.094 -63.329  32.686  0.00  0.00    +0.000 A 
ATOM     12  C   UNL     1     -46.299 -62.200  30.706  0.00  0.00    +0.000 A 
ATOM     13  C   UNL     1     -46.660 -63.375  31.364  0.00  0.00    +0.000 A 
BRANCH  10  14
ATOM     14  O   UNL     1     -45.993 -59.853  30.649  0.00  0.00    +0.000 OA
ATOM     15  C   UNL     1     -44.776 -59.267  31.017  0.00  0.00    +0.000 C 
ENDBRANCH  10  14
BRANCH  12  16
ATOM     16  O   UNL     1     -45.885 -62.332  29.409  0.00  0.00    +0.000 OA
ATOM     17  H   UNL     1     -45.348 -61.568  29.142  0.00  0.00    +0.000 HD
ENDBRANCH  12  16
ENDBRANCH   6   8
ENDBRANCH   3   7
BRANCH   5  19
ATOM     18  C   UNL     1     -47.224 -62.149  41.805  0.00  0.00    +0.000 C 
ATOM     19  C   UNL     1     -46.989 -62.461  40.669  0.00  0.00    +0.000 C 
BRANCH  18  20
ATOM     20  C   UNL     1     -47.498 -61.779  43.155  0.00  0.00    +0.000 A 
ATOM     21  C   UNL     1     -48.472 -60.819  43.428  0.00  0.00    +0.000 A 
ATOM     22  C   UNL     1     -48.752 -60.446  44.745  0.00  0.00    +0.000 A 
ATOM     23  C   UNL     1     -46.794 -62.377  44.198  0.00  0.00    +0.000 A 
ATOM     24  C   UNL     1     -48.038 -61.054  45.781  0.00  0.00    +0.000 A 
ATOM     25  C   UNL     1     -47.064 -62.014  45.514  0.00  0.00    +0.000 A 
BRANCH  22  26
ATOM     26  O   UNL     1     -49.694 -59.511  45.101  0.00  0.00    +0.000 OA
ATOM     27  C   UNL     1     -50.589 -59.137  44.087  0.00  0.00    +0.000 C 
ENDBRANCH  22  26
BRANCH  24  28
ATOM     28  O   UNL     1     -48.298 -60.702  47.077  0.00  0.00    +0.000 OA
ATOM     29  H   UNL     1     -48.479 -59.744  47.111  0.00  0.00    +0.000 HD
ENDBRANCH  24  28
ENDBRANCH  18  20
ENDBRANCH   5  19
TORSDOF 8
ENDMDL
MODEL 4
REMARK VINA RESULT:      -6.8     19.396     22.865
REMARK  Name = 969516_Curcumin.pdbqt.pdb
REMARK  8 active torsions:
REMARK  status: ('A' for Active; 'I' for Inactive)
REMARK    1  A    between atoms: C_3  and  C_5
REMARK    2  A    between atoms: C_4  and  C_6
REMARK    3  A    between atoms: C_8  and  O_12
REMARK    4  A    between atoms: C_10  and  O_14
REMARK    5  A    between atoms: C_17  and  C_19
REMARK    6  A    between atoms: C_18  and  C_20
REMARK    7  A    between atoms: C_22  and  O_26
REMARK    8  A    between atoms: C_24  and  O_28
REMARK                            x       y       z     vdW  Elec       q    Type
REMARK                         _______ _______ _______ _____ _____    ______ ____
ROOT
ATOM      1  C   UNL     1     -37.440 -44.238  50.398  0.00  0.00    +0.000 C 
ATOM      2  O   UNL     1     -37.006 -44.071  48.154  0.00  0.00    +0.000 OA
ATOM      3  C   UNL     1     -37.737 -43.768  49.085  0.00  0.00    +0.000 C 
ATOM      4  O   UNL     1     -37.668 -44.179  52.678  0.00  0.00    +0.000 OA
ATOM      5  C   UNL     1     -37.139 -44.705  51.710  0.00  0.00    +0.000 C 
ENDROOT
BRANCH   3   7
ATOM      6  C   UNL     1     -39.865 -42.255  48.683  0.00  0.00    +0.000 C 
ATOM      7  C   UNL     1     -38.897 -42.942  48.866  0.00  0.00    +0.000 C 
BRANCH   6   8
ATOM      8  C   UNL     1     -41.016 -41.439  48.468  0.00  0.00    +0.000 A 
ATOM      9  C   UNL     1     -42.049 -41.435  49.403  0.00  0.00    +0.000 A 
ATOM     10  C   UNL     1     -43.184 -40.642  49.208  0.00  0.00    +0.000 A 
ATOM     11  C   UNL     1     -41.105 -40.650  47.325  0.00  0.00    +0.000 A 
ATOM     12  C   UNL     1     -43.262 -39.852  48.057  0.00  0.00    +0.000 A 
ATOM     13  C   UNL     1     -42.229 -39.855  47.120  0.00  0.00    +0.000 A 
BRANCH  10  14
ATOM     14  O   UNL     1     -44.239 -40.585  50.084  0.00  0.00    +0.000 OA
ATOM     15  C   UNL     1     -44.157 -41.423  51.202  0.00  0.00    +0.000 C 
ENDBRANCH  10  14
BRANCH  12  16
ATOM     16  O   UNL     1     -44.331 -39.044  47.780  0.00  0.00    +0.000 OA
ATOM     17  H   UNL     1     -44.492 -39.005  46.822  0.00  0.00    +0.000 HD
ENDBRANCH  12  16
ENDBRANCH   6   8
ENDBRANCH   3   7
BRANCH   5  19
ATOM     18  C   UNL     1     -35.448 -46.709  52.036  0.00  0.00    +0.000 C 
ATOM     19  C   UNL     1     -36.215 -45.797  51.887  0.00  0.00    +0.000 C 
BRANCH  18  20
ATOM     20  C   UNL     1     -34.538 -47.792  52.219  0.00  0.00    +0.000 A 
ATOM     21  C   UNL     1     -33.390 -47.874  51.432  0.00  0.00    +0.000 A 
ATOM     22  C   UNL     1     -32.488 -48.929  51.599  0.00  0.00    +0.000 A 
ATOM     23  C   UNL     1     -34.797 -48.764  53.182  0.00  0.00    +0.000 A 
ATOM     24  C   UNL     1     -32.761 -49.897  52.569  0.00  0.00    +0.000 A 
ATOM     25  C   UNL     1     -33.907 -49.819  53.358  0.00  0.00    +0.000 A 
BRANCH  22  26
ATOM     26  O   UNL     1     -31.336 -49.085  50.868  0.00  0.00    +0.000 OA
ATOM     27  C   UNL     1     -31.516 -49.477  49.532  0.00  0.00    +0.000 C 
ENDBRANCH  22  26
BRANCH  24  28
ATOM     28  O   UNL     1     -31.890 -50.937  52.748  0.00  0.00    +0.000 OA
ATOM     29  H   UNL     1     -31.024 -50.577  53.018  0.00  0.00    +0.000 HD
ENDBRANCH  24  28
ENDBRANCH  18  20
ENDBRANCH   5  19
TORSDOF 8
ENDMDL
MODEL 5
REMARK VINA RESULT:      -6.8     19.747     20.451
REMARK  Name = 969516_Curcumin.pdbqt.pdb
REMARK  8 active torsions:
REMARK  status: ('A' for Active; 'I' for Inactive)
REMARK    1  A    between atoms: C_3  and  C_5
REMARK    2  A    between atoms: C_4  and  C_6
REMARK    3  A    between atoms: C_8  and  O_12
REMARK    4  A    between atoms: C_10  and  O_14
REMARK    5  A    between atoms: C_17  and  C_19
REMARK    6  A    between atoms: C_18  and  C_20
REMARK    7  A    between atoms: C_22  and  O_26
REMARK    8  A    between atoms: C_24  and  O_28
REMARK                            x       y       z     vdW  Elec       q    Type
REMARK                         _______ _______ _______ _____ _____    ______ ____
ROOT
ATOM      1  C   UNL     1     -37.618 -43.942  50.344  0.00  0.00    +0.000 C 
ATOM      2  O   UNL     1     -37.840 -44.383  52.582  0.00  0.00    +0.000 OA
ATOM      3  C   UNL     1     -37.255 -44.631  51.539  0.00  0.00    +0.000 C 
ATOM      4  O   UNL     1     -37.224 -43.261  48.191  0.00  0.00    +0.000 OA
ATOM      5  C   UNL     1     -37.979 -43.250  49.152  0.00  0.00    +0.000 C 
ENDROOT
BRANCH   3   7
ATOM      6  C   UNL     1     -35.325 -46.435  51.478  0.00  0.00    +0.000 C 
ATOM      7  C   UNL     1     -36.203 -45.615  51.506  0.00  0.00    +0.000 C 
BRANCH   6   8
ATOM      8  C   UNL     1     -34.282 -47.408  51.445  0.00  0.00    +0.000 A 
ATOM      9  C   UNL     1     -34.132 -48.301  52.504  0.00  0.00    +0.000 A 
ATOM     10  C   UNL     1     -33.115 -49.261  52.489  0.00  0.00    +0.000 A 
ATOM     11  C   UNL     1     -33.416 -47.463  50.356  0.00  0.00    +0.000 A 
ATOM     12  C   UNL     1     -32.251 -49.307  51.390  0.00  0.00    +0.000 A 
ATOM     13  C   UNL     1     -32.400 -48.414  50.329  0.00  0.00    +0.000 A 
BRANCH  10  14
ATOM     14  O   UNL     1     -32.906 -50.173  53.493  0.00  0.00    +0.000 OA
ATOM     15  C   UNL     1     -33.783 -51.264  53.525  0.00  0.00    +0.000 C 
ENDBRANCH  10  14
BRANCH  12  16
ATOM     16  O   UNL     1     -31.228 -50.210  51.285  0.00  0.00    +0.000 OA
ATOM     17  H   UNL     1     -30.519 -49.859  50.721  0.00  0.00    +0.000 HD
ENDBRANCH  12  16
ENDBRANCH   6   8
ENDBRANCH   3   7
BRANCH   5  19
ATOM     18  C   UNL     1     -40.278 -41.953  49.036  0.00  0.00    +0.000 C 
ATOM     19  C   UNL     1     -39.234 -42.544  49.087  0.00  0.00    +0.000 C 
BRANCH  18  20
ATOM     20  C   UNL     1     -41.519 -41.252  48.981  0.00  0.00    +0.000 A 
ATOM     21  C   UNL     1     -42.336 -41.195  50.109  0.00  0.00    +0.000 A 
ATOM     22  C   UNL     1     -43.554 -40.512  50.070  0.00  0.00    +0.000 A 
ATOM     23  C   UNL     1     -41.912 -40.625  47.800  0.00  0.00    +0.000 A 
ATOM     24  C   UNL     1     -43.936 -39.887  48.880  0.00  0.00    +0.000 A 
ATOM     25  C   UNL     1     -43.123 -39.941  47.749  0.00  0.00    +0.000 A 
BRANCH  22  26
ATOM     26  O   UNL     1     -44.417 -40.407  51.134  0.00  0.00    +0.000 OA
ATOM     27  C   UNL     1     -44.503 -41.542  51.957  0.00  0.00    +0.000 C 
ENDBRANCH  22  26
BRANCH  24  28
ATOM     28  O   UNL     1     -45.125 -39.213  48.822  0.00  0.00    +0.000 OA
ATOM     29  H   UNL     1     -45.129 -38.528  49.517  0.00  0.00    +0.000 HD
ENDBRANCH  24  28
ENDBRANCH  18  20
ENDBRANCH   5  19
TORSDOF 8
ENDMDL
MODEL 6
REMARK VINA RESULT:      -6.7     20.405     21.605
REMARK  Name = 969516_Curcumin.pdbqt.pdb
REMARK  8 active torsions:
REMARK  status: ('A' for Active; 'I' for Inactive)
REMARK    1  A    between atoms: C_3  and  C_5
REMARK    2  A    between atoms: C_4  and  C_6
REMARK    3  A    between atoms: C_8  and  O_12
REMARK    4  A    between atoms: C_10  and  O_14
REMARK    5  A    between atoms: C_17  and  C_19
REMARK    6  A    between atoms: C_18  and  C_20
REMARK    7  A    between atoms: C_22  and  O_26
REMARK    8  A    between atoms: C_24  and  O_28
REMARK                            x       y       z     vdW  Elec       q    Type
REMARK                         _______ _______ _______ _____ _____    ______ ____
ROOT
ATOM      1  C   UNL     1     -34.446 -48.578  53.217  0.00  0.00    +0.000 C 
ATOM      2  O   UNL     1     -35.885 -50.353  53.040  0.00  0.00    +0.000 OA
ATOM      3  C   UNL     1     -34.805 -49.941  53.434  0.00  0.00    +0.000 C 
ATOM      4  O   UNL     1     -33.174 -46.719  53.639  0.00  0.00    +0.000 OA
ATOM      5  C   UNL     1     -34.092 -47.215  53.002  0.00  0.00    +0.000 C 
ENDROOT
BRANCH   3   7
ATOM      6  C   UNL     1     -33.125 -51.556  54.680  0.00  0.00    +0.000 C 
ATOM      7  C   UNL     1     -33.889 -50.823  54.113  0.00  0.00    +0.000 C 
BRANCH   6   8
ATOM      8  C   UNL     1     -32.218 -52.427  55.354  0.00  0.00    +0.000 A 
ATOM      9  C   UNL     1     -31.156 -53.000  54.655  0.00  0.00    +0.000 A 
ATOM     10  C   UNL     1     -30.258 -53.856  55.300  0.00  0.00    +0.000 A 
ATOM     11  C   UNL     1     -32.394 -52.703  56.707  0.00  0.00    +0.000 A 
ATOM     12  C   UNL     1     -30.445 -54.125  56.659  0.00  0.00    +0.000 A 
ATOM     13  C   UNL     1     -31.506 -53.553  57.360  0.00  0.00    +0.000 A 
BRANCH  10  14
ATOM     14  O   UNL     1     -29.191 -54.455  54.679  0.00  0.00    +0.000 OA
ATOM     15  C   UNL     1     -29.357 -54.754  53.321  0.00  0.00    +0.000 C 
ENDBRANCH  10  14
BRANCH  12  16
ATOM     16  O   UNL     1     -29.619 -54.948  57.375  0.00  0.00    +0.000 OA
ATOM     17  H   UNL     1     -28.708 -54.895  57.040  0.00  0.00    +0.000 HD
ENDBRANCH  12  16
ENDBRANCH   6   8
ENDBRANCH   3   7
BRANCH   5  19
ATOM     18  C   UNL     1     -35.420 -45.778  51.227  0.00  0.00    +0.000 C 
ATOM     19  C   UNL     1     -34.817 -46.430  52.036  0.00  0.00    +0.000 C 
BRANCH  18  20
ATOM     20  C   UNL     1     -36.132 -45.004  50.264  0.00  0.00    +0.000 A 
ATOM     21  C   UNL     1     -35.434 -44.172  49.389  0.00  0.00    +0.000 A 
ATOM     22  C   UNL     1     -36.117 -43.407  48.440  0.00  0.00    +0.000 A 
ATOM     23  C   UNL     1     -37.522 -45.080  50.198  0.00  0.00    +0.000 A 
ATOM     24  C   UNL     1     -37.511 -43.493  48.385  0.00  0.00    +0.000 A 
ATOM     25  C   UNL     1     -38.213 -44.323  49.257  0.00  0.00    +0.000 A 
BRANCH  22  26
ATOM     26  O   UNL     1     -35.509 -42.563  47.542  0.00  0.00    +0.000 OA
ATOM     27  C   UNL     1     -34.157 -42.835  47.277  0.00  0.00    +0.000 C 
ENDBRANCH  22  26
BRANCH  24  28
ATOM     28  O   UNL     1     -38.197 -42.752  47.462  0.00  0.00    +0.000 OA
ATOM     29  H   UNL     1     -38.344 -41.859  47.825  0.00  0.00    +0.000 HD
ENDBRANCH  24  28
ENDBRANCH  18  20
ENDBRANCH   5  19
TORSDOF 8
ENDMDL
MODEL 7
REMARK VINA RESULT:      -6.7     11.014     12.810
REMARK  Name = 969516_Curcumin.pdbqt.pdb
REMARK  8 active torsions:
REMARK  status: ('A' for Active; 'I' for Inactive)
REMARK    1  A    between atoms: C_3  and  C_5
REMARK    2  A    between atoms: C_4  and  C_6
REMARK    3  A    between atoms: C_8  and  O_12
REMARK    4  A    between atoms: C_10  and  O_14
REMARK    5  A    between atoms: C_17  and  C_19
REMARK    6  A    between atoms: C_18  and  C_20
REMARK    7  A    between atoms: C_22  and  O_26
REMARK    8  A    between atoms: C_24  and  O_28
REMARK                            x       y       z     vdW  Elec       q    Type
REMARK                         _______ _______ _______ _____ _____    ______ ____
ROOT
ATOM      1  C   UNL     1     -45.731 -64.697  39.705  0.00  0.00    +0.000 C 
ATOM      2  O   UNL     1     -44.398 -66.216  40.787  0.00  0.00    +0.000 OA
ATOM      3  C   UNL     1     -44.978 -65.907  39.757  0.00  0.00    +0.000 C 
ATOM      4  O   UNL     1     -46.807 -63.019  38.574  0.00  0.00    +0.000 OA
ATOM      5  C   UNL     1     -46.479 -63.486  39.655  0.00  0.00    +0.000 C 
ENDROOT
BRANCH   3   7
ATOM      6  C   UNL     1     -44.853 -67.468  37.628  0.00  0.00    +0.000 C 
ATOM      7  C   UNL     1     -44.911 -66.758  38.596  0.00  0.00    +0.000 C 
BRANCH   6   8
ATOM      8  C   UNL     1     -44.784 -68.311  36.479  0.00  0.00    +0.000 A 
ATOM      9  C   UNL     1     -45.893 -68.439  35.644  0.00  0.00    +0.000 A 
ATOM     10  C   UNL     1     -45.842 -69.261  34.514  0.00  0.00    +0.000 A 
ATOM     11  C   UNL     1     -43.612 -69.005  36.195  0.00  0.00    +0.000 A 
ATOM     12  C   UNL     1     -44.659 -69.953  34.238  0.00  0.00    +0.000 A 
ATOM     13  C   UNL     1     -43.549 -69.826  35.073  0.00  0.00    +0.000 A 
BRANCH  10  14
ATOM     14  O   UNL     1     -46.891 -69.435  33.646  0.00  0.00    +0.000 OA
ATOM     15  C   UNL     1     -47.125 -68.388  32.746  0.00  0.00    +0.000 C 
ENDBRANCH  10  14
BRANCH  12  16
ATOM     16  O   UNL     1     -44.515 -70.779  33.158  0.00  0.00    +0.000 OA
ATOM     17  H   UNL     1     -45.012 -70.437  32.396  0.00  0.00    +0.000 HD
ENDBRANCH  12  16
ENDBRANCH   6   8
ENDBRANCH   3   7
BRANCH   5  19
ATOM     18  C   UNL     1     -47.150 -62.266  41.901  0.00  0.00    +0.000 C 
ATOM     19  C   UNL     1     -46.847 -62.820  40.879  0.00  0.00    +0.000 C 
BRANCH  18  20
ATOM     20  C   UNL     1     -47.508 -61.613  43.117  0.00  0.00    +0.000 A 
ATOM     21  C   UNL     1     -48.752 -60.994  43.232  0.00  0.00    +0.000 A 
ATOM     22  C   UNL     1     -49.118 -60.350  44.417  0.00  0.00    +0.000 A 
ATOM     23  C   UNL     1     -46.616 -61.596  44.187  0.00  0.00    +0.000 A 
ATOM     24  C   UNL     1     -48.214 -60.340  45.482  0.00  0.00    +0.000 A 
ATOM     25  C   UNL     1     -46.969 -60.958  45.373  0.00  0.00    +0.000 A 
BRANCH  22  26
ATOM     26  O   UNL     1     -50.321 -59.716  44.614  0.00  0.00    +0.000 OA
ATOM     27  C   UNL     1     -50.820 -59.009  43.509  0.00  0.00    +0.000 C 
ENDBRANCH  22  26
BRANCH  24  28
ATOM     28  O   UNL     1     -48.554 -59.715  46.651  0.00  0.00    +0.000 OA
ATOM     29  H   UNL     1     -48.213 -58.801  46.627  0.00  0.00    +0.000 HD
ENDBRANCH  24  28
ENDBRANCH  18  20
ENDBRANCH   5  19
TORSDOF 8
ENDMDL
MODEL 8
REMARK VINA RESULT:      -6.6     21.511     25.576
REMARK  Name = 969516_Curcumin.pdbqt.pdb
REMARK  8 active torsions:
REMARK  status: ('A' for Active; 'I' for Inactive)
REMARK    1  A    between atoms: C_3  and  C_5
REMARK    2  A    between atoms: C_4  and  C_6
REMARK    3  A    between atoms: C_8  and  O_12
REMARK    4  A    between atoms: C_10  and  O_14
REMARK    5  A    between atoms: C_17  and  C_19
REMARK    6  A    between atoms: C_18  and  C_20
REMARK    7  A    between atoms: C_22  and  O_26
REMARK    8  A    between atoms: C_24  and  O_28
REMARK                            x       y       z     vdW  Elec       q    Type
REMARK                         _______ _______ _______ _____ _____    ______ ____
ROOT
ATOM      1  C   UNL     1     -33.123 -49.406  53.238  0.00  0.00    +0.000 C 
ATOM      2  O   UNL     1     -35.332 -49.833  53.680  0.00  0.00    +0.000 OA
ATOM      3  C   UNL     1     -34.509 -49.071  53.195  0.00  0.00    +0.000 C 
ATOM      4  O   UNL     1     -30.951 -49.162  52.551  0.00  0.00    +0.000 OA
ATOM      5  C   UNL     1     -31.740 -49.745  53.280  0.00  0.00    +0.000 C 
ENDROOT
BRANCH   3   7
ATOM      6  C   UNL     1     -35.276 -46.806  52.072  0.00  0.00    +0.000 C 
ATOM      7  C   UNL     1     -34.927 -47.836  52.582  0.00  0.00    +0.000 C 
BRANCH   6   8
ATOM      8  C   UNL     1     -35.688 -45.581  51.466  0.00  0.00    +0.000 A 
ATOM      9  C   UNL     1     -34.792 -44.858  50.681  0.00  0.00    +0.000 A 
ATOM     10  C   UNL     1     -35.179 -43.657  50.080  0.00  0.00    +0.000 A 
ATOM     11  C   UNL     1     -36.984 -45.111  51.661  0.00  0.00    +0.000 A 
ATOM     12  C   UNL     1     -36.483 -43.194  50.282  0.00  0.00    +0.000 A 
ATOM     13  C   UNL     1     -37.381 -43.916  51.067  0.00  0.00    +0.000 A 
BRANCH  10  14
ATOM     14  O   UNL     1     -34.353 -42.892  49.294  0.00  0.00    +0.000 OA
ATOM     15  C   UNL     1     -33.469 -42.044  49.973  0.00  0.00    +0.000 C 
ENDBRANCH  10  14
BRANCH  12  16
ATOM     16  O   UNL     1     -36.952 -42.031  49.736  0.00  0.00    +0.000 OA
ATOM     17  H   UNL     1     -36.758 -41.996  48.784  0.00  0.00    +0.000 HD
ENDBRANCH  12  16
ENDBRANCH   6   8
ENDBRANCH   3   7
BRANCH   5  19
ATOM     18  C   UNL     1     -30.898 -51.630  54.929  0.00  0.00    +0.000 C 
ATOM     19  C   UNL     1     -31.281 -50.771  54.181  0.00  0.00    +0.000 C 
BRANCH  18  20
ATOM     20  C   UNL     1     -30.445 -52.652  55.814  0.00  0.00    +0.000 A 
ATOM     21  C   UNL     1     -29.212 -53.264  55.596  0.00  0.00    +0.000 A 
ATOM     22  C   UNL     1     -28.755 -54.267  56.456  0.00  0.00    +0.000 A 
ATOM     23  C   UNL     1     -31.236 -53.036  56.896  0.00  0.00    +0.000 A 
ATOM     24  C   UNL     1     -29.558 -54.642  57.536  0.00  0.00    +0.000 A 
ATOM     25  C   UNL     1     -30.792 -54.033  57.758  0.00  0.00    +0.000 A 
BRANCH  22  26
ATOM     26  O   UNL     1     -27.555 -54.920  56.314  0.00  0.00    +0.000 OA
ATOM     27  C   UNL     1     -27.433 -55.718  55.165  0.00  0.00    +0.000 C 
ENDBRANCH  22  26
BRANCH  24  28
ATOM     28  O   UNL     1     -29.127 -55.621  58.389  0.00  0.00    +0.000 OA
ATOM     29  H   UNL     1     -29.067 -55.248  59.288  0.00  0.00    +0.000 HD
ENDBRANCH  24  28
ENDBRANCH  18  20
ENDBRANCH   5  19
TORSDOF 8
ENDMDL
MODEL 9
REMARK VINA RESULT:      -6.5     21.663     22.966
REMARK  Name = 969516_Curcumin.pdbqt.pdb
REMARK  8 active torsions:
REMARK  status: ('A' for Active; 'I' for Inactive)
REMARK    1  A    between atoms: C_3  and  C_5
REMARK    2  A    between atoms: C_4  and  C_6
REMARK    3  A    between atoms: C_8  and  O_12
REMARK    4  A    between atoms: C_10  and  O_14
REMARK    5  A    between atoms: C_17  and  C_19
REMARK    6  A    between atoms: C_18  and  C_20
REMARK    7  A    between atoms: C_22  and  O_26
REMARK    8  A    between atoms: C_24  and  O_28
REMARK                            x       y       z     vdW  Elec       q    Type
REMARK                         _______ _______ _______ _____ _____    ______ ____
ROOT
ATOM      1  C   UNL     1     -33.161 -49.061  53.162  0.00  0.00    +0.000 C 
ATOM      2  O   UNL     1     -30.998 -48.669  52.512  0.00  0.00    +0.000 OA
ATOM      3  C   UNL     1     -31.764 -49.347  53.180  0.00  0.00    +0.000 C 
ATOM      4  O   UNL     1     -35.353 -49.609  53.548  0.00  0.00    +0.000 OA
ATOM      5  C   UNL     1     -34.556 -48.776  53.139  0.00  0.00    +0.000 C 
ENDROOT
BRANCH   3   7
ATOM      6  C   UNL     1     -30.850 -51.335  54.662  0.00  0.00    +0.000 C 
ATOM      7  C   UNL     1     -31.266 -50.432  53.988  0.00  0.00    +0.000 C 
BRANCH   6   8
ATOM      8  C   UNL     1     -30.356 -52.407  55.463  0.00  0.00    +0.000 A 
ATOM      9  C   UNL     1     -29.192 -53.076  55.089  0.00  0.00    +0.000 A 
ATOM     10  C   UNL     1     -28.694 -54.128  55.862  0.00  0.00    +0.000 A 
ATOM     11  C   UNL     1     -31.038 -52.784  56.617  0.00  0.00    +0.000 A 
ATOM     12  C   UNL     1     -29.387 -54.498  57.020  0.00  0.00    +0.000 A 
ATOM     13  C   UNL     1     -30.552 -53.830  57.396  0.00  0.00    +0.000 A 
BRANCH  10  14
ATOM     14  O   UNL     1     -27.555 -54.832  55.558  0.00  0.00    +0.000 OA
ATOM     15  C   UNL     1     -27.642 -55.699  54.462  0.00  0.00    +0.000 C 
ENDBRANCH  10  14
BRANCH  12  16
ATOM     16  O   UNL     1     -28.978 -55.514  57.839  0.00  0.00    +0.000 OA
ATOM     17  H   UNL     1     -28.010 -55.510  57.933  0.00  0.00    +0.000 HD
ENDBRANCH  12  16
ENDBRANCH   6   8
ENDBRANCH   3   7
BRANCH   5  19
ATOM     18  C   UNL     1     -35.410 -46.452  52.217  0.00  0.00    +0.000 C 
ATOM     19  C   UNL     1     -35.020 -47.508  52.637  0.00  0.00    +0.000 C 
BRANCH  18  20
ATOM     20  C   UNL     1     -35.875 -45.201  51.715  0.00  0.00    +0.000 A 
ATOM     21  C   UNL     1     -35.013 -44.106  51.673  0.00  0.00    +0.000 A 
ATOM     22  C   UNL     1     -35.454 -42.874  51.183  0.00  0.00    +0.000 A 
ATOM     23  C   UNL     1     -37.188 -45.076  51.266  0.00  0.00    +0.000 A 
ATOM     24  C   UNL     1     -36.773 -42.762  50.736  0.00  0.00    +0.000 A 
ATOM     25  C   UNL     1     -37.639 -43.854  50.776  0.00  0.00    +0.000 A 
BRANCH  22  26
ATOM     26  O   UNL     1     -34.672 -41.746  51.107  0.00  0.00    +0.000 OA
ATOM     27  C   UNL     1     -33.925 -41.450  52.258  0.00  0.00    +0.000 C 
ENDBRANCH  22  26
BRANCH  24  28
ATOM     28  O   UNL     1     -37.223 -41.564  50.253  0.00  0.00    +0.000 OA
ATOM     29  H   UNL     1     -36.861 -40.847  50.807  0.00  0.00    +0.000 HD
ENDBRANCH  24  28
ENDBRANCH  18  20
ENDBRANCH   5  19
TORSDOF 8
ENDMDL
