MODEL 1
REMARK VINA RESULT:      -3.6      0.000      0.000
REMARK  Name = 971_OxalicAcid.pdbqt.pdb
REMARK  3 active torsions:
REMARK  status: ('A' for Active; 'I' for Inactive)
REMARK    1  A    between atoms: C_2  and  O_3
REMARK    2  A    between atoms: C_2  and  C_6
REMARK    3  A    between atoms: C_6  and  O_7
REMARK                            x       y       z     vdW  Elec       q    Type
REMARK                         _______ _______ _______ _____ _____    ______ ____
ROOT
ATOM      1  O   UNL     1     -54.659 -63.148  42.287  0.00  0.00    +0.000 OA
ATOM      2  C   UNL     1     -55.153 -63.145  41.177  0.00  0.00    +0.000 C 
ENDROOT
BRANCH   2   3
ATOM      3  O   UNL     1     -54.760 -64.001  40.223  0.00  0.00    +0.000 OA
ATOM      4  H   UNL     1     -55.469 -64.674  40.192  0.00  0.00    +0.000 HD
ENDBRANCH   2   3
BRANCH   2   6
ATOM      5  O   UNL     1     -56.226 -60.970  40.702  0.00  0.00    +0.000 OA
ATOM      6  C   UNL     1     -56.283 -62.184  40.693  0.00  0.00    +0.000 C 
BRANCH   6   7
ATOM      7  O   UNL     1     -57.365 -62.839  40.250  0.00  0.00    +0.000 OA
ATOM      8  H   UNL     1     -58.122 -62.336  40.613  0.00  0.00    +0.000 HD
ENDBRANCH   6   7
ENDBRANCH   2   6
TORSDOF 3
ENDMDL
MODEL 2
REMARK VINA RESULT:      -3.6      3.814      4.539
REMARK  Name = 971_OxalicAcid.pdbqt.pdb
REMARK  3 active torsions:
REMARK  status: ('A' for Active; 'I' for Inactive)
REMARK    1  A    between atoms: C_2  and  O_3
REMARK    2  A    between atoms: C_2  and  C_6
REMARK    3  A    between atoms: C_6  and  O_7
REMARK                            x       y       z     vdW  Elec       q    Type
REMARK                         _______ _______ _______ _____ _____    ______ ____
ROOT
ATOM      1  O   UNL     1     -60.179 -63.109  42.417  0.00  0.00    +0.000 OA
ATOM      2  C   UNL     1     -59.674 -62.215  41.766  0.00  0.00    +0.000 C 
ENDROOT
BRANCH   2   3
ATOM      3  O   UNL     1     -58.908 -62.464  40.694  0.00  0.00    +0.000 OA
ATOM      4  H   UNL     1     -59.147 -63.374  40.429  0.00  0.00    +0.000 HD
ENDBRANCH   2   3
BRANCH   2   6
ATOM      5  O   UNL     1     -59.788 -60.176  43.158  0.00  0.00    +0.000 OA
ATOM      6  C   UNL     1     -59.825 -60.690  42.057  0.00  0.00    +0.000 C 
BRANCH   6   7
ATOM      7  O   UNL     1     -60.006 -59.967  40.943  0.00  0.00    +0.000 OA
ATOM      8  H   UNL     1     -59.103 -59.712  40.667  0.00  0.00    +0.000 HD
ENDBRANCH   6   7
ENDBRANCH   2   6
TORSDOF 3
ENDMDL
MODEL 3
REMARK VINA RESULT:      -3.5      1.833      3.205
REMARK  Name = 971_OxalicAcid.pdbqt.pdb
REMARK  3 active torsions:
REMARK  status: ('A' for Active; 'I' for Inactive)
REMARK    1  A    between atoms: C_2  and  O_3
REMARK    2  A    between atoms: C_2  and  C_6
REMARK    3  A    between atoms: C_6  and  O_7
REMARK                            x       y       z     vdW  Elec       q    Type
REMARK                         _______ _______ _______ _____ _____    ______ ____
ROOT
ATOM      1  O   UNL     1     -54.309 -60.666  40.236  0.00  0.00    +0.000 OA
ATOM      2  C   UNL     1     -54.216 -61.282  41.280  0.00  0.00    +0.000 C 
ENDROOT
BRANCH   2   3
ATOM      3  O   UNL     1     -53.993 -60.665  42.449  0.00  0.00    +0.000 OA
ATOM      4  H   UNL     1     -53.576 -61.349  43.011  0.00  0.00    +0.000 HD
ENDBRANCH   2   3
BRANCH   2   6
ATOM      5  O   UNL     1     -54.322 -63.629  40.513  0.00  0.00    +0.000 OA
ATOM      6  C   UNL     1     -54.334 -62.830  41.429  0.00  0.00    +0.000 C 
BRANCH   6   7
ATOM      7  O   UNL     1     -54.456 -63.218  42.706  0.00  0.00    +0.000 OA
ATOM      8  H   UNL     1     -53.757 -63.892  42.825  0.00  0.00    +0.000 HD
ENDBRANCH   6   7
ENDBRANCH   2   6
TORSDOF 3
ENDMDL
MODEL 4
REMARK VINA RESULT:      -3.5      1.619      2.124
REMARK  Name = 971_OxalicAcid.pdbqt.pdb
REMARK  3 active torsions:
REMARK  status: ('A' for Active; 'I' for Inactive)
REMARK    1  A    between atoms: C_2  and  O_3
REMARK    2  A    between atoms: C_2  and  C_6
REMARK    3  A    between atoms: C_6  and  O_7
REMARK                            x       y       z     vdW  Elec       q    Type
REMARK                         _______ _______ _______ _____ _____    ______ ____
ROOT
ATOM      1  O   UNL     1     -54.607 -62.703  42.658  0.00  0.00    +0.000 OA
ATOM      2  C   UNL     1     -54.498 -62.641  41.450  0.00  0.00    +0.000 C 
ENDROOT
BRANCH   2   3
ATOM      3  O   UNL     1     -54.395 -63.741  40.690  0.00  0.00    +0.000 OA
ATOM      4  H   UNL     1     -54.656 -63.446  39.795  0.00  0.00    +0.000 HD
ENDBRANCH   2   3
BRANCH   2   6
ATOM      5  O   UNL     1     -55.427 -60.650  40.319  0.00  0.00    +0.000 OA
ATOM      6  C   UNL     1     -54.460 -61.326  40.611  0.00  0.00    +0.000 C 
BRANCH   6   7
ATOM      7  O   UNL     1     -53.220 -60.993  40.227  0.00  0.00    +0.000 OA
ATOM      8  H   UNL     1     -52.820 -60.581  41.019  0.00  0.00    +0.000 HD
ENDBRANCH   6   7
ENDBRANCH   2   6
TORSDOF 3
ENDMDL
MODEL 5
REMARK VINA RESULT:      -3.3     29.020     30.001
REMARK  Name = 971_OxalicAcid.pdbqt.pdb
REMARK  3 active torsions:
REMARK  status: ('A' for Active; 'I' for Inactive)
REMARK    1  A    between atoms: C_2  and  O_3
REMARK    2  A    between atoms: C_2  and  C_6
REMARK    3  A    between atoms: C_6  and  O_7
REMARK                            x       y       z     vdW  Elec       q    Type
REMARK                         _______ _______ _______ _____ _____    ______ ____
ROOT
ATOM      1  O   UNL     1     -31.917 -52.309  58.391  0.00  0.00    +0.000 OA
ATOM      2  C   UNL     1     -32.011 -53.243  57.619  0.00  0.00    +0.000 C 
ENDROOT
BRANCH   2   3
ATOM      3  O   UNL     1     -31.729 -54.500  57.989  0.00  0.00    +0.000 OA
ATOM      4  H   UNL     1     -30.755 -54.514  58.083  0.00  0.00    +0.000 HD
ENDBRANCH   2   3
BRANCH   2   6
ATOM      5  O   UNL     1     -31.904 -53.680  55.189  0.00  0.00    +0.000 OA
ATOM      6  C   UNL     1     -32.457 -53.141  56.127  0.00  0.00    +0.000 C 
BRANCH   6   7
ATOM      7  O   UNL     1     -33.546 -52.377  55.964  0.00  0.00    +0.000 OA
ATOM      8  H   UNL     1     -33.349 -51.834  55.175  0.00  0.00    +0.000 HD
ENDBRANCH   6   7
ENDBRANCH   2   6
TORSDOF 3
ENDMDL
MODEL 6
REMARK VINA RESULT:      -3.2     19.535     20.597
REMARK  Name = 971_OxalicAcid.pdbqt.pdb
REMARK  3 active torsions:
REMARK  status: ('A' for Active; 'I' for Inactive)
REMARK    1  A    between atoms: C_2  and  O_3
REMARK    2  A    between atoms: C_2  and  C_6
REMARK    3  A    between atoms: C_6  and  O_7
REMARK                            x       y       z     vdW  Elec       q    Type
REMARK                         _______ _______ _______ _____ _____    ______ ____
ROOT
ATOM      1  O   UNL     1     -65.591 -70.012  26.119  0.00  0.00    +0.000 OA
ATOM      2  C   UNL     1     -66.795 -70.067  25.969  0.00  0.00    +0.000 C 
ENDROOT
BRANCH   2   3
ATOM      3  O   UNL     1     -67.528 -68.975  25.712  0.00  0.00    +0.000 OA
ATOM      4  H   UNL     1     -66.942 -68.227  25.944  0.00  0.00    +0.000 HD
ENDBRANCH   2   3
BRANCH   2   6
ATOM      5  O   UNL     1     -67.760 -72.084  27.022  0.00  0.00    +0.000 OA
ATOM      6  C   UNL     1     -67.658 -71.365  26.048  0.00  0.00    +0.000 C 
BRANCH   6   7
ATOM      7  O   UNL     1     -68.301 -71.628  24.901  0.00  0.00    +0.000 OA
ATOM      8  H   UNL     1     -69.073 -72.165  25.171  0.00  0.00    +0.000 HD
ENDBRANCH   6   7
ENDBRANCH   2   6
TORSDOF 3
ENDMDL
MODEL 7
REMARK VINA RESULT:      -3.2     19.278     20.098
REMARK  Name = 971_OxalicAcid.pdbqt.pdb
REMARK  3 active torsions:
REMARK  status: ('A' for Active; 'I' for Inactive)
REMARK    1  A    between atoms: C_2  and  O_3
REMARK    2  A    between atoms: C_2  and  C_6
REMARK    3  A    between atoms: C_6  and  O_7
REMARK                            x       y       z     vdW  Elec       q    Type
REMARK                         _______ _______ _______ _____ _____    ______ ____
ROOT
ATOM      1  O   UNL     1     -67.075 -71.903  27.582  0.00  0.00    +0.000 OA
ATOM      2  C   UNL     1     -67.407 -71.190  26.656  0.00  0.00    +0.000 C 
ENDROOT
BRANCH   2   3
ATOM      3  O   UNL     1     -68.516 -71.427  25.941  0.00  0.00    +0.000 OA
ATOM      4  H   UNL     1     -69.071 -71.979  26.527  0.00  0.00    +0.000 HD
ENDBRANCH   2   3
BRANCH   2   6
ATOM      5  O   UNL     1     -65.422 -69.796  26.181  0.00  0.00    +0.000 OA
ATOM      6  C   UNL     1     -66.630 -69.930  26.161  0.00  0.00    +0.000 C 
BRANCH   6   7
ATOM      7  O   UNL     1     -67.443 -68.972  25.695  0.00  0.00    +0.000 OA
ATOM      8  H   UNL     1     -67.794 -68.537  26.497  0.00  0.00    +0.000 HD
ENDBRANCH   6   7
ENDBRANCH   2   6
TORSDOF 3
ENDMDL
MODEL 8
REMARK VINA RESULT:      -3.1     18.672     19.583
REMARK  Name = 971_OxalicAcid.pdbqt.pdb
REMARK  3 active torsions:
REMARK  status: ('A' for Active; 'I' for Inactive)
REMARK    1  A    between atoms: C_2  and  O_3
REMARK    2  A    between atoms: C_2  and  C_6
REMARK    3  A    between atoms: C_6  and  O_7
REMARK                            x       y       z     vdW  Elec       q    Type
REMARK                         _______ _______ _______ _____ _____    ______ ____
ROOT
ATOM      1  O   UNL     1     -34.859 -60.872  43.294  0.00  0.00    +0.000 OA
ATOM      2  C   UNL     1     -36.012 -61.041  42.947  0.00  0.00    +0.000 C 
ENDROOT
BRANCH   2   3
ATOM      3  O   UNL     1     -36.988 -61.293  43.831  0.00  0.00    +0.000 OA
ATOM      4  H   UNL     1     -36.691 -62.098  44.300  0.00  0.00    +0.000 HD
ENDBRANCH   2   3
BRANCH   2   6
ATOM      5  O   UNL     1     -35.841 -60.800  40.494  0.00  0.00    +0.000 OA
ATOM      6  C   UNL     1     -36.529 -60.994  41.476  0.00  0.00    +0.000 C 
BRANCH   6   7
ATOM      7  O   UNL     1     -37.851 -61.195  41.387  0.00  0.00    +0.000 OA
ATOM      8  H   UNL     1     -37.993 -62.074  41.791  0.00  0.00    +0.000 HD
ENDBRANCH   6   7
ENDBRANCH   2   6
TORSDOF 3
ENDMDL
MODEL 9
REMARK VINA RESULT:      -3.1     21.736     22.747
REMARK  Name = 971_OxalicAcid.pdbqt.pdb
REMARK  3 active torsions:
REMARK  status: ('A' for Active; 'I' for Inactive)
REMARK    1  A    between atoms: C_2  and  O_3
REMARK    2  A    between atoms: C_2  and  C_6
REMARK    3  A    between atoms: C_6  and  O_7
REMARK                            x       y       z     vdW  Elec       q    Type
REMARK                         _______ _______ _______ _____ _____    ______ ____
ROOT
ATOM      1  O   UNL     1     -33.572 -57.569  48.329  0.00  0.00    +0.000 OA
ATOM      2  C   UNL     1     -33.989 -58.419  47.567  0.00  0.00    +0.000 C 
ENDROOT
BRANCH   2   3
ATOM      3  O   UNL     1     -33.698 -58.401  46.258  0.00  0.00    +0.000 OA
ATOM      4  H   UNL     1     -33.954 -59.289  45.938  0.00  0.00    +0.000 HD
ENDBRANCH   2   3
BRANCH   2   6
ATOM      5  O   UNL     1     -34.621 -60.796  47.802  0.00  0.00    +0.000 OA
ATOM      6  C   UNL     1     -34.896 -59.624  47.965  0.00  0.00    +0.000 C 
BRANCH   6   7
ATOM      7  O   UNL     1     -36.052 -59.238  48.524  0.00  0.00    +0.000 OA
ATOM      8  H   UNL     1     -36.740 -59.549  47.903  0.00  0.00    +0.000 HD
ENDBRANCH   6   7
ENDBRANCH   2   6
TORSDOF 3
ENDMDL
