MODEL 1
REMARK VINA RESULT:      -7.0      0.000      0.000
REMARK  Name = 9852185_GambogicAcid.pdbqt.pdb
REMARK  10 active torsions:
REMARK  status: ('A' for Active; 'I' for Inactive)
REMARK    1  A    between atoms: C_8  and  C_30
REMARK    2  A    between atoms: C_20  and  C_38
REMARK    3  A    between atoms: C_21  and  O_28
REMARK    4  A    between atoms: C_25  and  C_43
REMARK    5  A    between atoms: C_31  and  C_32
REMARK    6  A    between atoms: C_32  and  C_35
REMARK    7  A    between atoms: C_35  and  O_36
REMARK    8  A    between atoms: C_39  and  C_40
REMARK    9  A    between atoms: C_43  and  C_44
REMARK   10  A    between atoms: C_45  and  C_46
REMARK                            x       y       z     vdW  Elec       q    Type
REMARK                         _______ _______ _______ _____ _____    ______ ____
ROOT
ATOM      1  O   UNL     1     -41.734 -64.324  37.091  0.00  0.00    +0.000 OA
ATOM      2  O   UNL     1     -44.203 -64.565  35.628  0.00  0.00    +0.000 OA
ATOM      3  O   UNL     1     -42.165 -62.434  39.604  0.00  0.00    +0.000 OA
ATOM      4  O   UNL     1     -47.062 -61.630  36.037  0.00  0.00    +0.000 OA
ATOM      5  O   UNL     1     -46.569 -66.630  32.061  0.00  0.00    +0.000 OA
ATOM      6  C   UNL     1     -43.830 -63.418  36.379  0.00  0.00    +0.000 C 
ATOM      7  C   UNL     1     -42.647 -62.620  35.722  0.00  0.00    +0.000 C 
ATOM      8  C   UNL     1     -42.958 -63.809  37.638  0.00  0.00    +0.000 C 
ATOM      9  C   UNL     1     -41.474 -63.592  35.881  0.00  0.00    +0.000 C 
ATOM     10  C   UNL     1     -42.563 -61.335  36.417  0.00  0.00    +0.000 C 
ATOM     11  C   UNL     1     -43.158 -61.213  37.737  0.00  0.00    +0.000 C 
ATOM     12  C   UNL     1     -45.012 -62.519  36.782  0.00  0.00    +0.000 C 
ATOM     13  C   UNL     1     -42.692 -62.482  38.504  0.00  0.00    +0.000 C 
ATOM     14  C   UNL     1     -44.574 -61.397  37.549  0.00  0.00    +0.000 C 
ATOM     15  C   UNL     1     -40.134 -62.859  36.044  0.00  0.00    +0.000 C 
ATOM     16  C   UNL     1     -41.419 -64.557  34.686  0.00  0.00    +0.000 C 
ATOM     17  C   UNL     1     -46.200 -62.492  35.930  0.00  0.00    +0.000 C 
ATOM     18  C   UNL     1     -45.300 -64.515  34.811  0.00  0.00    +0.000 A 
ATOM     19  C   UNL     1     -46.302 -63.539  34.905  0.00  0.00    +0.000 A 
ATOM     20  C   UNL     1     -45.412 -65.551  33.858  0.00  0.00    +0.000 A 
ATOM     21  C   UNL     1     -47.407 -63.567  34.038  0.00  0.00    +0.000 A 
ATOM     22  C   UNL     1     -46.511 -65.590  32.993  0.00  0.00    +0.000 A 
ATOM     23  C   UNL     1     -47.503 -64.583  33.092  0.00  0.00    +0.000 A 
ATOM     24  C   UNL     1     -48.566 -64.736  32.167  0.00  0.00    +0.000 C 
ATOM     25  C   UNL     1     -47.742 -66.772  31.167  0.00  0.00    +0.000 C 
ATOM     26  C   UNL     1     -48.643 -65.641  31.395  0.00  0.00    +0.000 C 
ATOM     27  C   UNL     1     -48.409 -68.126  31.516  0.00  0.00    +0.000 C 
ENDROOT
BRANCH  21  28
ATOM     28  O   UNL     1     -48.406 -62.631  34.080  0.00  0.00    +0.000 OA
ATOM     29  H   UNL     1     -49.179 -62.989  34.571  0.00  0.00    +0.000 HD
ENDBRANCH  21  28
BRANCH   8  30
ATOM     30  C   UNL     1     -43.597 -64.844  38.463  0.00  0.00    +0.000 C 
ATOM     31  C   UNL     1     -44.231 -65.962  39.305  0.00  0.00    +0.000 C 
BRANCH  31  32
ATOM     32  C   UNL     1     -44.751 -66.948  39.980  0.00  0.00    +0.000 C 
ATOM     33  C   UNL     1     -43.861 -67.512  41.072  0.00  0.00    +0.000 C 
BRANCH  32  35
ATOM     34  O   UNL     1     -46.691 -68.367  40.209  0.00  0.00    +0.000 OA
ATOM     35  C   UNL     1     -46.124 -67.429  39.668  0.00  0.00    +0.000 C 
BRANCH  35  36
ATOM     36  O   UNL     1     -46.751 -66.730  38.698  0.00  0.00    +0.000 OA
ATOM     37  H   UNL     1     -47.664 -66.596  39.028  0.00  0.00    +0.000 HD
ENDBRANCH  35  36
ENDBRANCH  32  35
ENDBRANCH  31  32
ENDBRANCH   8  30
BRANCH  20  38
ATOM     38  C   UNL     1     -44.396 -66.561  33.775  0.00  0.00    +0.000 C 
ATOM     39  C   UNL     1     -43.328 -67.659  33.669  0.00  0.00    +0.000 C 
BRANCH  39  40
ATOM     40  C   UNL     1     -42.438 -68.596  33.565  0.00  0.00    +0.000 C 
ATOM     41  C   UNL     1     -41.089 -68.269  32.999  0.00  0.00    +0.000 C 
ATOM     42  C   UNL     1     -42.671 -69.920  34.226  0.00  0.00    +0.000 C 
ENDBRANCH  39  40
ENDBRANCH  20  38
BRANCH  25  43
ATOM     43  C   UNL     1     -47.229 -66.789  29.784  0.00  0.00    +0.000 C 
BRANCH  43  44
ATOM     44  C   UNL     1     -46.703 -66.803  28.343  0.00  0.00    +0.000 C 
ATOM     45  C   UNL     1     -46.173 -66.818  26.902  0.00  0.00    +0.000 C 
BRANCH  45  46
ATOM     46  C   UNL     1     -45.723 -66.824  25.686  0.00  0.00    +0.000 C 
ATOM     47  C   UNL     1     -45.538 -68.128  24.972  0.00  0.00    +0.000 C 
ATOM     48  C   UNL     1     -45.223 -65.557  25.066  0.00  0.00    +0.000 C 
ENDBRANCH  45  46
ENDBRANCH  43  44
ENDBRANCH  25  43
TORSDOF 10
ENDMDL
MODEL 2
REMARK VINA RESULT:      -7.0      4.248      9.222
REMARK  Name = 9852185_GambogicAcid.pdbqt.pdb
REMARK  10 active torsions:
REMARK  status: ('A' for Active; 'I' for Inactive)
REMARK    1  A    between atoms: C_8  and  C_30
REMARK    2  A    between atoms: C_20  and  C_38
REMARK    3  A    between atoms: C_21  and  O_28
REMARK    4  A    between atoms: C_25  and  C_43
REMARK    5  A    between atoms: C_31  and  C_32
REMARK    6  A    between atoms: C_32  and  C_35
REMARK    7  A    between atoms: C_35  and  O_36
REMARK    8  A    between atoms: C_39  and  C_40
REMARK    9  A    between atoms: C_43  and  C_44
REMARK   10  A    between atoms: C_45  and  C_46
REMARK                            x       y       z     vdW  Elec       q    Type
REMARK                         _______ _______ _______ _____ _____    ______ ____
ROOT
ATOM      1  O   UNL     1     -42.997 -60.250  32.393  0.00  0.00    +0.000 OA
ATOM      2  O   UNL     1     -44.361 -61.027  34.808  0.00  0.00    +0.000 OA
ATOM      3  O   UNL     1     -45.025 -58.766  30.455  0.00  0.00    +0.000 OA
ATOM      4  O   UNL     1     -48.456 -61.449  34.741  0.00  0.00    +0.000 OA
ATOM      5  O   UNL     1     -44.054 -62.898  39.166  0.00  0.00    +0.000 OA
ATOM      6  C   UNL     1     -44.989 -60.919  33.538  0.00  0.00    +0.000 C 
ATOM      7  C   UNL     1     -44.536 -62.045  32.540  0.00  0.00    +0.000 C 
ATOM      8  C   UNL     1     -44.328 -59.781  32.661  0.00  0.00    +0.000 C 
ATOM      9  C   UNL     1     -43.069 -61.682  32.286  0.00  0.00    +0.000 C 
ATOM     10  C   UNL     1     -45.454 -61.997  31.401  0.00  0.00    +0.000 C 
ATOM     11  C   UNL     1     -46.211 -60.781  31.162  0.00  0.00    +0.000 C 
ATOM     12  C   UNL     1     -46.516 -60.751  33.604  0.00  0.00    +0.000 C 
ATOM     13  C   UNL     1     -45.173 -59.631  31.303  0.00  0.00    +0.000 C 
ATOM     14  C   UNL     1     -47.083 -60.629  32.298  0.00  0.00    +0.000 C 
ATOM     15  C   UNL     1     -42.612 -62.080  30.875  0.00  0.00    +0.000 C 
ATOM     16  C   UNL     1     -42.171 -62.334  33.348  0.00  0.00    +0.000 C 
ATOM     17  C   UNL     1     -47.240 -61.317  34.741  0.00  0.00    +0.000 C 
ATOM     18  C   UNL     1     -45.040 -61.588  35.856  0.00  0.00    +0.000 A 
ATOM     19  C   UNL     1     -46.431 -61.756  35.886  0.00  0.00    +0.000 A 
ATOM     20  C   UNL     1     -44.259 -61.966  36.970  0.00  0.00    +0.000 A 
ATOM     21  C   UNL     1     -47.056 -62.327  37.007  0.00  0.00    +0.000 A 
ATOM     22  C   UNL     1     -44.872 -62.531  38.094  0.00  0.00    +0.000 A 
ATOM     23  C   UNL     1     -46.278 -62.710  38.096  0.00  0.00    +0.000 A 
ATOM     24  C   UNL     1     -46.778 -63.285  39.291  0.00  0.00    +0.000 C 
ATOM     25  C   UNL     1     -44.648 -63.432  40.415  0.00  0.00    +0.000 C 
ATOM     26  C   UNL     1     -46.093 -63.566  40.225  0.00  0.00    +0.000 C 
ATOM     27  C   UNL     1     -44.299 -62.425  41.540  0.00  0.00    +0.000 C 
ENDROOT
BRANCH  21  28
ATOM     28  O   UNL     1     -48.409 -62.525  37.081  0.00  0.00    +0.000 OA
ATOM     29  H   UNL     1     -48.612 -63.483  36.986  0.00  0.00    +0.000 HD
ENDBRANCH  21  28
BRANCH   8  30
ATOM     30  C   UNL     1     -44.259 -58.496  33.370  0.00  0.00    +0.000 C 
ATOM     31  C   UNL     1     -44.133 -57.157  34.113  0.00  0.00    +0.000 C 
BRANCH  31  32
ATOM     32  C   UNL     1     -43.977 -56.041  34.767  0.00  0.00    +0.000 C 
ATOM     33  C   UNL     1     -44.024 -56.174  36.277  0.00  0.00    +0.000 C 
BRANCH  32  35
ATOM     34  O   UNL     1     -42.706 -54.412  33.517  0.00  0.00    +0.000 OA
ATOM     35  C   UNL     1     -43.756 -54.765  34.032  0.00  0.00    +0.000 C 
BRANCH  35  36
ATOM     36  O   UNL     1     -44.845 -53.970  33.960  0.00  0.00    +0.000 OA
ATOM     37  H   UNL     1     -44.497 -53.076  33.758  0.00  0.00    +0.000 HD
ENDBRANCH  35  36
ENDBRANCH  32  35
ENDBRANCH  31  32
ENDBRANCH   8  30
BRANCH  20  38
ATOM     38  C   UNL     1     -42.838 -61.775  36.947  0.00  0.00    +0.000 C 
ATOM     39  C   UNL     1     -41.321 -61.543  36.909  0.00  0.00    +0.000 C 
BRANCH  39  40
ATOM     40  C   UNL     1     -40.043 -61.326  36.872  0.00  0.00    +0.000 C 
ATOM     41  C   UNL     1     -39.124 -62.218  37.652  0.00  0.00    +0.000 C 
ATOM     42  C   UNL     1     -39.481 -60.361  35.874  0.00  0.00    +0.000 C 
ENDBRANCH  39  40
ENDBRANCH  20  38
BRANCH  25  43
ATOM     43  C   UNL     1     -44.009 -64.737  40.671  0.00  0.00    +0.000 C 
BRANCH  43  44
ATOM     44  C   UNL     1     -43.352 -66.097  40.936  0.00  0.00    +0.000 C 
ATOM     45  C   UNL     1     -42.696 -67.459  41.203  0.00  0.00    +0.000 C 
BRANCH  45  46
ATOM     46  C   UNL     1     -42.139 -68.607  41.435  0.00  0.00    +0.000 C 
ATOM     47  C   UNL     1     -42.154 -69.169  42.824  0.00  0.00    +0.000 C 
ATOM     48  C   UNL     1     -41.334 -69.279  40.367  0.00  0.00    +0.000 C 
ENDBRANCH  45  46
ENDBRANCH  43  44
ENDBRANCH  25  43
TORSDOF 10
ENDMDL
MODEL 3
REMARK VINA RESULT:      -6.9     26.429     30.488
REMARK  Name = 9852185_GambogicAcid.pdbqt.pdb
REMARK  10 active torsions:
REMARK  status: ('A' for Active; 'I' for Inactive)
REMARK    1  A    between atoms: C_8  and  C_30
REMARK    2  A    between atoms: C_20  and  C_38
REMARK    3  A    between atoms: C_21  and  O_28
REMARK    4  A    between atoms: C_25  and  C_43
REMARK    5  A    between atoms: C_31  and  C_32
REMARK    6  A    between atoms: C_32  and  C_35
REMARK    7  A    between atoms: C_35  and  O_36
REMARK    8  A    between atoms: C_39  and  C_40
REMARK    9  A    between atoms: C_43  and  C_44
REMARK   10  A    between atoms: C_45  and  C_46
REMARK                            x       y       z     vdW  Elec       q    Type
REMARK                         _______ _______ _______ _____ _____    ______ ____
ROOT
ATOM      1  O   UNL     1     -40.116 -38.777  48.602  0.00  0.00    +0.000 OA
ATOM      2  O   UNL     1     -38.488 -40.959  49.544  0.00  0.00    +0.000 OA
ATOM      3  O   UNL     1     -42.801 -39.915  47.349  0.00  0.00    +0.000 OA
ATOM      4  O   UNL     1     -39.064 -44.712  47.952  0.00  0.00    +0.000 OA
ATOM      5  O   UNL     1     -34.570 -42.336  51.852  0.00  0.00    +0.000 OA
ATOM      6  C   UNL     1     -39.389 -41.051  48.448  0.00  0.00    +0.000 C 
ATOM      7  C   UNL     1     -38.901 -40.244  47.192  0.00  0.00    +0.000 C 
ATOM      8  C   UNL     1     -40.644 -40.111  48.651  0.00  0.00    +0.000 C 
ATOM      9  C   UNL     1     -39.017 -38.794  47.674  0.00  0.00    +0.000 C 
ATOM     10  C   UNL     1     -39.745 -40.654  46.069  0.00  0.00    +0.000 C 
ATOM     11  C   UNL     1     -41.032 -41.269  46.349  0.00  0.00    +0.000 C 
ATOM     12  C   UNL     1     -39.822 -42.488  48.110  0.00  0.00    +0.000 C 
ATOM     13  C   UNL     1     -41.673 -40.372  47.445  0.00  0.00    +0.000 C 
ATOM     14  C   UNL     1     -40.739 -42.511  47.016  0.00  0.00    +0.000 C 
ATOM     15  C   UNL     1     -39.344 -37.828  46.526  0.00  0.00    +0.000 C 
ATOM     16  C   UNL     1     -37.723 -38.368  48.386  0.00  0.00    +0.000 C 
ATOM     17  C   UNL     1     -38.909 -43.589  48.413  0.00  0.00    +0.000 C 
ATOM     18  C   UNL     1     -37.618 -41.984  49.796  0.00  0.00    +0.000 A 
ATOM     19  C   UNL     1     -37.765 -43.280  49.281  0.00  0.00    +0.000 A 
ATOM     20  C   UNL     1     -36.546 -41.689  50.667  0.00  0.00    +0.000 A 
ATOM     21  C   UNL     1     -36.835 -44.283  49.600  0.00  0.00    +0.000 A 
ATOM     22  C   UNL     1     -35.618 -42.683  50.996  0.00  0.00    +0.000 A 
ATOM     23  C   UNL     1     -35.774 -43.981  50.448  0.00  0.00    +0.000 A 
ATOM     24  C   UNL     1     -34.775 -44.898  50.861  0.00  0.00    +0.000 C 
ATOM     25  C   UNL     1     -33.596 -43.361  52.299  0.00  0.00    +0.000 C 
ATOM     26  C   UNL     1     -33.899 -44.622  51.620  0.00  0.00    +0.000 C 
ATOM     27  C   UNL     1     -33.745 -43.477  53.837  0.00  0.00    +0.000 C 
ENDROOT
BRANCH  21  28
ATOM     28  O   UNL     1     -36.926 -45.560  49.113  0.00  0.00    +0.000 OA
ATOM     29  H   UNL     1     -37.560 -46.080  49.656  0.00  0.00    +0.000 HD
ENDBRANCH  21  28
BRANCH   8  30
ATOM     30  C   UNL     1     -41.303 -40.328  49.946  0.00  0.00    +0.000 C 
ATOM     31  C   UNL     1     -41.989 -40.500  51.310  0.00  0.00    +0.000 C 
BRANCH  31  32
ATOM     32  C   UNL     1     -42.545 -40.599  52.485  0.00  0.00    +0.000 C 
ATOM     33  C   UNL     1     -42.177 -39.495  53.459  0.00  0.00    +0.000 C 
BRANCH  32  35
ATOM     34  O   UNL     1     -44.457 -42.029  52.126  0.00  0.00    +0.000 OA
ATOM     35  C   UNL     1     -43.474 -41.722  52.784  0.00  0.00    +0.000 C 
BRANCH  35  36
ATOM     36  O   UNL     1     -43.154 -42.428  53.889  0.00  0.00    +0.000 OA
ATOM     37  H   UNL     1     -42.180 -42.353  53.969  0.00  0.00    +0.000 HD
ENDBRANCH  35  36
ENDBRANCH  32  35
ENDBRANCH  31  32
ENDBRANCH   8  30
BRANCH  20  38
ATOM     38  C   UNL     1     -36.407 -40.369  51.210  0.00  0.00    +0.000 C 
ATOM     39  C   UNL     1     -36.230 -38.963  51.803  0.00  0.00    +0.000 C 
BRANCH  39  40
ATOM     40  C   UNL     1     -36.061 -37.781  52.307  0.00  0.00    +0.000 C 
ATOM     41  C   UNL     1     -35.343 -37.635  53.614  0.00  0.00    +0.000 C 
ATOM     42  C   UNL     1     -36.357 -36.570  51.476  0.00  0.00    +0.000 C 
ENDBRANCH  39  40
ENDBRANCH  20  38
BRANCH  25  43
ATOM     43  C   UNL     1     -32.254 -42.861  51.945  0.00  0.00    +0.000 C 
BRANCH  43  44
ATOM     44  C   UNL     1     -30.855 -42.349  51.579  0.00  0.00    +0.000 C 
ATOM     45  C   UNL     1     -29.455 -41.834  51.213  0.00  0.00    +0.000 C 
BRANCH  45  46
ATOM     46  C   UNL     1     -28.277 -41.397  50.897  0.00  0.00    +0.000 C 
ATOM     47  C   UNL     1     -27.873 -41.334  49.455  0.00  0.00    +0.000 C 
ATOM     48  C   UNL     1     -27.266 -41.128  51.967  0.00  0.00    +0.000 C 
ENDBRANCH  45  46
ENDBRANCH  43  44
ENDBRANCH  25  43
TORSDOF 10
ENDMDL
MODEL 4
REMARK VINA RESULT:      -6.7     25.967     29.897
REMARK  Name = 9852185_GambogicAcid.pdbqt.pdb
REMARK  10 active torsions:
REMARK  status: ('A' for Active; 'I' for Inactive)
REMARK    1  A    between atoms: C_8  and  C_30
REMARK    2  A    between atoms: C_20  and  C_38
REMARK    3  A    between atoms: C_21  and  O_28
REMARK    4  A    between atoms: C_25  and  C_43
REMARK    5  A    between atoms: C_31  and  C_32
REMARK    6  A    between atoms: C_32  and  C_35
REMARK    7  A    between atoms: C_35  and  O_36
REMARK    8  A    between atoms: C_39  and  C_40
REMARK    9  A    between atoms: C_43  and  C_44
REMARK   10  A    between atoms: C_45  and  C_46
REMARK                            x       y       z     vdW  Elec       q    Type
REMARK                         _______ _______ _______ _____ _____    ______ ____
ROOT
ATOM      1  O   UNL     1     -26.206 -51.880  57.901  0.00  0.00    +0.000 OA
ATOM      2  O   UNL     1     -28.666 -52.068  56.415  0.00  0.00    +0.000 OA
ATOM      3  O   UNL     1     -25.822 -54.493  59.661  0.00  0.00    +0.000 OA
ATOM      4  O   UNL     1     -31.634 -54.576  57.776  0.00  0.00    +0.000 OA
ATOM      5  O   UNL     1     -31.522 -50.170  53.125  0.00  0.00    +0.000 OA
ATOM      6  C   UNL     1     -28.452 -52.674  57.683  0.00  0.00    +0.000 C 
ATOM      7  C   UNL     1     -28.362 -51.625  58.849  0.00  0.00    +0.000 C 
ATOM      8  C   UNL     1     -26.944 -53.111  57.868  0.00  0.00    +0.000 C 
ATOM      9  C   UNL     1     -27.049 -50.901  58.533  0.00  0.00    +0.000 C 
ATOM     10  C   UNL     1     -28.438 -52.376  60.103  0.00  0.00    +0.000 C 
ATOM     11  C   UNL     1     -28.123 -53.794  60.090  0.00  0.00    +0.000 C 
ATOM     12  C   UNL     1     -29.409 -53.838  57.992  0.00  0.00    +0.000 C 
ATOM     13  C   UNL     1     -26.812 -53.903  59.259  0.00  0.00    +0.000 C 
ATOM     14  C   UNL     1     -29.130 -54.415  59.269  0.00  0.00    +0.000 C 
ATOM     15  C   UNL     1     -26.342 -50.408  59.803  0.00  0.00    +0.000 C 
ATOM     16  C   UNL     1     -27.308 -49.732  57.570  0.00  0.00    +0.000 C 
ATOM     17  C   UNL     1     -30.739 -53.837  57.387  0.00  0.00    +0.000 C 
ATOM     18  C   UNL     1     -29.923 -52.047  55.875  0.00  0.00    +0.000 A 
ATOM     19  C   UNL     1     -30.970 -52.878  56.300  0.00  0.00    +0.000 A 
ATOM     20  C   UNL     1     -30.123 -51.153  54.801  0.00  0.00    +0.000 A 
ATOM     21  C   UNL     1     -32.230 -52.807  55.683  0.00  0.00    +0.000 A 
ATOM     22  C   UNL     1     -31.373 -51.079  54.176  0.00  0.00    +0.000 A 
ATOM     23  C   UNL     1     -32.424 -51.913  54.633  0.00  0.00    +0.000 A 
ATOM     24  C   UNL     1     -33.635 -51.749  53.917  0.00  0.00    +0.000 C 
ATOM     25  C   UNL     1     -32.797 -50.095  52.372  0.00  0.00    +0.000 C 
ATOM     26  C   UNL     1     -33.761 -51.004  52.995  0.00  0.00    +0.000 C 
ATOM     27  C   UNL     1     -32.476 -50.499  50.912  0.00  0.00    +0.000 C 
ENDROOT
BRANCH  21  28
ATOM     28  O   UNL     1     -33.289 -53.586  56.068  0.00  0.00    +0.000 OA
ATOM     29  H   UNL     1     -33.730 -53.187  56.851  0.00  0.00    +0.000 HD
ENDBRANCH  21  28
BRANCH   8  30
ATOM     30  C   UNL     1     -26.460 -53.940  56.755  0.00  0.00    +0.000 C 
ATOM     31  C   UNL     1     -26.006 -54.817  55.578  0.00  0.00    +0.000 C 
BRANCH  31  32
ATOM     32  C   UNL     1     -25.671 -55.587  54.582  0.00  0.00    +0.000 C 
ATOM     33  C   UNL     1     -24.176 -55.726  54.359  0.00  0.00    +0.000 C 
BRANCH  32  35
ATOM     34  O   UNL     1     -27.216 -57.354  54.018  0.00  0.00    +0.000 OA
ATOM     35  C   UNL     1     -26.718 -56.266  53.772  0.00  0.00    +0.000 C 
BRANCH  35  36
ATOM     36  O   UNL     1     -27.114 -55.573  52.683  0.00  0.00    +0.000 OA
ATOM     37  H   UNL     1     -27.646 -56.205  52.156  0.00  0.00    +0.000 HD
ENDBRANCH  35  36
ENDBRANCH  32  35
ENDBRANCH  31  32
ENDBRANCH   8  30
BRANCH  20  38
ATOM     38  C   UNL     1     -29.046 -50.318  54.354  0.00  0.00    +0.000 C 
ATOM     39  C   UNL     1     -27.899 -49.405  53.899  0.00  0.00    +0.000 C 
BRANCH  39  40
ATOM     40  C   UNL     1     -26.932 -48.622  53.532  0.00  0.00    +0.000 C 
ATOM     41  C   UNL     1     -26.244 -48.868  52.223  0.00  0.00    +0.000 C 
ATOM     42  C   UNL     1     -26.676 -47.354  54.286  0.00  0.00    +0.000 C 
ENDBRANCH  39  40
ENDBRANCH  20  38
BRANCH  25  43
ATOM     43  C   UNL     1     -33.251 -48.693  52.435  0.00  0.00    +0.000 C 
BRANCH  43  44
ATOM     44  C   UNL     1     -33.728 -47.236  52.494  0.00  0.00    +0.000 C 
ATOM     45  C   UNL     1     -34.203 -45.777  52.552  0.00  0.00    +0.000 C 
BRANCH  45  46
ATOM     46  C   UNL     1     -34.601 -44.545  52.608  0.00  0.00    +0.000 C 
ATOM     47  C   UNL     1     -33.712 -43.508  53.223  0.00  0.00    +0.000 C 
ATOM     48  C   UNL     1     -36.006 -44.194  52.227  0.00  0.00    +0.000 C 
ENDBRANCH  45  46
ENDBRANCH  43  44
ENDBRANCH  25  43
TORSDOF 10
ENDMDL
MODEL 5
REMARK VINA RESULT:      -6.5      7.782     11.062
REMARK  Name = 9852185_GambogicAcid.pdbqt.pdb
REMARK  10 active torsions:
REMARK  status: ('A' for Active; 'I' for Inactive)
REMARK    1  A    between atoms: C_8  and  C_30
REMARK    2  A    between atoms: C_20  and  C_38
REMARK    3  A    between atoms: C_21  and  O_28
REMARK    4  A    between atoms: C_25  and  C_43
REMARK    5  A    between atoms: C_31  and  C_32
REMARK    6  A    between atoms: C_32  and  C_35
REMARK    7  A    between atoms: C_35  and  O_36
REMARK    8  A    between atoms: C_39  and  C_40
REMARK    9  A    between atoms: C_43  and  C_44
REMARK   10  A    between atoms: C_45  and  C_46
REMARK                            x       y       z     vdW  Elec       q    Type
REMARK                         _______ _______ _______ _____ _____    ______ ____
ROOT
ATOM      1  O   UNL     1     -41.999 -60.224  32.985  0.00  0.00    +0.000 OA
ATOM      2  O   UNL     1     -43.063 -57.588  33.448  0.00  0.00    +0.000 OA
ATOM      3  O   UNL     1     -42.558 -62.058  35.514  0.00  0.00    +0.000 OA
ATOM      4  O   UNL     1     -43.651 -56.324  37.322  0.00  0.00    +0.000 OA
ATOM      5  O   UNL     1     -43.962 -53.260  31.703  0.00  0.00    +0.000 OA
ATOM      6  C   UNL     1     -42.580 -58.444  34.474  0.00  0.00    +0.000 C 
ATOM      7  C   UNL     1     -41.020 -58.623  34.431  0.00  0.00    +0.000 C 
ATOM      8  C   UNL     1     -42.833 -59.965  34.125  0.00  0.00    +0.000 C 
ATOM      9  C   UNL     1     -40.820 -59.414  33.133  0.00  0.00    +0.000 C 
ATOM     10  C   UNL     1     -40.631 -59.269  35.685  0.00  0.00    +0.000 C 
ATOM     11  C   UNL     1     -41.638 -59.994  36.441  0.00  0.00    +0.000 C 
ATOM     12  C   UNL     1     -43.109 -58.103  35.878  0.00  0.00    +0.000 C 
ATOM     13  C   UNL     1     -42.385 -60.856  35.384  0.00  0.00    +0.000 C 
ATOM     14  C   UNL     1     -42.602 -59.009  36.859  0.00  0.00    +0.000 C 
ATOM     15  C   UNL     1     -39.603 -60.347  33.207  0.00  0.00    +0.000 C 
ATOM     16  C   UNL     1     -40.691 -58.452  31.942  0.00  0.00    +0.000 C 
ATOM     17  C   UNL     1     -43.469 -56.718  36.178  0.00  0.00    +0.000 C 
ATOM     18  C   UNL     1     -43.367 -56.285  33.737  0.00  0.00    +0.000 A 
ATOM     19  C   UNL     1     -43.577 -55.801  35.036  0.00  0.00    +0.000 A 
ATOM     20  C   UNL     1     -43.512 -55.421  32.630  0.00  0.00    +0.000 A 
ATOM     21  C   UNL     1     -43.903 -54.451  35.249  0.00  0.00    +0.000 A 
ATOM     22  C   UNL     1     -43.841 -54.076  32.831  0.00  0.00    +0.000 A 
ATOM     23  C   UNL     1     -44.030 -53.602  34.154  0.00  0.00    +0.000 A 
ATOM     24  C   UNL     1     -44.365 -52.227  34.225  0.00  0.00    +0.000 C 
ATOM     25  C   UNL     1     -44.382 -51.845  31.842  0.00  0.00    +0.000 C 
ATOM     26  C   UNL     1     -44.507 -51.532  33.266  0.00  0.00    +0.000 C 
ATOM     27  C   UNL     1     -45.731 -51.705  31.094  0.00  0.00    +0.000 C 
ENDROOT
BRANCH  21  28
ATOM     28  O   UNL     1     -44.105 -53.926  36.497  0.00  0.00    +0.000 OA
ATOM     29  H   UNL     1     -43.404 -54.243  37.111  0.00  0.00    +0.000 HD
ENDBRANCH  21  28
BRANCH   8  30
ATOM     30  C   UNL     1     -44.234 -60.235  33.775  0.00  0.00    +0.000 C 
ATOM     31  C   UNL     1     -45.698 -60.561  33.440  0.00  0.00    +0.000 C 
BRANCH  31  32
ATOM     32  C   UNL     1     -46.928 -60.893  33.167  0.00  0.00    +0.000 C 
ATOM     33  C   UNL     1     -47.203 -61.165  31.699  0.00  0.00    +0.000 C 
BRANCH  32  35
ATOM     34  O   UNL     1     -48.327 -62.036  34.769  0.00  0.00    +0.000 OA
ATOM     35  C   UNL     1     -47.937 -60.998  34.255  0.00  0.00    +0.000 C 
BRANCH  35  36
ATOM     36  O   UNL     1     -48.430 -59.812  34.671  0.00  0.00    +0.000 OA
ATOM     37  H   UNL     1     -48.071 -59.688  35.575  0.00  0.00    +0.000 HD
ENDBRANCH  35  36
ENDBRANCH  32  35
ENDBRANCH  31  32
ENDBRANCH   8  30
BRANCH  20  38
ATOM     38  C   UNL     1     -43.317 -55.921  31.300  0.00  0.00    +0.000 C 
ATOM     39  C   UNL     1     -43.120 -56.485  29.885  0.00  0.00    +0.000 C 
BRANCH  39  40
ATOM     40  C   UNL     1     -42.966 -56.978  28.696  0.00  0.00    +0.000 C 
ATOM     41  C   UNL     1     -44.035 -56.764  27.668  0.00  0.00    +0.000 C 
ATOM     42  C   UNL     1     -41.635 -57.533  28.288  0.00  0.00    +0.000 C 
ENDBRANCH  39  40
ENDBRANCH  20  38
BRANCH  25  43
ATOM     43  C   UNL     1     -43.342 -51.023  31.194  0.00  0.00    +0.000 C 
BRANCH  43  44
ATOM     44  C   UNL     1     -42.267 -50.164  30.517  0.00  0.00    +0.000 C 
ATOM     45  C   UNL     1     -41.191 -49.304  29.838  0.00  0.00    +0.000 C 
BRANCH  45  46
ATOM     46  C   UNL     1     -40.279 -48.585  29.263  0.00  0.00    +0.000 C 
ATOM     47  C   UNL     1     -40.670 -47.605  28.200  0.00  0.00    +0.000 C 
ATOM     48  C   UNL     1     -38.831 -48.857  29.531  0.00  0.00    +0.000 C 
ENDBRANCH  45  46
ENDBRANCH  43  44
ENDBRANCH  25  43
TORSDOF 10
ENDMDL
MODEL 6
REMARK VINA RESULT:      -6.4     26.567     31.223
REMARK  Name = 9852185_GambogicAcid.pdbqt.pdb
REMARK  10 active torsions:
REMARK  status: ('A' for Active; 'I' for Inactive)
REMARK    1  A    between atoms: C_8  and  C_30
REMARK    2  A    between atoms: C_20  and  C_38
REMARK    3  A    between atoms: C_21  and  O_28
REMARK    4  A    between atoms: C_25  and  C_43
REMARK    5  A    between atoms: C_31  and  C_32
REMARK    6  A    between atoms: C_32  and  C_35
REMARK    7  A    between atoms: C_35  and  O_36
REMARK    8  A    between atoms: C_39  and  C_40
REMARK    9  A    between atoms: C_43  and  C_44
REMARK   10  A    between atoms: C_45  and  C_46
REMARK                            x       y       z     vdW  Elec       q    Type
REMARK                         _______ _______ _______ _____ _____    ______ ____
ROOT
ATOM      1  O   UNL     1     -35.734 -39.653  49.122  0.00  0.00    +0.000 OA
ATOM      2  O   UNL     1     -38.085 -39.482  50.778  0.00  0.00    +0.000 OA
ATOM      3  O   UNL     1     -33.146 -39.168  50.894  0.00  0.00    +0.000 OA
ATOM      4  O   UNL     1     -37.884 -37.396  54.322  0.00  0.00    +0.000 OA
ATOM      5  O   UNL     1     -42.801 -39.960  51.112  0.00  0.00    +0.000 OA
ATOM      6  C   UNL     1     -36.882 -38.766  51.024  0.00  0.00    +0.000 C 
ATOM      7  C   UNL     1     -36.627 -37.629  49.971  0.00  0.00    +0.000 C 
ATOM      8  C   UNL     1     -35.615 -39.584  50.552  0.00  0.00    +0.000 C 
ATOM      9  C   UNL     1     -36.353 -38.428  48.692  0.00  0.00    +0.000 C 
ATOM     10  C   UNL     1     -35.543 -36.798  50.496  0.00  0.00    +0.000 C 
ATOM     11  C   UNL     1     -34.662 -37.355  51.509  0.00  0.00    +0.000 C 
ATOM     12  C   UNL     1     -36.723 -38.287  52.478  0.00  0.00    +0.000 C 
ATOM     13  C   UNL     1     -34.297 -38.773  50.984  0.00  0.00    +0.000 C 
ATOM     14  C   UNL     1     -35.489 -37.593  52.664  0.00  0.00    +0.000 C 
ATOM     15  C   UNL     1     -35.377 -37.702  47.755  0.00  0.00    +0.000 C 
ATOM     16  C   UNL     1     -37.672 -38.733  47.966  0.00  0.00    +0.000 C 
ATOM     17  C   UNL     1     -37.923 -38.012  53.265  0.00  0.00    +0.000 C 
ATOM     18  C   UNL     1     -39.209 -39.192  51.502  0.00  0.00    +0.000 A 
ATOM     19  C   UNL     1     -39.199 -38.485  52.713  0.00  0.00    +0.000 A 
ATOM     20  C   UNL     1     -40.426 -39.689  50.986  0.00  0.00    +0.000 A 
ATOM     21  C   UNL     1     -40.397 -38.241  53.406  0.00  0.00    +0.000 A 
ATOM     22  C   UNL     1     -41.623 -39.456  51.671  0.00  0.00    +0.000 A 
ATOM     23  C   UNL     1     -41.594 -38.723  52.883  0.00  0.00    +0.000 A 
ATOM     24  C   UNL     1     -42.867 -38.559  53.483  0.00  0.00    +0.000 C 
ATOM     25  C   UNL     1     -44.093 -39.813  51.825  0.00  0.00    +0.000 C 
ATOM     26  C   UNL     1     -43.871 -39.018  53.034  0.00  0.00    +0.000 C 
ATOM     27  C   UNL     1     -44.587 -41.245  52.152  0.00  0.00    +0.000 C 
ENDROOT
BRANCH  21  28
ATOM     28  O   UNL     1     -40.442 -37.546  54.584  0.00  0.00    +0.000 OA
ATOM     29  H   UNL     1     -41.334 -37.147  54.702  0.00  0.00    +0.000 HD
ENDBRANCH  21  28
BRANCH   8  30
ATOM     30  C   UNL     1     -35.587 -40.945  51.105  0.00  0.00    +0.000 C 
ATOM     31  C   UNL     1     -35.557 -42.346  51.735  0.00  0.00    +0.000 C 
BRANCH  31  32
ATOM     32  C   UNL     1     -35.505 -43.512  52.314  0.00  0.00    +0.000 C 
ATOM     33  C   UNL     1     -34.296 -43.729  53.204  0.00  0.00    +0.000 C 
BRANCH  32  35
ATOM     34  O   UNL     1     -37.746 -44.249  51.796  0.00  0.00    +0.000 OA
ATOM     35  C   UNL     1     -36.589 -44.508  52.095  0.00  0.00    +0.000 C 
BRANCH  35  36
ATOM     36  O   UNL     1     -36.204 -45.792  52.253  0.00  0.00    +0.000 OA
ATOM     37  H   UNL     1     -36.976 -46.244  52.653  0.00  0.00    +0.000 HD
ENDBRANCH  35  36
ENDBRANCH  32  35
ENDBRANCH  31  32
ENDBRANCH   8  30
BRANCH  20  38
ATOM     38  C   UNL     1     -40.433 -40.429  49.758  0.00  0.00    +0.000 C 
ATOM     39  C   UNL     1     -40.424 -41.244  48.456  0.00  0.00    +0.000 C 
BRANCH  39  40
ATOM     40  C   UNL     1     -40.408 -41.949  47.367  0.00  0.00    +0.000 C 
ATOM     41  C   UNL     1     -40.730 -41.289  46.060  0.00  0.00    +0.000 C 
ATOM     42  C   UNL     1     -39.837 -43.333  47.386  0.00  0.00    +0.000 C 
ENDBRANCH  39  40
ENDBRANCH  20  38
BRANCH  25  43
ATOM     43  C   UNL     1     -45.022 -39.144  50.896  0.00  0.00    +0.000 C 
BRANCH  43  44
ATOM     44  C   UNL     1     -45.992 -38.454  49.927  0.00  0.00    +0.000 C 
ATOM     45  C   UNL     1     -46.964 -37.764  48.960  0.00  0.00    +0.000 C 
BRANCH  45  46
ATOM     46  C   UNL     1     -47.789 -37.188  48.142  0.00  0.00    +0.000 C 
ATOM     47  C   UNL     1     -47.261 -36.268  47.085  0.00  0.00    +0.000 C 
ATOM     48  C   UNL     1     -49.265 -37.299  48.366  0.00  0.00    +0.000 C 
ENDBRANCH  45  46
ENDBRANCH  43  44
ENDBRANCH  25  43
TORSDOF 10
ENDMDL
MODEL 7
REMARK VINA RESULT:      -6.3      7.385     12.831
REMARK  Name = 9852185_GambogicAcid.pdbqt.pdb
REMARK  10 active torsions:
REMARK  status: ('A' for Active; 'I' for Inactive)
REMARK    1  A    between atoms: C_8  and  C_30
REMARK    2  A    between atoms: C_20  and  C_38
REMARK    3  A    between atoms: C_21  and  O_28
REMARK    4  A    between atoms: C_25  and  C_43
REMARK    5  A    between atoms: C_31  and  C_32
REMARK    6  A    between atoms: C_32  and  C_35
REMARK    7  A    between atoms: C_35  and  O_36
REMARK    8  A    between atoms: C_39  and  C_40
REMARK    9  A    between atoms: C_43  and  C_44
REMARK   10  A    between atoms: C_45  and  C_46
REMARK                            x       y       z     vdW  Elec       q    Type
REMARK                         _______ _______ _______ _____ _____    ______ ____
ROOT
ATOM      1  O   UNL     1     -44.219 -55.173  34.250  0.00  0.00    +0.000 OA
ATOM      2  O   UNL     1     -41.414 -55.819  34.143  0.00  0.00    +0.000 OA
ATOM      3  O   UNL     1     -44.848 -52.824  32.211  0.00  0.00    +0.000 OA
ATOM      4  O   UNL     1     -38.764 -52.991  32.752  0.00  0.00    +0.000 OA
ATOM      5  O   UNL     1     -37.898 -58.679  35.572  0.00  0.00    +0.000 OA
ATOM      6  C   UNL     1     -41.944 -54.526  33.886  0.00  0.00    +0.000 C 
ATOM      7  C   UNL     1     -42.502 -53.830  35.180  0.00  0.00    +0.000 C 
ATOM      8  C   UNL     1     -43.380 -54.609  33.230  0.00  0.00    +0.000 C 
ATOM      9  C   UNL     1     -43.722 -54.696  35.513  0.00  0.00    +0.000 C 
ATOM     10  C   UNL     1     -42.739 -52.427  34.840  0.00  0.00    +0.000 C 
ATOM     11  C   UNL     1     -42.882 -52.060  33.441  0.00  0.00    +0.000 C 
ATOM     12  C   UNL     1     -41.012 -53.616  33.067  0.00  0.00    +0.000 C 
ATOM     13  C   UNL     1     -43.851 -53.122  32.848  0.00  0.00    +0.000 C 
ATOM     14  C   UNL     1     -41.610 -52.341  32.827  0.00  0.00    +0.000 C 
ATOM     15  C   UNL     1     -44.836 -53.887  36.192  0.00  0.00    +0.000 C 
ATOM     16  C   UNL     1     -43.303 -55.884  36.394  0.00  0.00    +0.000 C 
ATOM     17  C   UNL     1     -39.568 -53.818  33.162  0.00  0.00    +0.000 C 
ATOM     18  C   UNL     1     -40.061 -55.987  34.260  0.00  0.00    +0.000 A 
ATOM     19  C   UNL     1     -39.115 -55.058  33.805  0.00  0.00    +0.000 A 
ATOM     20  C   UNL     1     -39.634 -57.202  34.840  0.00  0.00    +0.000 A 
ATOM     21  C   UNL     1     -37.740 -55.313  33.948  0.00  0.00    +0.000 A 
ATOM     22  C   UNL     1     -38.268 -57.468  34.982  0.00  0.00    +0.000 A 
ATOM     23  C   UNL     1     -37.328 -56.506  34.533  0.00  0.00    +0.000 A 
ATOM     24  C   UNL     1     -35.978 -56.894  34.726  0.00  0.00    +0.000 C 
ATOM     25  C   UNL     1     -36.468 -59.054  35.683  0.00  0.00    +0.000 C 
ATOM     26  C   UNL     1     -35.653 -57.941  35.194  0.00  0.00    +0.000 C 
ATOM     27  C   UNL     1     -36.275 -60.335  34.833  0.00  0.00    +0.000 C 
ENDROOT
BRANCH  21  28
ATOM     28  O   UNL     1     -36.777 -54.433  33.532  0.00  0.00    +0.000 OA
ATOM     29  H   UNL     1     -36.300 -54.802  32.755  0.00  0.00    +0.000 HD
ENDBRANCH  21  28
BRANCH   8  30
ATOM     30  C   UNL     1     -43.404 -55.478  32.044  0.00  0.00    +0.000 C 
ATOM     31  C   UNL     1     -43.423 -56.429  30.837  0.00  0.00    +0.000 C 
BRANCH  31  32
ATOM     32  C   UNL     1     -43.407 -57.272  29.844  0.00  0.00    +0.000 C 
ATOM     33  C   UNL     1     -42.083 -57.366  29.109  0.00  0.00    +0.000 C 
BRANCH  32  35
ATOM     34  O   UNL     1     -45.317 -58.671  30.318  0.00  0.00    +0.000 OA
ATOM     35  C   UNL     1     -44.620 -58.068  29.515  0.00  0.00    +0.000 C 
BRANCH  35  36
ATOM     36  O   UNL     1     -44.932 -58.089  28.202  0.00  0.00    +0.000 OA
ATOM     37  H   UNL     1     -45.883 -58.322  28.167  0.00  0.00    +0.000 HD
ENDBRANCH  35  36
ENDBRANCH  32  35
ENDBRANCH  31  32
ENDBRANCH   8  30
BRANCH  20  38
ATOM     38  C   UNL     1     -40.602 -58.161  35.287  0.00  0.00    +0.000 C 
ATOM     39  C   UNL     1     -41.629 -59.184  35.795  0.00  0.00    +0.000 C 
BRANCH  39  40
ATOM     40  C   UNL     1     -42.492 -60.041  36.244  0.00  0.00    +0.000 C 
ATOM     41  C   UNL     1     -43.150 -59.797  37.568  0.00  0.00    +0.000 C 
ATOM     42  C   UNL     1     -43.002 -61.123  35.342  0.00  0.00    +0.000 C 
ENDBRANCH  39  40
ENDBRANCH  20  38
BRANCH  25  43
ATOM     43  C   UNL     1     -36.207 -59.334  37.108  0.00  0.00    +0.000 C 
BRANCH  43  44
ATOM     44  C   UNL     1     -35.929 -59.622  38.589  0.00  0.00    +0.000 C 
ATOM     45  C   UNL     1     -35.651 -59.912  40.071  0.00  0.00    +0.000 C 
BRANCH  45  46
ATOM     46  C   UNL     1     -35.424 -60.155  41.323  0.00  0.00    +0.000 C 
ATOM     47  C   UNL     1     -36.360 -61.041  42.087  0.00  0.00    +0.000 C 
ATOM     48  C   UNL     1     -34.340 -59.416  42.046  0.00  0.00    +0.000 C 
ENDBRANCH  45  46
ENDBRANCH  43  44
ENDBRANCH  25  43
TORSDOF 10
ENDMDL
MODEL 8
REMARK VINA RESULT:      -6.3     12.823     16.060
REMARK  Name = 9852185_GambogicAcid.pdbqt.pdb
REMARK  10 active torsions:
REMARK  status: ('A' for Active; 'I' for Inactive)
REMARK    1  A    between atoms: C_8  and  C_30
REMARK    2  A    between atoms: C_20  and  C_38
REMARK    3  A    between atoms: C_21  and  O_28
REMARK    4  A    between atoms: C_25  and  C_43
REMARK    5  A    between atoms: C_31  and  C_32
REMARK    6  A    between atoms: C_32  and  C_35
REMARK    7  A    between atoms: C_35  and  O_36
REMARK    8  A    between atoms: C_39  and  C_40
REMARK    9  A    between atoms: C_43  and  C_44
REMARK   10  A    between atoms: C_45  and  C_46
REMARK                            x       y       z     vdW  Elec       q    Type
REMARK                         _______ _______ _______ _____ _____    ______ ____
ROOT
ATOM      1  O   UNL     1     -41.528 -54.405  32.812  0.00  0.00    +0.000 OA
ATOM      2  O   UNL     1     -42.610 -52.172  31.350  0.00  0.00    +0.000 OA
ATOM      3  O   UNL     1     -43.872 -55.934  34.310  0.00  0.00    +0.000 OA
ATOM      4  O   UNL     1     -46.232 -50.593  32.507  0.00  0.00    +0.000 OA
ATOM      5  O   UNL     1     -41.825 -48.616  28.296  0.00  0.00    +0.000 OA
ATOM      6  C   UNL     1     -43.170 -52.685  32.551  0.00  0.00    +0.000 C 
ATOM      7  C   UNL     1     -42.278 -52.392  33.810  0.00  0.00    +0.000 C 
ATOM      8  C   UNL     1     -42.948 -54.246  32.672  0.00  0.00    +0.000 C 
ATOM      9  C   UNL     1     -41.047 -53.266  33.546  0.00  0.00    +0.000 C 
ATOM     10  C   UNL     1     -43.090 -52.701  34.988  0.00  0.00    +0.000 C 
ATOM     11  C   UNL     1     -44.239 -53.577  34.835  0.00  0.00    +0.000 C 
ATOM     12  C   UNL     1     -44.649 -52.318  32.761  0.00  0.00    +0.000 C 
ATOM     13  C   UNL     1     -43.722 -54.768  33.979  0.00  0.00    +0.000 C 
ATOM     14  C   UNL     1     -45.157 -52.878  33.973  0.00  0.00    +0.000 C 
ATOM     15  C   UNL     1     -40.407 -53.770  34.848  0.00  0.00    +0.000 C 
ATOM     16  C   UNL     1     -40.021 -52.493  32.703  0.00  0.00    +0.000 C 
ATOM     17  C   UNL     1     -45.157 -51.077  32.178  0.00  0.00    +0.000 C 
ATOM     18  C   UNL     1     -43.075 -50.994  30.832  0.00  0.00    +0.000 A 
ATOM     19  C   UNL     1     -44.298 -50.411  31.190  0.00  0.00    +0.000 A 
ATOM     20  C   UNL     1     -42.263 -50.383  29.851  0.00  0.00    +0.000 A 
ATOM     21  C   UNL     1     -44.713 -49.205  30.600  0.00  0.00    +0.000 A 
ATOM     22  C   UNL     1     -42.669 -49.185  29.254  0.00  0.00    +0.000 A 
ATOM     23  C   UNL     1     -43.901 -48.602  29.644  0.00  0.00    +0.000 A 
ATOM     24  C   UNL     1     -44.203 -47.396  28.964  0.00  0.00    +0.000 C 
ATOM     25  C   UNL     1     -42.231 -47.388  27.572  0.00  0.00    +0.000 C 
ATOM     26  C   UNL     1     -43.507 -46.924  28.119  0.00  0.00    +0.000 C 
ATOM     27  C   UNL     1     -42.344 -47.770  26.075  0.00  0.00    +0.000 C 
ENDROOT
BRANCH  21  28
ATOM     28  O   UNL     1     -45.892 -48.589  30.924  0.00  0.00    +0.000 OA
ATOM     29  H   UNL     1     -45.715 -47.805  31.491  0.00  0.00    +0.000 HD
ENDBRANCH  21  28
BRANCH   8  30
ATOM     30  C   UNL     1     -43.405 -54.971  31.479  0.00  0.00    +0.000 C 
ATOM     31  C   UNL     1     -43.856 -55.694  30.200  0.00  0.00    +0.000 C 
BRANCH  31  32
ATOM     32  C   UNL     1     -44.231 -56.259  29.087  0.00  0.00    +0.000 C 
ATOM     33  C   UNL     1     -44.132 -55.373  27.859  0.00  0.00    +0.000 C 
BRANCH  32  35
ATOM     34  O   UNL     1     -44.964 -58.339  30.069  0.00  0.00    +0.000 OA
ATOM     35  C   UNL     1     -44.696 -57.672  29.081  0.00  0.00    +0.000 C 
BRANCH  35  36
ATOM     36  O   UNL     1     -44.814 -58.213  27.850  0.00  0.00    +0.000 OA
ATOM     37  H   UNL     1     -44.319 -59.058  27.892  0.00  0.00    +0.000 HD
ENDBRANCH  35  36
ENDBRANCH  32  35
ENDBRANCH  31  32
ENDBRANCH   8  30
BRANCH  20  38
ATOM     38  C   UNL     1     -41.020 -50.990  29.471  0.00  0.00    +0.000 C 
ATOM     39  C   UNL     1     -39.687 -51.619  29.040  0.00  0.00    +0.000 C 
BRANCH  39  40
ATOM     40  C   UNL     1     -38.558 -52.133  28.664  0.00  0.00    +0.000 C 
ATOM     41  C   UNL     1     -37.469 -52.333  29.674  0.00  0.00    +0.000 C 
ATOM     42  C   UNL     1     -38.437 -52.744  27.301  0.00  0.00    +0.000 C 
ENDBRANCH  39  40
ENDBRANCH  20  38
BRANCH  25  43
ATOM     43  C   UNL     1     -41.159 -46.395  27.775  0.00  0.00    +0.000 C 
BRANCH  43  44
ATOM     44  C   UNL     1     -40.047 -45.359  27.980  0.00  0.00    +0.000 C 
ATOM     45  C   UNL     1     -38.933 -44.322  28.184  0.00  0.00    +0.000 C 
BRANCH  45  46
ATOM     46  C   UNL     1     -37.990 -43.450  28.364  0.00  0.00    +0.000 C 
ATOM     47  C   UNL     1     -36.941 -43.268  27.310  0.00  0.00    +0.000 C 
ATOM     48  C   UNL     1     -37.848 -42.762  29.685  0.00  0.00    +0.000 C 
ENDBRANCH  45  46
ENDBRANCH  43  44
ENDBRANCH  25  43
TORSDOF 10
ENDMDL
MODEL 9
REMARK VINA RESULT:      -6.3     12.437     16.190
REMARK  Name = 9852185_GambogicAcid.pdbqt.pdb
REMARK  10 active torsions:
REMARK  status: ('A' for Active; 'I' for Inactive)
REMARK    1  A    between atoms: C_8  and  C_30
REMARK    2  A    between atoms: C_20  and  C_38
REMARK    3  A    between atoms: C_21  and  O_28
REMARK    4  A    between atoms: C_25  and  C_43
REMARK    5  A    between atoms: C_31  and  C_32
REMARK    6  A    between atoms: C_32  and  C_35
REMARK    7  A    between atoms: C_35  and  O_36
REMARK    8  A    between atoms: C_39  and  C_40
REMARK    9  A    between atoms: C_43  and  C_44
REMARK   10  A    between atoms: C_45  and  C_46
REMARK                            x       y       z     vdW  Elec       q    Type
REMARK                         _______ _______ _______ _____ _____    ______ ____
ROOT
ATOM      1  O   UNL     1     -42.105 -51.585  26.259  0.00  0.00    +0.000 OA
ATOM      2  O   UNL     1     -43.024 -51.387  28.982  0.00  0.00    +0.000 OA
ATOM      3  O   UNL     1     -43.002 -49.005  24.643  0.00  0.00    +0.000 OA
ATOM      4  O   UNL     1     -46.217 -48.932  29.839  0.00  0.00    +0.000 OA
ATOM      5  O   UNL     1     -43.039 -53.242  33.357  0.00  0.00    +0.000 OA
ATOM      6  C   UNL     1     -43.693 -50.805  27.871  0.00  0.00    +0.000 C 
ATOM      7  C   UNL     1     -44.358 -51.877  26.934  0.00  0.00    +0.000 C 
ATOM      8  C   UNL     1     -42.671 -50.360  26.750  0.00  0.00    +0.000 C 
ATOM      9  C   UNL     1     -43.138 -52.583  26.333  0.00  0.00    +0.000 C 
ATOM     10  C   UNL     1     -45.241 -51.152  26.019  0.00  0.00    +0.000 C 
ATOM     11  C   UNL     1     -45.019 -49.731  25.811  0.00  0.00    +0.000 C 
ATOM     12  C   UNL     1     -44.645 -49.655  28.242  0.00  0.00    +0.000 C 
ATOM     13  C   UNL     1     -43.485 -49.594  25.596  0.00  0.00    +0.000 C 
ATOM     14  C   UNL     1     -45.269 -49.103  27.082  0.00  0.00    +0.000 C 
ATOM     15  C   UNL     1     -43.410 -53.096  24.912  0.00  0.00    +0.000 C 
ATOM     16  C   UNL     1     -42.690 -53.735  27.246  0.00  0.00    +0.000 C 
ATOM     17  C   UNL     1     -45.269 -49.655  29.564  0.00  0.00    +0.000 C 
ATOM     18  C   UNL     1     -43.634 -51.407  30.207  0.00  0.00    +0.000 A 
ATOM     19  C   UNL     1     -44.723 -50.595  30.552  0.00  0.00    +0.000 A 
ATOM     20  C   UNL     1     -43.075 -52.282  31.165  0.00  0.00    +0.000 A 
ATOM     21  C   UNL     1     -45.284 -50.663  31.839  0.00  0.00    +0.000 A 
ATOM     22  C   UNL     1     -43.623 -52.354  32.450  0.00  0.00    +0.000 A 
ATOM     23  C   UNL     1     -44.736 -51.537  32.773  0.00  0.00    +0.000 A 
ATOM     24  C   UNL     1     -45.194 -51.697  34.104  0.00  0.00    +0.000 C 
ATOM     25  C   UNL     1     -43.523 -53.312  34.757  0.00  0.00    +0.000 C 
ATOM     26  C   UNL     1     -44.679 -52.425  34.896  0.00  0.00    +0.000 C 
ATOM     27  C   UNL     1     -42.342 -52.877  35.659  0.00  0.00    +0.000 C 
ENDROOT
BRANCH  21  28
ATOM     28  O   UNL     1     -46.355 -49.901  32.222  0.00  0.00    +0.000 OA
ATOM     29  H   UNL     1     -46.327 -49.750  33.194  0.00  0.00    +0.000 HD
ENDBRANCH  21  28
BRANCH   8  30
ATOM     30  C   UNL     1     -41.598 -49.504  27.277  0.00  0.00    +0.000 C 
ATOM     31  C   UNL     1     -40.464 -48.596  27.777  0.00  0.00    +0.000 C 
BRANCH  31  32
ATOM     32  C   UNL     1     -39.476 -47.834  28.151  0.00  0.00    +0.000 C 
ATOM     33  C   UNL     1     -38.818 -47.049  27.032  0.00  0.00    +0.000 C 
BRANCH  32  35
ATOM     34  O   UNL     1     -39.146 -48.684  30.387  0.00  0.00    +0.000 OA
ATOM     35  C   UNL     1     -39.081 -47.765  29.584  0.00  0.00    +0.000 C 
BRANCH  35  36
ATOM     36  O   UNL     1     -38.617 -46.559  29.975  0.00  0.00    +0.000 OA
ATOM     37  H   UNL     1     -38.604 -46.594  30.955  0.00  0.00    +0.000 HD
ENDBRANCH  35  36
ENDBRANCH  32  35
ENDBRANCH  31  32
ENDBRANCH   8  30
BRANCH  20  38
ATOM     38  C   UNL     1     -41.948 -53.098  30.817  0.00  0.00    +0.000 C 
ATOM     39  C   UNL     1     -40.723 -53.948  30.450  0.00  0.00    +0.000 C 
BRANCH  39  40
ATOM     40  C   UNL     1     -39.676 -54.650  30.147  0.00  0.00    +0.000 C 
ATOM     41  C   UNL     1     -39.335 -54.876  28.705  0.00  0.00    +0.000 C 
ATOM     42  C   UNL     1     -38.692 -55.016  31.215  0.00  0.00    +0.000 C 
ENDBRANCH  39  40
ENDBRANCH  20  38
BRANCH  25  43
ATOM     43  C   UNL     1     -43.883 -54.719  35.017  0.00  0.00    +0.000 C 
BRANCH  43  44
ATOM     44  C   UNL     1     -44.250 -56.183  35.289  0.00  0.00    +0.000 C 
ATOM     45  C   UNL     1     -44.619 -57.649  35.562  0.00  0.00    +0.000 C 
BRANCH  45  46
ATOM     46  C   UNL     1     -44.931 -58.884  35.800  0.00  0.00    +0.000 C 
ATOM     47  C   UNL     1     -46.300 -59.382  35.448  0.00  0.00    +0.000 C 
ATOM     48  C   UNL     1     -43.998 -59.756  36.581  0.00  0.00    +0.000 C 
ENDBRANCH  45  46
ENDBRANCH  43  44
ENDBRANCH  25  43
TORSDOF 10
ENDMDL
