MODEL 1
REMARK VINA RESULT:      -8.3      0.000      0.000
REMARK  Name = AFLATOXIN.pdbqt.pdb
REMARK  1 active torsions:
REMARK  status: ('A' for Active; 'I' for Inactive)
REMARK    1  A    between atoms: C_15  and  O_23
REMARK                            x       y       z     vdW  Elec       q    Type
REMARK                         _______ _______ _______ _____ _____    ______ ____
ROOT
ATOM      1  O   UNL     1     -57.889 -63.238  41.221  0.00  0.00    +0.000 OA
ATOM      2  O   UNL     1     -57.998 -61.171  42.571  0.00  0.00    +0.000 OA
ATOM      3  O   UNL     1     -62.587 -63.200  40.899  0.00  0.00    +0.000 OA
ATOM      4  O   UNL     1     -65.492 -67.178  40.124  0.00  0.00    +0.000 OA
ATOM      5  O   UNL     1     -64.809 -62.974  40.601  0.00  0.00    +0.000 OA
ATOM      6  O   UNL     1     -66.365 -65.128  40.424  0.00  0.00    +0.000 OA
ATOM      7  C   UNL     1     -59.832 -61.944  41.334  0.00  0.00    +0.000 C 
ATOM      8  C   UNL     1     -60.209 -63.305  41.012  0.00  0.00    +0.000 A 
ATOM      9  C   UNL     1     -58.353 -61.938  41.446  0.00  0.00    +0.000 C 
ATOM     10  C   UNL     1     -59.003 -64.009  40.929  0.00  0.00    +0.000 A 
ATOM     11  C   UNL     1     -61.414 -63.954  40.818  0.00  0.00    +0.000 A 
ATOM     12  C   UNL     1     -61.448 -65.318  40.531  0.00  0.00    +0.000 A 
ATOM     13  C   UNL     1     -60.306 -61.116  42.385  0.00  0.00    +0.000 C 
ATOM     14  C   UNL     1     -62.782 -65.928  40.393  0.00  0.00    +0.000 A 
ATOM     15  C   UNL     1     -60.203 -65.999  40.411  0.00  0.00    +0.000 A 
ATOM     16  C   UNL     1     -58.973 -65.354  40.640  0.00  0.00    +0.000 A 
ATOM     17  C   UNL     1     -62.950 -67.319  40.213  0.00  0.00    +0.000 A 
ATOM     18  C   UNL     1     -63.936 -65.200  40.450  0.00  0.00    +0.000 A 
ATOM     19  C   UNL     1     -59.251 -60.824  42.865  0.00  0.00    +0.000 C 
ATOM     20  C   UNL     1     -64.339 -67.804  40.086  0.00  0.00    +0.000 A 
ATOM     21  C   UNL     1     -63.847 -63.728  40.645  0.00  0.00    +0.000 A 
ATOM     22  C   UNL     1     -65.353 -65.811  40.329  0.00  0.00    +0.000 A 
ENDROOT
BRANCH  15  23
ATOM     23  O   UNL     1     -60.160 -67.352  40.149  0.00  0.00    +0.000 OA
ATOM     24  C   UNL     1     -59.177 -67.980  40.932  0.00  0.00    +0.000 C 
ENDBRANCH  15  23
TORSDOF 1
ENDMDL
MODEL 2
REMARK VINA RESULT:      -7.7      1.738      4.086
REMARK  Name = AFLATOXIN.pdbqt.pdb
REMARK  1 active torsions:
REMARK  status: ('A' for Active; 'I' for Inactive)
REMARK    1  A    between atoms: C_15  and  O_23
REMARK                            x       y       z     vdW  Elec       q    Type
REMARK                         _______ _______ _______ _____ _____    ______ ____
ROOT
ATOM      1  O   UNL     1     -60.698 -61.521  40.640  0.00  0.00    +0.000 OA
ATOM      2  O   UNL     1     -58.335 -60.813  40.794  0.00  0.00    +0.000 OA
ATOM      3  O   UNL     1     -59.321 -66.000  41.106  0.00  0.00    +0.000 OA
ATOM      4  O   UNL     1     -61.805 -70.003  39.469  0.00  0.00    +0.000 OA
ATOM      5  O   UNL     1     -58.597 -68.084  41.566  0.00  0.00    +0.000 OA
ATOM      6  O   UNL     1     -59.808 -70.195  40.485  0.00  0.00    +0.000 OA
ATOM      7  C   UNL     1     -59.027 -62.970  41.397  0.00  0.00    +0.000 C 
ATOM      8  C   UNL     1     -60.112 -63.766  40.859  0.00  0.00    +0.000 A 
ATOM      9  C   UNL     1     -59.441 -61.552  41.253  0.00  0.00    +0.000 C 
ATOM     10  C   UNL     1     -61.081 -62.841  40.459  0.00  0.00    +0.000 A 
ATOM     11  C   UNL     1     -60.316 -65.121  40.675  0.00  0.00    +0.000 A 
ATOM     12  C   UNL     1     -61.494 -65.587  40.093  0.00  0.00    +0.000 A 
ATOM     13  C   UNL     1     -57.648 -63.008  41.067  0.00  0.00    +0.000 C 
ATOM     14  C   UNL     1     -61.596 -67.043  39.893  0.00  0.00    +0.000 A 
ATOM     15  C   UNL     1     -62.482 -64.625  39.735  0.00  0.00    +0.000 A 
ATOM     16  C   UNL     1     -62.267 -63.242  39.887  0.00  0.00    +0.000 A 
ATOM     17  C   UNL     1     -62.690 -67.627  39.214  0.00  0.00    +0.000 A 
ATOM     18  C   UNL     1     -60.640 -67.917  40.326  0.00  0.00    +0.000 A 
ATOM     19  C   UNL     1     -57.497 -61.850  40.814  0.00  0.00    +0.000 C 
ATOM     20  C   UNL     1     -62.673 -69.098  39.082  0.00  0.00    +0.000 A 
ATOM     21  C   UNL     1     -59.452 -67.382  41.043  0.00  0.00    +0.000 A 
ATOM     22  C   UNL     1     -60.706 -69.449  40.114  0.00  0.00    +0.000 A 
ENDROOT
BRANCH  15  23
ATOM     23  O   UNL     1     -63.662 -65.013  39.137  0.00  0.00    +0.000 OA
ATOM     24  C   UNL     1     -64.728 -64.945  40.050  0.00  0.00    +0.000 C 
ENDBRANCH  15  23
TORSDOF 1
ENDMDL
MODEL 3
REMARK VINA RESULT:      -7.0      2.719      5.713
REMARK  Name = AFLATOXIN.pdbqt.pdb
REMARK  1 active torsions:
REMARK  status: ('A' for Active; 'I' for Inactive)
REMARK    1  A    between atoms: C_15  and  O_23
REMARK                            x       y       z     vdW  Elec       q    Type
REMARK                         _______ _______ _______ _____ _____    ______ ____
ROOT
ATOM      1  O   UNL     1     -64.233 -64.606  41.118  0.00  0.00    +0.000 OA
ATOM      2  O   UNL     1     -63.173 -62.859  39.728  0.00  0.00    +0.000 OA
ATOM      3  O   UNL     1     -60.212 -67.053  41.002  0.00  0.00    +0.000 OA
ATOM      4  O   UNL     1     -59.781 -71.988  41.573  0.00  0.00    +0.000 OA
ATOM      5  O   UNL     1     -58.188 -68.039  41.087  0.00  0.00    +0.000 OA
ATOM      6  O   UNL     1     -57.990 -70.694  41.157  0.00  0.00    +0.000 OA
ATOM      7  C   UNL     1     -61.919 -64.523  40.803  0.00  0.00    +0.000 C 
ATOM      8  C   UNL     1     -62.288 -65.890  41.112  0.00  0.00    +0.000 A 
ATOM      9  C   UNL     1     -63.177 -63.736  40.829  0.00  0.00    +0.000 C 
ATOM     10  C   UNL     1     -63.671 -65.856  41.319  0.00  0.00    +0.000 A 
ATOM     11  C   UNL     1     -61.594 -67.081  41.204  0.00  0.00    +0.000 A 
ATOM     12  C   UNL     1     -62.258 -68.267  41.511  0.00  0.00    +0.000 A 
ATOM     13  C   UNL     1     -61.175 -64.032  39.698  0.00  0.00    +0.000 C 
ATOM     14  C   UNL     1     -61.438 -69.492  41.535  0.00  0.00    +0.000 A 
ATOM     15  C   UNL     1     -63.659 -68.197  41.758  0.00  0.00    +0.000 A 
ATOM     16  C   UNL     1     -64.380 -66.994  41.633  0.00  0.00    +0.000 A 
ATOM     17  C   UNL     1     -62.013 -70.769  41.723  0.00  0.00    +0.000 A 
ATOM     18  C   UNL     1     -60.085 -69.478  41.358  0.00  0.00    +0.000 A 
ATOM     19  C   UNL     1     -61.956 -63.213  39.313  0.00  0.00    +0.000 C 
ATOM     20  C   UNL     1     -61.082 -71.915  41.728  0.00  0.00    +0.000 A 
ATOM     21  C   UNL     1     -59.402 -68.173  41.146  0.00  0.00    +0.000 A 
ATOM     22  C   UNL     1     -59.197 -70.746  41.358  0.00  0.00    +0.000 A 
ENDROOT
BRANCH  15  23
ATOM     23  O   UNL     1     -64.384 -69.333  42.047  0.00  0.00    +0.000 OA
ATOM     24  C   UNL     1     -65.094 -69.178  43.250  0.00  0.00    +0.000 C 
ENDBRANCH  15  23
TORSDOF 1
ENDMDL
MODEL 4
REMARK VINA RESULT:      -7.0     14.090     16.694
REMARK  Name = AFLATOXIN.pdbqt.pdb
REMARK  1 active torsions:
REMARK  status: ('A' for Active; 'I' for Inactive)
REMARK    1  A    between atoms: C_15  and  O_23
REMARK                            x       y       z     vdW  Elec       q    Type
REMARK                         _______ _______ _______ _____ _____    ______ ____
ROOT
ATOM      1  O   UNL     1     -43.980 -65.550  38.718  0.00  0.00    +0.000 OA
ATOM      2  O   UNL     1     -42.984 -67.489  39.882  0.00  0.00    +0.000 OA
ATOM      3  O   UNL     1     -44.916 -63.597  42.900  0.00  0.00    +0.000 OA
ATOM      4  O   UNL     1     -48.509 -60.267  43.828  0.00  0.00    +0.000 OA
ATOM      5  O   UNL     1     -45.113 -62.638  44.928  0.00  0.00    +0.000 OA
ATOM      6  O   UNL     1     -47.177 -61.044  45.465  0.00  0.00    +0.000 OA
ATOM      7  C   UNL     1     -43.436 -65.472  40.989  0.00  0.00    +0.000 C 
ATOM      8  C   UNL     1     -44.488 -64.508  40.740  0.00  0.00    +0.000 A 
ATOM      9  C   UNL     1     -43.131 -66.103  39.681  0.00  0.00    +0.000 C 
ATOM     10  C   UNL     1     -44.737 -64.586  39.365  0.00  0.00    +0.000 A 
ATOM     11  C   UNL     1     -45.216 -63.644  41.536  0.00  0.00    +0.000 A 
ATOM     12  C   UNL     1     -46.205 -62.833  40.983  0.00  0.00    +0.000 A 
ATOM     13  C   UNL     1     -43.400 -66.521  41.945  0.00  0.00    +0.000 C 
ATOM     14  C   UNL     1     -46.960 -61.985  41.922  0.00  0.00    +0.000 A 
ATOM     15  C   UNL     1     -46.408 -62.902  39.576  0.00  0.00    +0.000 A 
ATOM     16  C   UNL     1     -45.695 -63.803  38.762  0.00  0.00    +0.000 A 
ATOM     17  C   UNL     1     -48.059 -61.203  41.501  0.00  0.00    +0.000 A 
ATOM     18  C   UNL     1     -46.665 -61.914  43.254  0.00  0.00    +0.000 A 
ATOM     19  C   UNL     1     -43.149 -67.424  41.203  0.00  0.00    +0.000 C 
ATOM     20  C   UNL     1     -48.730 -60.396  42.541  0.00  0.00    +0.000 A 
ATOM     21  C   UNL     1     -45.526 -62.713  43.780  0.00  0.00    +0.000 A 
ATOM     22  C   UNL     1     -47.450 -61.050  44.271  0.00  0.00    +0.000 A 
ENDROOT
BRANCH  15  23
ATOM     23  O   UNL     1     -47.382 -62.144  38.963  0.00  0.00    +0.000 OA
ATOM     24  C   UNL     1     -47.278 -62.234  37.565  0.00  0.00    +0.000 C 
ENDBRANCH  15  23
TORSDOF 1
ENDMDL
MODEL 5
REMARK VINA RESULT:      -6.9     23.963     26.625
REMARK  Name = AFLATOXIN.pdbqt.pdb
REMARK  1 active torsions:
REMARK  status: ('A' for Active; 'I' for Inactive)
REMARK    1  A    between atoms: C_15  and  O_23
REMARK                            x       y       z     vdW  Elec       q    Type
REMARK                         _______ _______ _______ _____ _____    ______ ____
ROOT
ATOM      1  O   UNL     1     -63.353 -41.154  57.854  0.00  0.00    +0.000 OA
ATOM      2  O   UNL     1     -63.836 -43.059  59.352  0.00  0.00    +0.000 OA
ATOM      3  O   UNL     1     -65.916 -43.227  54.491  0.00  0.00    +0.000 OA
ATOM      4  O   UNL     1     -65.414 -42.514  49.581  0.00  0.00    +0.000 OA
ATOM      5  O   UNL     1     -67.345 -44.174  53.029  0.00  0.00    +0.000 OA
ATOM      6  O   UNL     1     -66.916 -43.969  50.409  0.00  0.00    +0.000 OA
ATOM      7  C   UNL     1     -65.041 -42.697  57.374  0.00  0.00    +0.000 C 
ATOM      8  C   UNL     1     -64.597 -42.105  56.128  0.00  0.00    +0.000 A 
ATOM      9  C   UNL     1     -64.239 -42.059  58.447  0.00  0.00    +0.000 C 
ATOM     10  C   UNL     1     -63.618 -41.176  56.494  0.00  0.00    +0.000 A 
ATOM     11  C   UNL     1     -64.921 -42.296  54.798  0.00  0.00    +0.000 A 
ATOM     12  C   UNL     1     -64.282 -41.562  53.800  0.00  0.00    +0.000 A 
ATOM     13  C   UNL     1     -65.135 -44.069  57.722  0.00  0.00    +0.000 C 
ATOM     14  C   UNL     1     -64.661 -41.874  52.411  0.00  0.00    +0.000 A 
ATOM     15  C   UNL     1     -63.320 -40.593  54.204  0.00  0.00    +0.000 A 
ATOM     16  C   UNL     1     -62.959 -40.416  55.553  0.00  0.00    +0.000 A 
ATOM     17  C   UNL     1     -64.006 -41.279  51.309  0.00  0.00    +0.000 A 
ATOM     18  C   UNL     1     -65.644 -42.767  52.096  0.00  0.00    +0.000 A 
ATOM     19  C   UNL     1     -64.492 -44.038  58.728  0.00  0.00    +0.000 C 
ATOM     20  C   UNL     1     -64.481 -41.677  49.968  0.00  0.00    +0.000 A 
ATOM     21  C   UNL     1     -66.378 -43.445  53.199  0.00  0.00    +0.000 A 
ATOM     22  C   UNL     1     -66.053 -43.133  50.649  0.00  0.00    +0.000 A 
ENDROOT
BRANCH  15  23
ATOM     23  O   UNL     1     -62.635 -39.845  53.271  0.00  0.00    +0.000 OA
ATOM     24  C   UNL     1     -62.850 -38.472  53.478  0.00  0.00    +0.000 C 
ENDBRANCH  15  23
TORSDOF 1
ENDMDL
MODEL 6
REMARK VINA RESULT:      -6.8      2.171      6.663
REMARK  Name = AFLATOXIN.pdbqt.pdb
REMARK  1 active torsions:
REMARK  status: ('A' for Active; 'I' for Inactive)
REMARK    1  A    between atoms: C_15  and  O_23
REMARK                            x       y       z     vdW  Elec       q    Type
REMARK                         _______ _______ _______ _____ _____    ______ ____
ROOT
ATOM      1  O   UNL     1     -64.629 -70.782  41.745  0.00  0.00    +0.000 OA
ATOM      2  O   UNL     1     -66.772 -70.991  40.533  0.00  0.00    +0.000 OA
ATOM      3  O   UNL     1     -64.505 -66.213  40.614  0.00  0.00    +0.000 OA
ATOM      4  O   UNL     1     -60.400 -63.404  40.261  0.00  0.00    +0.000 OA
ATOM      5  O   UNL     1     -64.644 -63.998  40.226  0.00  0.00    +0.000 OA
ATOM      6  O   UNL     1     -62.438 -62.566  39.810  0.00  0.00    +0.000 OA
ATOM      7  C   UNL     1     -65.868 -68.906  41.107  0.00  0.00    +0.000 C 
ATOM      8  C   UNL     1     -64.478 -68.514  41.230  0.00  0.00    +0.000 A 
ATOM      9  C   UNL     1     -65.926 -70.347  41.455  0.00  0.00    +0.000 C 
ATOM     10  C   UNL     1     -63.808 -69.670  41.643  0.00  0.00    +0.000 A 
ATOM     11  C   UNL     1     -63.783 -67.340  41.012  0.00  0.00    +0.000 A 
ATOM     12  C   UNL     1     -62.404 -67.286  41.207  0.00  0.00    +0.000 A 
ATOM     13  C   UNL     1     -66.745 -68.735  40.005  0.00  0.00    +0.000 C 
ATOM     14  C   UNL     1     -61.746 -66.004  40.899  0.00  0.00    +0.000 A 
ATOM     15  C   UNL     1     -61.754 -68.466  41.668  0.00  0.00    +0.000 A 
ATOM     16  C   UNL     1     -62.449 -69.675  41.860  0.00  0.00    +0.000 A 
ATOM     17  C   UNL     1     -60.342 -65.856  40.948  0.00  0.00    +0.000 A 
ATOM     18  C   UNL     1     -62.441 -64.889  40.527  0.00  0.00    +0.000 A 
ATOM     19  C   UNL     1     -67.098 -69.871  39.886  0.00  0.00    +0.000 C 
ATOM     20  C   UNL     1     -59.808 -64.519  40.619  0.00  0.00    +0.000 A 
ATOM     21  C   UNL     1     -63.924 -64.962  40.442  0.00  0.00    +0.000 A 
ATOM     22  C   UNL     1     -61.780 -63.533  40.177  0.00  0.00    +0.000 A 
ENDROOT
BRANCH  15  23
ATOM     23  O   UNL     1     -60.390 -68.492  41.863  0.00  0.00    +0.000 OA
ATOM     24  C   UNL     1     -59.857 -69.739  41.493  0.00  0.00    +0.000 C 
ENDBRANCH  15  23
TORSDOF 1
ENDMDL
MODEL 7
REMARK VINA RESULT:      -6.7     18.169     20.296
REMARK  Name = AFLATOXIN.pdbqt.pdb
REMARK  1 active torsions:
REMARK  status: ('A' for Active; 'I' for Inactive)
REMARK    1  A    between atoms: C_15  and  O_23
REMARK                            x       y       z     vdW  Elec       q    Type
REMARK                         _______ _______ _______ _____ _____    ______ ____
ROOT
ATOM      1  O   UNL     1     -45.644 -60.568  27.315  0.00  0.00    +0.000 OA
ATOM      2  O   UNL     1     -45.826 -59.438  29.505  0.00  0.00    +0.000 OA
ATOM      3  O   UNL     1     -47.195 -64.543  29.306  0.00  0.00    +0.000 OA
ATOM      4  O   UNL     1     -46.288 -69.169  27.679  0.00  0.00    +0.000 OA
ATOM      5  O   UNL     1     -48.159 -66.328  30.286  0.00  0.00    +0.000 OA
ATOM      6  O   UNL     1     -47.478 -68.795  29.551  0.00  0.00    +0.000 OA
ATOM      7  C   UNL     1     -46.833 -61.514  29.091  0.00  0.00    +0.000 C 
ATOM      8  C   UNL     1     -46.399 -62.581  28.213  0.00  0.00    +0.000 A 
ATOM      9  C   UNL     1     -46.348 -60.251  28.481  0.00  0.00    +0.000 C 
ATOM     10  C   UNL     1     -45.728 -61.943  27.164  0.00  0.00    +0.000 A 
ATOM     11  C   UNL     1     -46.502 -63.959  28.243  0.00  0.00    +0.000 A 
ATOM     12  C   UNL     1     -45.946 -64.735  27.227  0.00  0.00    +0.000 A 
ATOM     13  C   UNL     1     -46.631 -61.375  30.488  0.00  0.00    +0.000 C 
ATOM     14  C   UNL     1     -46.064 -66.196  27.376  0.00  0.00    +0.000 A 
ATOM     15  C   UNL     1     -45.306 -64.056  26.151  0.00  0.00    +0.000 A 
ATOM     16  C   UNL     1     -45.166 -62.655  26.129  0.00  0.00    +0.000 A 
ATOM     17  C   UNL     1     -45.445 -67.089  26.472  0.00  0.00    +0.000 A 
ATOM     18  C   UNL     1     -46.754 -66.780  28.399  0.00  0.00    +0.000 A 
ATOM     19  C   UNL     1     -46.142 -60.284  30.486  0.00  0.00    +0.000 C 
ATOM     20  C   UNL     1     -45.642 -68.530  26.733  0.00  0.00    +0.000 A 
ATOM     21  C   UNL     1     -47.428 -65.910  29.399  0.00  0.00    +0.000 A 
ATOM     22  C   UNL     1     -46.881 -68.310  28.596  0.00  0.00    +0.000 A 
ENDROOT
BRANCH  15  23
ATOM     23  O   UNL     1     -44.716 -64.758  25.123  0.00  0.00    +0.000 OA
ATOM     24  C   UNL     1     -44.930 -64.114  23.892  0.00  0.00    +0.000 C 
ENDBRANCH  15  23
TORSDOF 1
ENDMDL
MODEL 8
REMARK VINA RESULT:      -6.7     34.856     38.218
REMARK  Name = AFLATOXIN.pdbqt.pdb
REMARK  1 active torsions:
REMARK  status: ('A' for Active; 'I' for Inactive)
REMARK    1  A    between atoms: C_15  and  O_23
REMARK                            x       y       z     vdW  Elec       q    Type
REMARK                         _______ _______ _______ _____ _____    ______ ____
ROOT
ATOM      1  O   UNL     1     -44.541 -42.673  69.843  0.00  0.00    +0.000 OA
ATOM      2  O   UNL     1     -42.238 -42.568  70.733  0.00  0.00    +0.000 OA
ATOM      3  O   UNL     1     -44.986 -46.990  71.672  0.00  0.00    +0.000 OA
ATOM      4  O   UNL     1     -48.086 -50.542  70.048  0.00  0.00    +0.000 OA
ATOM      5  O   UNL     1     -45.190 -48.944  72.774  0.00  0.00    +0.000 OA
ATOM      6  O   UNL     1     -46.672 -50.909  71.759  0.00  0.00    +0.000 OA
ATOM      7  C   UNL     1     -43.773 -44.191  71.445  0.00  0.00    +0.000 C 
ATOM      8  C   UNL     1     -44.852 -44.815  70.707  0.00  0.00    +0.000 A 
ATOM      9  C   UNL     1     -43.614 -42.829  70.878  0.00  0.00    +0.000 C 
ATOM     10  C   UNL     1     -45.281 -43.844  69.796  0.00  0.00    +0.000 A 
ATOM     11  C   UNL     1     -45.444 -46.064  70.732  0.00  0.00    +0.000 A 
ATOM     12  C   UNL     1     -46.482 -46.374  69.854  0.00  0.00    +0.000 A 
ATOM     13  C   UNL     1     -42.458 -44.674  71.674  0.00  0.00    +0.000 C 
ATOM     14  C   UNL     1     -47.012 -47.747  69.924  0.00  0.00    +0.000 A 
ATOM     15  C   UNL     1     -46.926 -45.353  68.967  0.00  0.00    +0.000 A 
ATOM     16  C   UNL     1     -46.306 -44.090  68.912  0.00  0.00    +0.000 A 
ATOM     17  C   UNL     1     -47.985 -48.216  69.013  0.00  0.00    +0.000 A 
ATOM     18  C   UNL     1     -46.587 -48.657  70.849  0.00  0.00    +0.000 A 
ATOM     19  C   UNL     1     -41.852 -43.725  71.273  0.00  0.00    +0.000 C 
ATOM     20  C   UNL     1     -48.434 -49.612  69.191  0.00  0.00    +0.000 A 
ATOM     21  C   UNL     1     -45.557 -48.245  71.840  0.00  0.00    +0.000 A 
ATOM     22  C   UNL     1     -47.108 -50.112  70.936  0.00  0.00    +0.000 A 
ENDROOT
BRANCH  15  23
ATOM     23  O   UNL     1     -47.933 -45.595  68.058  0.00  0.00    +0.000 OA
ATOM     24  C   UNL     1     -49.065 -44.813  68.348  0.00  0.00    +0.000 C 
ENDBRANCH  15  23
TORSDOF 1
ENDMDL
MODEL 9
REMARK VINA RESULT:      -6.6     14.714     17.718
REMARK  Name = AFLATOXIN.pdbqt.pdb
REMARK  1 active torsions:
REMARK  status: ('A' for Active; 'I' for Inactive)
REMARK    1  A    between atoms: C_15  and  O_23
REMARK                            x       y       z     vdW  Elec       q    Type
REMARK                         _______ _______ _______ _____ _____    ______ ____
ROOT
ATOM      1  O   UNL     1     -47.615 -61.704  41.427  0.00  0.00    +0.000 OA
ATOM      2  O   UNL     1     -47.352 -61.156  43.822  0.00  0.00    +0.000 OA
ATOM      3  O   UNL     1     -44.177 -64.895  41.843  0.00  0.00    +0.000 OA
ATOM      4  O   UNL     1     -41.243 -66.521  38.153  0.00  0.00    +0.000 OA
ATOM      5  O   UNL     1     -42.692 -66.554  42.186  0.00  0.00    +0.000 OA
ATOM      6  O   UNL     1     -40.979 -67.241  40.267  0.00  0.00    +0.000 OA
ATOM      7  C   UNL     1     -46.416 -63.088  42.880  0.00  0.00    +0.000 C 
ATOM      8  C   UNL     1     -45.922 -63.301  41.535  0.00  0.00    +0.000 A 
ATOM      9  C   UNL     1     -47.499 -62.079  42.769  0.00  0.00    +0.000 C 
ATOM     10  C   UNL     1     -46.702 -62.472  40.722  0.00  0.00    +0.000 A 
ATOM     11  C   UNL     1     -44.916 -64.075  40.987  0.00  0.00    +0.000 A 
ATOM     12  C   UNL     1     -44.666 -64.046  39.615  0.00  0.00    +0.000 A 
ATOM     13  C   UNL     1     -45.689 -62.752  44.051  0.00  0.00    +0.000 C 
ATOM     14  C   UNL     1     -43.540 -64.866  39.136  0.00  0.00    +0.000 A 
ATOM     15  C   UNL     1     -45.503 -63.225  38.807  0.00  0.00    +0.000 A 
ATOM     16  C   UNL     1     -46.507 -62.408  39.361  0.00  0.00    +0.000 A 
ATOM     17  C   UNL     1     -43.118 -64.835  37.787  0.00  0.00    +0.000 A 
ATOM     18  C   UNL     1     -42.822 -65.687  39.957  0.00  0.00    +0.000 A 
ATOM     19  C   UNL     1     -46.315 -61.787  44.374  0.00  0.00    +0.000 C 
ATOM     20  C   UNL     1     -41.978 -65.706  37.435  0.00  0.00    +0.000 A 
ATOM     21  C   UNL     1     -43.197 -65.772  41.394  0.00  0.00    +0.000 A 
ATOM     22  C   UNL     1     -41.622 -66.546  39.489  0.00  0.00    +0.000 A 
ENDROOT
BRANCH  15  23
ATOM     23  O   UNL     1     -45.302 -63.132  37.447  0.00  0.00    +0.000 OA
ATOM     24  C   UNL     1     -45.313 -61.789  37.033  0.00  0.00    +0.000 C 
ENDBRANCH  15  23
TORSDOF 1
ENDMDL
