MODEL 1
REMARK VINA RESULT:      -7.2      0.000      0.000
REMARK  Name = AZD4547.pdbqt.pdb
REMARK  6 active torsions:
REMARK  status: ('A' for Active; 'I' for Inactive)
REMARK    1  A    between atoms: C_3  and  C_23
REMARK    2  A    between atoms: C_8  and  C_11
REMARK    3  A    between atoms: C_12  and  C_13
REMARK    4  A    between atoms: C_15  and  O_19
REMARK    5  A    between atoms: C_17  and  O_21
REMARK    6  A    between atoms: C_26  and  N_29
REMARK                            x       y       z     vdW  Elec       q    Type
REMARK                         _______ _______ _______ _____ _____    ______ ____
ROOT
ATOM      1  O   UNL     1     -59.224 -71.913  44.582  0.00  0.00    +0.000 OA
ATOM      2  N   UNL     1     -57.523 -72.242  43.045  0.00  0.00    +0.000 N 
ATOM      3  C   UNL     1     -58.286 -72.570  44.143  0.00  0.00    +0.000 C 
ATOM      4  H   UNL     1     -56.757 -72.814  42.723  0.00  0.00    +0.000 HD
ATOM      5  C   UNL     1     -57.713 -71.121  42.274  0.00  0.00    +0.000 A 
ATOM      6  N   UNL     1     -56.903 -70.911  41.231  0.00  0.00    +0.000 NA
ATOM      7  N   UNL     1     -57.353 -69.756  40.706  0.00  0.00    +0.000 N 
ATOM      8  C   UNL     1     -58.416 -69.227  41.375  0.00  0.00    +0.000 A 
ATOM      9  H   UNL     1     -56.887 -69.381  39.887  0.00  0.00    +0.000 HD
ATOM     10  C   UNL     1     -58.679 -70.093  42.407  0.00  0.00    +0.000 A 
ENDROOT
BRANCH   3  11
ATOM     11  C   UNL     1     -57.917 -73.830  44.837  0.00  0.00    +0.000 A 
ATOM     12  C   UNL     1     -58.174 -73.937  46.203  0.00  0.00    +0.000 A 
ATOM     13  C   UNL     1     -57.842 -75.104  46.887  0.00  0.00    +0.000 A 
ATOM     14  C   UNL     1     -57.233 -76.182  46.230  0.00  0.00    +0.000 A 
ATOM     15  C   UNL     1     -56.999 -76.063  44.853  0.00  0.00    +0.000 A 
ATOM     16  C   UNL     1     -57.330 -74.897  44.162  0.00  0.00    +0.000 A 
BRANCH  14  17
ATOM     17  N   UNL     1     -56.936 -77.382  46.917  0.00  0.00    +0.000 N 
ATOM     18  C   UNL     1     -57.556 -78.632  46.443  0.00  0.00    +0.000 C 
ATOM     19  C   UNL     1     -58.302 -79.689  47.044  0.00  0.00    +0.000 C 
ATOM     20  N   UNL     1     -58.551 -79.578  48.446  0.00  0.00    +0.000 N 
ATOM     21  C   UNL     1     -58.835 -80.840  46.268  0.00  0.00    +0.000 C 
ATOM     22  C   UNL     1     -58.040 -78.432  49.126  0.00  0.00    +0.000 C 
ATOM     23  H   UNL     1     -59.092 -80.276  48.933  0.00  0.00    +0.000 HD
ATOM     24  C   UNL     1     -57.318 -77.490  48.336  0.00  0.00    +0.000 C 
ATOM     25  C   UNL     1     -58.300 -78.230  50.575  0.00  0.00    +0.000 C 
ENDBRANCH  14  17
ENDBRANCH   3  11
BRANCH   8  26
ATOM     26  C   UNL     1     -59.082 -68.026  41.034  0.00  0.00    +0.000 C 
ATOM     27  C   UNL     1     -59.806 -66.727  40.663  0.00  0.00    +0.000 C 
BRANCH  27  28
ATOM     28  C   UNL     1     -60.487 -65.525  40.315  0.00  0.00    +0.000 A 
ATOM     29  C   UNL     1     -60.090 -64.315  40.878  0.00  0.00    +0.000 A 
ATOM     30  C   UNL     1     -60.750 -63.132  40.537  0.00  0.00    +0.000 A 
ATOM     31  C   UNL     1     -61.806 -63.177  39.623  0.00  0.00    +0.000 A 
ATOM     32  C   UNL     1     -62.210 -64.388  39.060  0.00  0.00    +0.000 A 
ATOM     33  C   UNL     1     -61.543 -65.563  39.410  0.00  0.00    +0.000 A 
BRANCH  30  34
ATOM     34  O   UNL     1     -60.438 -61.887  41.024  0.00  0.00    +0.000 OA
ATOM     35  C   UNL     1     -60.062 -61.846  42.372  0.00  0.00    +0.000 C 
ENDBRANCH  30  34
BRANCH  32  36
ATOM     36  O   UNL     1     -63.258 -64.311  38.176  0.00  0.00    +0.000 OA
ATOM     37  C   UNL     1     -63.551 -65.495  37.485  0.00  0.00    +0.000 C 
ENDBRANCH  32  36
ENDBRANCH  27  28
ENDBRANCH   8  26
TORSDOF 6
ENDMDL
MODEL 2
REMARK VINA RESULT:      -7.2      0.314      2.217
REMARK  Name = AZD4547.pdbqt.pdb
REMARK  6 active torsions:
REMARK  status: ('A' for Active; 'I' for Inactive)
REMARK    1  A    between atoms: C_3  and  C_23
REMARK    2  A    between atoms: C_8  and  C_11
REMARK    3  A    between atoms: C_12  and  C_13
REMARK    4  A    between atoms: C_15  and  O_19
REMARK    5  A    between atoms: C_17  and  O_21
REMARK    6  A    between atoms: C_26  and  N_29
REMARK                            x       y       z     vdW  Elec       q    Type
REMARK                         _______ _______ _______ _____ _____    ______ ____
ROOT
ATOM      1  O   UNL     1     -59.230 -71.922  44.583  0.00  0.00    +0.000 OA
ATOM      2  N   UNL     1     -57.554 -72.285  43.027  0.00  0.00    +0.000 N 
ATOM      3  C   UNL     1     -58.314 -72.600  44.131  0.00  0.00    +0.000 C 
ATOM      4  H   UNL     1     -56.806 -72.874  42.693  0.00  0.00    +0.000 HD
ATOM      5  C   UNL     1     -57.723 -71.153  42.265  0.00  0.00    +0.000 A 
ATOM      6  N   UNL     1     -56.918 -70.957  41.215  0.00  0.00    +0.000 NA
ATOM      7  N   UNL     1     -57.343 -69.788  40.702  0.00  0.00    +0.000 N 
ATOM      8  C   UNL     1     -58.386 -69.236  41.385  0.00  0.00    +0.000 A 
ATOM      9  H   UNL     1     -56.876 -69.420  39.880  0.00  0.00    +0.000 HD
ATOM     10  C   UNL     1     -58.660 -70.102  42.414  0.00  0.00    +0.000 A 
ENDROOT
BRANCH   3  11
ATOM     11  C   UNL     1     -57.971 -73.873  44.812  0.00  0.00    +0.000 A 
ATOM     12  C   UNL     1     -58.411 -74.068  46.120  0.00  0.00    +0.000 A 
ATOM     13  C   UNL     1     -58.108 -75.250  46.792  0.00  0.00    +0.000 A 
ATOM     14  C   UNL     1     -57.348 -76.256  46.181  0.00  0.00    +0.000 A 
ATOM     15  C   UNL     1     -56.929 -76.051  44.859  0.00  0.00    +0.000 A 
ATOM     16  C   UNL     1     -57.230 -74.870  44.182  0.00  0.00    +0.000 A 
BRANCH  14  17
ATOM     17  N   UNL     1     -57.079 -77.474  46.849  0.00  0.00    +0.000 N 
ATOM     18  C   UNL     1     -57.830 -78.676  46.445  0.00  0.00    +0.000 C 
ATOM     19  C   UNL     1     -58.594 -79.673  47.120  0.00  0.00    +0.000 C 
ATOM     20  N   UNL     1     -58.704 -79.542  48.538  0.00  0.00    +0.000 N 
ATOM     21  C   UNL     1     -59.279 -80.783  46.406  0.00  0.00    +0.000 C 
ATOM     22  C   UNL     1     -58.050 -78.435  49.158  0.00  0.00    +0.000 C 
ATOM     23  H   UNL     1     -59.247 -80.196  49.079  0.00  0.00    +0.000 HD
ATOM     24  C   UNL     1     -57.335 -77.551  48.297  0.00  0.00    +0.000 C 
ATOM     25  C   UNL     1     -58.160 -78.212  50.624  0.00  0.00    +0.000 C 
ENDBRANCH  14  17
ENDBRANCH   3  11
BRANCH   8  26
ATOM     26  C   UNL     1     -59.024 -68.016  41.058  0.00  0.00    +0.000 C 
ATOM     27  C   UNL     1     -59.717 -66.695  40.709  0.00  0.00    +0.000 C 
BRANCH  27  28
ATOM     28  C   UNL     1     -60.366 -65.467  40.391  0.00  0.00    +0.000 A 
ATOM     29  C   UNL     1     -61.436 -65.458  39.500  0.00  0.00    +0.000 A 
ATOM     30  C   UNL     1     -62.080 -64.259  39.189  0.00  0.00    +0.000 A 
ATOM     31  C   UNL     1     -61.643 -63.073  39.783  0.00  0.00    +0.000 A 
ATOM     32  C   UNL     1     -60.567 -63.076  40.673  0.00  0.00    +0.000 A 
ATOM     33  C   UNL     1     -59.932 -64.282  40.976  0.00  0.00    +0.000 A 
BRANCH  30  34
ATOM     34  O   UNL     1     -63.147 -64.136  38.333  0.00  0.00    +0.000 OA
ATOM     35  C   UNL     1     -63.577 -65.326  37.735  0.00  0.00    +0.000 C 
ENDBRANCH  30  34
BRANCH  32  36
ATOM     36  O   UNL     1     -60.226 -61.853  41.195  0.00  0.00    +0.000 OA
ATOM     37  C   UNL     1     -58.876 -61.702  41.540  0.00  0.00    +0.000 C 
ENDBRANCH  32  36
ENDBRANCH  27  28
ENDBRANCH   8  26
TORSDOF 6
ENDMDL
MODEL 3
REMARK VINA RESULT:      -6.8     18.053     23.355
REMARK  Name = AZD4547.pdbqt.pdb
REMARK  6 active torsions:
REMARK  status: ('A' for Active; 'I' for Inactive)
REMARK    1  A    between atoms: C_3  and  C_23
REMARK    2  A    between atoms: C_8  and  C_11
REMARK    3  A    between atoms: C_12  and  C_13
REMARK    4  A    between atoms: C_15  and  O_19
REMARK    5  A    between atoms: C_17  and  O_21
REMARK    6  A    between atoms: C_26  and  N_29
REMARK                            x       y       z     vdW  Elec       q    Type
REMARK                         _______ _______ _______ _____ _____    ______ ____
ROOT
ATOM      1  O   UNL     1     -59.180 -71.683  21.488  0.00  0.00    +0.000 OA
ATOM      2  N   UNL     1     -58.147 -70.386  23.103  0.00  0.00    +0.000 N 
ATOM      3  C   UNL     1     -58.210 -71.061  21.905  0.00  0.00    +0.000 C 
ATOM      4  H   UNL     1     -57.323 -69.889  23.407  0.00  0.00    +0.000 HD
ATOM      5  C   UNL     1     -59.179 -70.310  24.008  0.00  0.00    +0.000 A 
ATOM      6  N   UNL     1     -58.994 -69.624  25.140  0.00  0.00    +0.000 NA
ATOM      7  N   UNL     1     -60.171 -69.747  25.783  0.00  0.00    +0.000 N 
ATOM      8  C   UNL     1     -61.093 -70.483  25.101  0.00  0.00    +0.000 A 
ATOM      9  H   UNL     1     -60.278 -69.301  26.688  0.00  0.00    +0.000 HD
ATOM     10  C   UNL     1     -60.479 -70.868  23.935  0.00  0.00    +0.000 A 
ENDROOT
BRANCH   3  11
ATOM     11  C   UNL     1     -56.984 -71.016  21.070  0.00  0.00    +0.000 A 
ATOM     12  C   UNL     1     -57.069 -70.467  19.791  0.00  0.00    +0.000 A 
ATOM     13  C   UNL     1     -55.938 -70.409  18.979  0.00  0.00    +0.000 A 
ATOM     14  C   UNL     1     -54.705 -70.909  19.415  0.00  0.00    +0.000 A 
ATOM     15  C   UNL     1     -54.634 -71.440  20.711  0.00  0.00    +0.000 A 
ATOM     16  C   UNL     1     -55.761 -71.501  21.529  0.00  0.00    +0.000 A 
BRANCH  14  17
ATOM     17  N   UNL     1     -53.549 -70.808  18.606  0.00  0.00    +0.000 N 
ATOM     18  C   UNL     1     -53.445 -69.677  17.668  0.00  0.00    +0.000 C 
ATOM     19  C   UNL     1     -53.169 -69.531  16.277  0.00  0.00    +0.000 C 
ATOM     20  N   UNL     1     -52.922 -70.733  15.546  0.00  0.00    +0.000 N 
ATOM     21  C   UNL     1     -53.165 -68.212  15.591  0.00  0.00    +0.000 C 
ATOM     22  C   UNL     1     -52.973 -71.969  16.257  0.00  0.00    +0.000 C 
ATOM     23  H   UNL     1     -52.742 -70.709  14.554  0.00  0.00    +0.000 HD
ATOM     24  C   UNL     1     -53.267 -71.893  17.650  0.00  0.00    +0.000 C 
ATOM     25  C   UNL     1     -52.770 -73.261  15.550  0.00  0.00    +0.000 C 
ENDBRANCH  14  17
ENDBRANCH   3  11
BRANCH   8  26
ATOM     26  C   UNL     1     -62.407 -70.764  25.546  0.00  0.00    +0.000 C 
ATOM     27  C   UNL     1     -63.831 -71.065  26.026  0.00  0.00    +0.000 C 
BRANCH  27  28
ATOM     28  C   UNL     1     -65.158 -71.337  26.467  0.00  0.00    +0.000 A 
ATOM     29  C   UNL     1     -65.511 -71.098  27.792  0.00  0.00    +0.000 A 
ATOM     30  C   UNL     1     -66.812 -71.358  28.230  0.00  0.00    +0.000 A 
ATOM     31  C   UNL     1     -67.752 -71.855  27.324  0.00  0.00    +0.000 A 
ATOM     32  C   UNL     1     -67.400 -72.102  25.996  0.00  0.00    +0.000 A 
ATOM     33  C   UNL     1     -66.097 -71.838  25.571  0.00  0.00    +0.000 A 
BRANCH  30  34
ATOM     34  O   UNL     1     -67.269 -71.152  29.508  0.00  0.00    +0.000 OA
ATOM     35  C   UNL     1     -66.286 -71.142  30.504  0.00  0.00    +0.000 C 
ENDBRANCH  30  34
BRANCH  32  36
ATOM     36  O   UNL     1     -68.405 -72.590  25.197  0.00  0.00    +0.000 OA
ATOM     37  C   UNL     1     -67.987 -73.172  23.993  0.00  0.00    +0.000 C 
ENDBRANCH  32  36
ENDBRANCH  27  28
ENDBRANCH   8  26
TORSDOF 6
ENDMDL
MODEL 4
REMARK VINA RESULT:      -6.8     29.185     31.439
REMARK  Name = AZD4547.pdbqt.pdb
REMARK  6 active torsions:
REMARK  status: ('A' for Active; 'I' for Inactive)
REMARK    1  A    between atoms: C_3  and  C_23
REMARK    2  A    between atoms: C_8  and  C_11
REMARK    3  A    between atoms: C_12  and  C_13
REMARK    4  A    between atoms: C_15  and  O_19
REMARK    5  A    between atoms: C_17  and  O_21
REMARK    6  A    between atoms: C_26  and  N_29
REMARK                            x       y       z     vdW  Elec       q    Type
REMARK                         _______ _______ _______ _____ _____    ______ ____
ROOT
ATOM      1  O   UNL     1     -34.809 -66.304  60.361  0.00  0.00    +0.000 OA
ATOM      2  N   UNL     1     -32.616 -65.568  60.463  0.00  0.00    +0.000 N 
ATOM      3  C   UNL     1     -33.868 -65.818  60.979  0.00  0.00    +0.000 C 
ATOM      4  H   UNL     1     -31.872 -65.162  61.010  0.00  0.00    +0.000 HD
ATOM      5  C   UNL     1     -32.241 -65.837  59.169  0.00  0.00    +0.000 A 
ATOM      6  N   UNL     1     -30.994 -65.546  58.785  0.00  0.00    +0.000 NA
ATOM      7  N   UNL     1     -30.961 -65.926  57.494  0.00  0.00    +0.000 N 
ATOM      8  C   UNL     1     -32.137 -66.448  57.046  0.00  0.00    +0.000 A 
ATOM      9  H   UNL     1     -30.099 -65.802  56.974  0.00  0.00    +0.000 HD
ATOM     10  C   UNL     1     -32.998 -66.404  58.114  0.00  0.00    +0.000 A 
ENDROOT
BRANCH   3  11
ATOM     11  C   UNL     1     -34.067 -65.456  62.405  0.00  0.00    +0.000 A 
ATOM     12  C   UNL     1     -32.942 -65.267  63.206  0.00  0.00    +0.000 A 
ATOM     13  C   UNL     1     -33.090 -64.927  64.549  0.00  0.00    +0.000 A 
ATOM     14  C   UNL     1     -34.359 -64.783  65.125  0.00  0.00    +0.000 A 
ATOM     15  C   UNL     1     -35.478 -64.958  64.300  0.00  0.00    +0.000 A 
ATOM     16  C   UNL     1     -35.337 -65.299  62.955  0.00  0.00    +0.000 A 
BRANCH  14  17
ATOM     17  N   UNL     1     -34.507 -64.394  66.478  0.00  0.00    +0.000 N 
ATOM     18  C   UNL     1     -34.732 -65.442  67.488  0.00  0.00    +0.000 C 
ATOM     19  C   UNL     1     -35.681 -65.666  68.527  0.00  0.00    +0.000 C 
ATOM     20  N   UNL     1     -36.696 -64.674  68.690  0.00  0.00    +0.000 N 
ATOM     21  C   UNL     1     -35.661 -66.877  69.389  0.00  0.00    +0.000 C 
ATOM     22  C   UNL     1     -36.679 -63.551  67.809  0.00  0.00    +0.000 C 
ATOM     23  H   UNL     1     -37.414 -64.776  69.390  0.00  0.00    +0.000 HD
ATOM     24  C   UNL     1     -35.637 -63.520  66.835  0.00  0.00    +0.000 C 
ATOM     25  C   UNL     1     -37.730 -62.503  67.893  0.00  0.00    +0.000 C 
ENDBRANCH  14  17
ENDBRANCH   3  11
BRANCH   8  26
ATOM     26  C   UNL     1     -32.374 -66.925  55.735  0.00  0.00    +0.000 C 
ATOM     27  C   UNL     1     -32.633 -67.439  54.315  0.00  0.00    +0.000 C 
BRANCH  27  28
ATOM     28  C   UNL     1     -32.880 -67.910  52.993  0.00  0.00    +0.000 A 
ATOM     29  C   UNL     1     -32.146 -67.400  51.926  0.00  0.00    +0.000 A 
ATOM     30  C   UNL     1     -32.380 -67.862  50.629  0.00  0.00    +0.000 A 
ATOM     31  C   UNL     1     -33.353 -68.841  50.416  0.00  0.00    +0.000 A 
ATOM     32  C   UNL     1     -34.095 -69.351  51.482  0.00  0.00    +0.000 A 
ATOM     33  C   UNL     1     -33.851 -68.882  52.774  0.00  0.00    +0.000 A 
BRANCH  30  34
ATOM     34  O   UNL     1     -31.711 -67.435  49.508  0.00  0.00    +0.000 OA
ATOM     35  C   UNL     1     -30.418 -66.949  49.729  0.00  0.00    +0.000 C 
ENDBRANCH  30  34
BRANCH  32  36
ATOM     36  O   UNL     1     -35.023 -70.309  51.155  0.00  0.00    +0.000 OA
ATOM     37  C   UNL     1     -36.138 -70.381  52.001  0.00  0.00    +0.000 C 
ENDBRANCH  32  36
ENDBRANCH  27  28
ENDBRANCH   8  26
TORSDOF 6
ENDMDL
MODEL 5
REMARK VINA RESULT:      -6.7      9.821     14.012
REMARK  Name = AZD4547.pdbqt.pdb
REMARK  6 active torsions:
REMARK  status: ('A' for Active; 'I' for Inactive)
REMARK    1  A    between atoms: C_3  and  C_23
REMARK    2  A    between atoms: C_8  and  C_11
REMARK    3  A    between atoms: C_12  and  C_13
REMARK    4  A    between atoms: C_15  and  O_19
REMARK    5  A    between atoms: C_17  and  O_21
REMARK    6  A    between atoms: C_26  and  N_29
REMARK                            x       y       z     vdW  Elec       q    Type
REMARK                         _______ _______ _______ _____ _____    ______ ____
ROOT
ATOM      1  O   UNL     1     -65.078 -67.311  39.109  0.00  0.00    +0.000 OA
ATOM      2  N   UNL     1     -65.818 -67.586  41.286  0.00  0.00    +0.000 N 
ATOM      3  C   UNL     1     -64.967 -67.111  40.313  0.00  0.00    +0.000 C 
ATOM      4  H   UNL     1     -65.684 -67.397  42.267  0.00  0.00    +0.000 HD
ATOM      5  C   UNL     1     -66.929 -68.356  41.037  0.00  0.00    +0.000 A 
ATOM      6  N   UNL     1     -67.678 -68.759  42.069  0.00  0.00    +0.000 NA
ATOM      7  N   UNL     1     -68.659 -69.475  41.489  0.00  0.00    +0.000 N 
ATOM      8  C   UNL     1     -68.562 -69.540  40.132  0.00  0.00    +0.000 A 
ATOM      9  H   UNL     1     -69.368 -69.894  42.081  0.00  0.00    +0.000 HD
ATOM     10  C   UNL     1     -67.441 -68.820  39.801  0.00  0.00    +0.000 A 
ENDROOT
BRANCH   3  11
ATOM     11  C   UNL     1     -63.826 -66.292  40.793  0.00  0.00    +0.000 A 
ATOM     12  C   UNL     1     -63.895 -65.738  42.071  0.00  0.00    +0.000 A 
ATOM     13  C   UNL     1     -62.843 -64.964  42.555  0.00  0.00    +0.000 A 
ATOM     14  C   UNL     1     -61.708 -64.711  41.773  0.00  0.00    +0.000 A 
ATOM     15  C   UNL     1     -61.648 -65.291  40.498  0.00  0.00    +0.000 A 
ATOM     16  C   UNL     1     -62.698 -66.068  40.008  0.00  0.00    +0.000 A 
BRANCH  14  17
ATOM     17  N   UNL     1     -60.622 -63.962  42.282  0.00  0.00    +0.000 N 
ATOM     18  C   UNL     1     -60.778 -63.300  43.589  0.00  0.00    +0.000 C 
ATOM     19  C   UNL     1     -60.581 -61.980  44.091  0.00  0.00    +0.000 C 
ATOM     20  N   UNL     1     -60.119 -61.004  43.156  0.00  0.00    +0.000 N 
ATOM     21  C   UNL     1     -60.865 -61.604  45.501  0.00  0.00    +0.000 C 
ATOM     22  C   UNL     1     -59.897 -61.422  41.810  0.00  0.00    +0.000 C 
ATOM     23  H   UNL     1     -59.979 -60.045  43.434  0.00  0.00    +0.000 HD
ATOM     24  C   UNL     1     -60.157 -62.793  41.516  0.00  0.00    +0.000 C 
ATOM     25  C   UNL     1     -59.461 -60.449  40.775  0.00  0.00    +0.000 C 
ENDBRANCH  14  17
ENDBRANCH   3  11
BRANCH   8  26
ATOM     26  C   UNL     1     -69.461 -70.223  39.279  0.00  0.00    +0.000 C 
ATOM     27  C   UNL     1     -70.432 -70.966  38.355  0.00  0.00    +0.000 C 
BRANCH  27  28
ATOM     28  C   UNL     1     -71.328 -71.664  37.495  0.00  0.00    +0.000 A 
ATOM     29  C   UNL     1     -72.516 -71.060  37.093  0.00  0.00    +0.000 A 
ATOM     30  C   UNL     1     -73.396 -71.737  36.246  0.00  0.00    +0.000 A 
ATOM     31  C   UNL     1     -73.070 -73.022  35.805  0.00  0.00    +0.000 A 
ATOM     32  C   UNL     1     -71.883 -73.634  36.210  0.00  0.00    +0.000 A 
ATOM     33  C   UNL     1     -71.011 -72.946  37.056  0.00  0.00    +0.000 A 
BRANCH  30  34
ATOM     34  O   UNL     1     -74.587 -71.235  35.782  0.00  0.00    +0.000 OA
ATOM     35  C   UNL     1     -74.746 -69.850  35.911  0.00  0.00    +0.000 C 
ENDBRANCH  30  34
BRANCH  32  36
ATOM     36  O   UNL     1     -71.666 -74.896  35.714  0.00  0.00    +0.000 OA
ATOM     37  C   UNL     1     -72.766 -75.490  35.080  0.00  0.00    +0.000 C 
ENDBRANCH  32  36
ENDBRANCH  27  28
ENDBRANCH   8  26
TORSDOF 6
ENDMDL
MODEL 6
REMARK VINA RESULT:      -6.7     29.166     31.407
REMARK  Name = AZD4547.pdbqt.pdb
REMARK  6 active torsions:
REMARK  status: ('A' for Active; 'I' for Inactive)
REMARK    1  A    between atoms: C_3  and  C_23
REMARK    2  A    between atoms: C_8  and  C_11
REMARK    3  A    between atoms: C_12  and  C_13
REMARK    4  A    between atoms: C_15  and  O_19
REMARK    5  A    between atoms: C_17  and  O_21
REMARK    6  A    between atoms: C_26  and  N_29
REMARK                            x       y       z     vdW  Elec       q    Type
REMARK                         _______ _______ _______ _____ _____    ______ ____
ROOT
ATOM      1  O   UNL     1     -34.621 -66.379  60.088  0.00  0.00    +0.000 OA
ATOM      2  N   UNL     1     -32.401 -65.725  60.164  0.00  0.00    +0.000 N 
ATOM      3  C   UNL     1     -33.650 -65.948  60.700  0.00  0.00    +0.000 C 
ATOM      4  H   UNL     1     -31.631 -65.366  60.707  0.00  0.00    +0.000 HD
ATOM      5  C   UNL     1     -32.065 -65.963  58.853  0.00  0.00    +0.000 A 
ATOM      6  N   UNL     1     -30.816 -65.703  58.450  0.00  0.00    +0.000 NA
ATOM      7  N   UNL     1     -30.825 -66.039  57.147  0.00  0.00    +0.000 N 
ATOM      8  C   UNL     1     -32.030 -66.503  56.709  0.00  0.00    +0.000 A 
ATOM      9  H   UNL     1     -29.971 -65.928  56.611  0.00  0.00    +0.000 HD
ATOM     10  C   UNL     1     -32.865 -66.465  57.797  0.00  0.00    +0.000 A 
ENDROOT
BRANCH   3  11
ATOM     11  C   UNL     1     -33.803 -65.629  62.141  0.00  0.00    +0.000 A 
ATOM     12  C   UNL     1     -32.660 -65.341  62.885  0.00  0.00    +0.000 A 
ATOM     13  C   UNL     1     -32.766 -65.038  64.241  0.00  0.00    +0.000 A 
ATOM     14  C   UNL     1     -34.009 -65.029  64.887  0.00  0.00    +0.000 A 
ATOM     15  C   UNL     1     -35.149 -65.302  64.119  0.00  0.00    +0.000 A 
ATOM     16  C   UNL     1     -35.050 -65.607  62.761  0.00  0.00    +0.000 A 
BRANCH  14  17
ATOM     17  N   UNL     1     -34.119 -64.677  66.252  0.00  0.00    +0.000 N 
ATOM     18  C   UNL     1     -34.325 -65.751  67.239  0.00  0.00    +0.000 C 
ATOM     19  C   UNL     1     -35.249 -65.998  68.297  0.00  0.00    +0.000 C 
ATOM     20  N   UNL     1     -36.252 -65.005  68.513  0.00  0.00    +0.000 N 
ATOM     21  C   UNL     1     -35.214 -67.233  69.124  0.00  0.00    +0.000 C 
ATOM     22  C   UNL     1     -36.250 -63.859  67.663  0.00  0.00    +0.000 C 
ATOM     23  H   UNL     1     -36.953 -65.123  69.228  0.00  0.00    +0.000 HD
ATOM     24  C   UNL     1     -35.235 -63.807  66.663  0.00  0.00    +0.000 C 
ATOM     25  C   UNL     1     -37.292 -62.808  67.803  0.00  0.00    +0.000 C 
ENDBRANCH  14  17
ENDBRANCH   3  11
BRANCH   8  26
ATOM     26  C   UNL     1     -32.312 -66.926  55.388  0.00  0.00    +0.000 C 
ATOM     27  C   UNL     1     -32.620 -67.387  53.960  0.00  0.00    +0.000 C 
BRANCH  27  28
ATOM     28  C   UNL     1     -32.911 -67.824  52.635  0.00  0.00    +0.000 A 
ATOM     29  C   UNL     1     -34.150 -68.389  52.347  0.00  0.00    +0.000 A 
ATOM     30  C   UNL     1     -34.443 -68.814  51.049  0.00  0.00    +0.000 A 
ATOM     31  C   UNL     1     -33.482 -68.663  50.046  0.00  0.00    +0.000 A 
ATOM     32  C   UNL     1     -32.236 -68.102  50.332  0.00  0.00    +0.000 A 
ATOM     33  C   UNL     1     -31.956 -67.681  51.633  0.00  0.00    +0.000 A 
BRANCH  30  34
ATOM     34  O   UNL     1     -35.632 -69.375  50.653  0.00  0.00    +0.000 OA
ATOM     35  C   UNL     1     -35.895 -70.650  51.168  0.00  0.00    +0.000 C 
ENDBRANCH  30  34
BRANCH  32  36
ATOM     36  O   UNL     1     -31.372 -68.003  49.269  0.00  0.00    +0.000 OA
ATOM     37  C   UNL     1     -30.485 -66.919  49.314  0.00  0.00    +0.000 C 
ENDBRANCH  32  36
ENDBRANCH  27  28
ENDBRANCH   8  26
TORSDOF 6
ENDMDL
MODEL 7
REMARK VINA RESULT:      -6.6      9.819     14.049
REMARK  Name = AZD4547.pdbqt.pdb
REMARK  6 active torsions:
REMARK  status: ('A' for Active; 'I' for Inactive)
REMARK    1  A    between atoms: C_3  and  C_23
REMARK    2  A    between atoms: C_8  and  C_11
REMARK    3  A    between atoms: C_12  and  C_13
REMARK    4  A    between atoms: C_15  and  O_19
REMARK    5  A    between atoms: C_17  and  O_21
REMARK    6  A    between atoms: C_26  and  N_29
REMARK                            x       y       z     vdW  Elec       q    Type
REMARK                         _______ _______ _______ _____ _____    ______ ____
ROOT
ATOM      1  O   UNL     1     -65.014 -67.405  39.030  0.00  0.00    +0.000 OA
ATOM      2  N   UNL     1     -65.810 -67.572  41.198  0.00  0.00    +0.000 N 
ATOM      3  C   UNL     1     -64.932 -67.148  40.226  0.00  0.00    +0.000 C 
ATOM      4  H   UNL     1     -65.699 -67.337  42.172  0.00  0.00    +0.000 HD
ATOM      5  C   UNL     1     -66.919 -68.347  40.958  0.00  0.00    +0.000 A 
ATOM      6  N   UNL     1     -67.696 -68.697  41.989  0.00  0.00    +0.000 NA
ATOM      7  N   UNL     1     -68.668 -69.434  41.419  0.00  0.00    +0.000 N 
ATOM      8  C   UNL     1     -68.537 -69.564  40.069  0.00  0.00    +0.000 A 
ATOM      9  H   UNL     1     -69.394 -69.821  42.012  0.00  0.00    +0.000 HD
ATOM     10  C   UNL     1     -67.404 -68.867  39.732  0.00  0.00    +0.000 A 
ENDROOT
BRANCH   3  11
ATOM     11  C   UNL     1     -63.797 -66.314  40.695  0.00  0.00    +0.000 A 
ATOM     12  C   UNL     1     -63.805 -65.860  42.013  0.00  0.00    +0.000 A 
ATOM     13  C   UNL     1     -62.758 -65.075  42.489  0.00  0.00    +0.000 A 
ATOM     14  C   UNL     1     -61.689 -64.712  41.659  0.00  0.00    +0.000 A 
ATOM     15  C   UNL     1     -61.689 -65.192  40.342  0.00  0.00    +0.000 A 
ATOM     16  C   UNL     1     -62.734 -65.979  39.860  0.00  0.00    +0.000 A 
BRANCH  14  17
ATOM     17  N   UNL     1     -60.604 -63.951  42.155  0.00  0.00    +0.000 N 
ATOM     18  C   UNL     1     -60.738 -63.321  43.481  0.00  0.00    +0.000 C 
ATOM     19  C   UNL     1     -60.554 -62.009  44.006  0.00  0.00    +0.000 C 
ATOM     20  N   UNL     1     -60.138 -61.003  43.081  0.00  0.00    +0.000 N 
ATOM     21  C   UNL     1     -60.806 -61.670  45.432  0.00  0.00    +0.000 C 
ATOM     22  C   UNL     1     -59.944 -61.387  41.720  0.00  0.00    +0.000 C 
ATOM     23  H   UNL     1     -60.009 -60.047  43.377  0.00  0.00    +0.000 HD
ATOM     24  C   UNL     1     -60.184 -62.757  41.403  0.00  0.00    +0.000 C 
ATOM     25  C   UNL     1     -59.556 -60.383  40.696  0.00  0.00    +0.000 C 
ENDBRANCH  14  17
ENDBRANCH   3  11
BRANCH   8  26
ATOM     26  C   UNL     1     -69.420 -70.282  39.227  0.00  0.00    +0.000 C 
ATOM     27  C   UNL     1     -70.378 -71.056  38.315  0.00  0.00    +0.000 C 
BRANCH  27  28
ATOM     28  C   UNL     1     -71.275 -71.769  37.468  0.00  0.00    +0.000 A 
ATOM     29  C   UNL     1     -71.026 -73.104  37.161  0.00  0.00    +0.000 A 
ATOM     30  C   UNL     1     -71.904 -73.809  36.335  0.00  0.00    +0.000 A 
ATOM     31  C   UNL     1     -73.034 -73.163  35.827  0.00  0.00    +0.000 A 
ATOM     32  C   UNL     1     -73.284 -71.823  36.128  0.00  0.00    +0.000 A 
ATOM     33  C   UNL     1     -72.399 -71.129  36.955  0.00  0.00    +0.000 A 
BRANCH  30  34
ATOM     34  O   UNL     1     -71.761 -75.126  35.975  0.00  0.00    +0.000 OA
ATOM     35  C   UNL     1     -70.511 -75.692  36.253  0.00  0.00    +0.000 C 
ENDBRANCH  30  34
BRANCH  32  36
ATOM     36  O   UNL     1     -74.423 -71.293  35.574  0.00  0.00    +0.000 OA
ATOM     37  C   UNL     1     -75.170 -72.172  34.777  0.00  0.00    +0.000 C 
ENDBRANCH  32  36
ENDBRANCH  27  28
ENDBRANCH   8  26
TORSDOF 6
ENDMDL
MODEL 8
REMARK VINA RESULT:      -6.6     22.574     29.695
REMARK  Name = AZD4547.pdbqt.pdb
REMARK  6 active torsions:
REMARK  status: ('A' for Active; 'I' for Inactive)
REMARK    1  A    between atoms: C_3  and  C_23
REMARK    2  A    between atoms: C_8  and  C_11
REMARK    3  A    between atoms: C_12  and  C_13
REMARK    4  A    between atoms: C_15  and  O_19
REMARK    5  A    between atoms: C_17  and  O_21
REMARK    6  A    between atoms: C_26  and  N_29
REMARK                            x       y       z     vdW  Elec       q    Type
REMARK                         _______ _______ _______ _____ _____    ______ ____
ROOT
ATOM      1  O   UNL     1     -44.106 -52.270  30.770  0.00  0.00    +0.000 OA
ATOM      2  N   UNL     1     -43.549 -50.989  32.616  0.00  0.00    +0.000 N 
ATOM      3  C   UNL     1     -43.825 -51.193  31.283  0.00  0.00    +0.000 C 
ATOM      4  H   UNL     1     -43.319 -50.082  32.993  0.00  0.00    +0.000 HD
ATOM      5  C   UNL     1     -43.557 -51.977  33.571  0.00  0.00    +0.000 A 
ATOM      6  N   UNL     1     -43.270 -51.654  34.836  0.00  0.00    +0.000 NA
ATOM      7  N   UNL     1     -43.365 -52.825  35.494  0.00  0.00    +0.000 N 
ATOM      8  C   UNL     1     -43.702 -53.876  34.695  0.00  0.00    +0.000 A 
ATOM      9  H   UNL     1     -43.187 -52.836  36.492  0.00  0.00    +0.000 HD
ATOM     10  C   UNL     1     -43.835 -53.360  33.430  0.00  0.00    +0.000 A 
ENDROOT
BRANCH   3  11
ATOM     11  C   UNL     1     -43.766 -49.988  30.417  0.00  0.00    +0.000 A 
ATOM     12  C   UNL     1     -42.712 -49.869  29.513  0.00  0.00    +0.000 A 
ATOM     13  C   UNL     1     -42.624 -48.753  28.684  0.00  0.00    +0.000 A 
ATOM     14  C   UNL     1     -43.575 -47.726  28.748  0.00  0.00    +0.000 A 
ATOM     15  C   UNL     1     -44.638 -47.871  29.651  0.00  0.00    +0.000 A 
ATOM     16  C   UNL     1     -44.731 -48.986  30.483  0.00  0.00    +0.000 A 
BRANCH  14  17
ATOM     17  N   UNL     1     -43.509 -46.614  27.876  0.00  0.00    +0.000 N 
ATOM     18  C   UNL     1     -44.422 -45.482  28.112  0.00  0.00    +0.000 C 
ATOM     19  C   UNL     1     -45.344 -44.737  27.320  0.00  0.00    +0.000 C 
ATOM     20  N   UNL     1     -45.468 -45.124  25.951  0.00  0.00    +0.000 N 
ATOM     21  C   UNL     1     -46.170 -43.631  27.873  0.00  0.00    +0.000 C 
ATOM     22  C   UNL     1     -44.671 -46.214  25.490  0.00  0.00    +0.000 C 
ATOM     23  H   UNL     1     -46.118 -44.657  25.336  0.00  0.00    +0.000 HD
ATOM     24  C   UNL     1     -43.810 -46.825  26.449  0.00  0.00    +0.000 C 
ATOM     25  C   UNL     1     -44.783 -46.699  24.090  0.00  0.00    +0.000 C 
ENDBRANCH  14  17
ENDBRANCH   3  11
BRANCH   8  26
ATOM     26  C   UNL     1     -43.870 -55.213  35.129  0.00  0.00    +0.000 C 
ATOM     27  C   UNL     1     -44.056 -56.658  35.602  0.00  0.00    +0.000 C 
BRANCH  27  28
ATOM     28  C   UNL     1     -44.235 -58.000  36.048  0.00  0.00    +0.000 A 
ATOM     29  C   UNL     1     -45.412 -58.679  35.748  0.00  0.00    +0.000 A 
ATOM     30  C   UNL     1     -45.591 -59.996  36.178  0.00  0.00    +0.000 A 
ATOM     31  C   UNL     1     -44.577 -60.623  36.906  0.00  0.00    +0.000 A 
ATOM     32  C   UNL     1     -43.397 -59.943  37.214  0.00  0.00    +0.000 A 
ATOM     33  C   UNL     1     -43.230 -58.627  36.778  0.00  0.00    +0.000 A 
BRANCH  30  34
ATOM     34  O   UNL     1     -46.705 -60.761  35.932  0.00  0.00    +0.000 OA
ATOM     35  C   UNL     1     -47.925 -60.075  35.971  0.00  0.00    +0.000 C 
ENDBRANCH  30  34
BRANCH  32  36
ATOM     36  O   UNL     1     -42.471 -60.658  37.933  0.00  0.00    +0.000 OA
ATOM     37  C   UNL     1     -42.697 -62.040  37.999  0.00  0.00    +0.000 C 
ENDBRANCH  32  36
ENDBRANCH  27  28
ENDBRANCH   8  26
TORSDOF 6
ENDMDL
MODEL 9
REMARK VINA RESULT:      -6.5     17.319     21.303
REMARK  Name = AZD4547.pdbqt.pdb
REMARK  6 active torsions:
REMARK  status: ('A' for Active; 'I' for Inactive)
REMARK    1  A    between atoms: C_3  and  C_23
REMARK    2  A    between atoms: C_8  and  C_11
REMARK    3  A    between atoms: C_12  and  C_13
REMARK    4  A    between atoms: C_15  and  O_19
REMARK    5  A    between atoms: C_17  and  O_21
REMARK    6  A    between atoms: C_26  and  N_29
REMARK                            x       y       z     vdW  Elec       q    Type
REMARK                         _______ _______ _______ _____ _____    ______ ____
ROOT
ATOM      1  O   UNL     1     -45.765 -66.018  31.630  0.00  0.00    +0.000 OA
ATOM      2  N   UNL     1     -46.847 -64.038  31.110  0.00  0.00    +0.000 N 
ATOM      3  C   UNL     1     -46.260 -65.248  30.815  0.00  0.00    +0.000 C 
ATOM      4  H   UNL     1     -47.239 -63.435  30.403  0.00  0.00    +0.000 HD
ATOM      5  C   UNL     1     -46.965 -63.521  32.378  0.00  0.00    +0.000 A 
ATOM      6  N   UNL     1     -47.555 -62.331  32.536  0.00  0.00    +0.000 NA
ATOM      7  N   UNL     1     -47.507 -62.127  33.865  0.00  0.00    +0.000 N 
ATOM      8  C   UNL     1     -46.912 -63.140  34.555  0.00  0.00    +0.000 A 
ATOM      9  H   UNL     1     -47.902 -61.270  34.239  0.00  0.00    +0.000 HD
ATOM     10  C   UNL     1     -46.544 -64.069  33.614  0.00  0.00    +0.000 A 
ENDROOT
BRANCH   3  11
ATOM     11  C   UNL     1     -46.237 -65.625  29.379  0.00  0.00    +0.000 A 
ATOM     12  C   UNL     1     -46.778 -66.855  29.005  0.00  0.00    +0.000 A 
ATOM     13  C   UNL     1     -46.774 -67.242  27.667  0.00  0.00    +0.000 A 
ATOM     14  C   UNL     1     -46.219 -66.422  26.676  0.00  0.00    +0.000 A 
ATOM     15  C   UNL     1     -45.696 -65.182  27.068  0.00  0.00    +0.000 A 
ATOM     16  C   UNL     1     -45.697 -64.788  28.406  0.00  0.00    +0.000 A 
BRANCH  14  17
ATOM     17  N   UNL     1     -46.255 -66.797  25.313  0.00  0.00    +0.000 N 
ATOM     18  C   UNL     1     -45.608 -68.060  24.915  0.00  0.00    +0.000 C 
ATOM     19  C   UNL     1     -44.658 -68.449  23.926  0.00  0.00    +0.000 C 
ATOM     20  N   UNL     1     -44.164 -67.415  23.074  0.00  0.00    +0.000 N 
ATOM     21  C   UNL     1     -44.163 -69.844  23.790  0.00  0.00    +0.000 C 
ATOM     22  C   UNL     1     -44.655 -66.090  23.278  0.00  0.00    +0.000 C 
ATOM     23  H   UNL     1     -43.472 -67.611  22.367  0.00  0.00    +0.000 HD
ATOM     24  C   UNL     1     -45.606 -65.917  24.327  0.00  0.00    +0.000 C 
ATOM     25  C   UNL     1     -44.151 -64.958  22.458  0.00  0.00    +0.000 C 
ENDBRANCH  14  17
ENDBRANCH   3  11
BRANCH   8  26
ATOM     26  C   UNL     1     -46.734 -63.181  35.959  0.00  0.00    +0.000 C 
ATOM     27  C   UNL     1     -46.542 -63.221  37.478  0.00  0.00    +0.000 C 
BRANCH  27  28
ATOM     28  C   UNL     1     -46.368 -63.249  38.892  0.00  0.00    +0.000 A 
ATOM     29  C   UNL     1     -45.491 -64.167  39.465  0.00  0.00    +0.000 A 
ATOM     30  C   UNL     1     -45.313 -64.196  40.850  0.00  0.00    +0.000 A 
ATOM     31  C   UNL     1     -46.018 -63.294  41.650  0.00  0.00    +0.000 A 
ATOM     32  C   UNL     1     -46.902 -62.377  41.081  0.00  0.00    +0.000 A 
ATOM     33  C   UNL     1     -47.072 -62.357  39.695  0.00  0.00    +0.000 A 
BRANCH  30  34
ATOM     34  O   UNL     1     -44.471 -65.050  41.518  0.00  0.00    +0.000 OA
ATOM     35  C   UNL     1     -43.253 -65.313  40.881  0.00  0.00    +0.000 C 
ENDBRANCH  30  34
BRANCH  32  36
ATOM     36  O   UNL     1     -47.540 -61.540  41.964  0.00  0.00    +0.000 OA
ATOM     37  C   UNL     1     -47.057 -61.573  43.279  0.00  0.00    +0.000 C 
ENDBRANCH  32  36
ENDBRANCH  27  28
ENDBRANCH   8  26
TORSDOF 6
ENDMDL
