MODEL 1
REMARK VINA RESULT:      -8.2      0.000      0.000
REMARK  Name = Belinostat.pdbqt.pdb
REMARK  6 active torsions:
REMARK  status: ('A' for Active; 'I' for Inactive)
REMARK    1  A    between atoms: C_1  and  S_7
REMARK    2  A    between atoms: C_3  and  C_18
REMARK    3  A    between atoms: S_7  and  N_10
REMARK    4  A    between atoms: N_10  and  C_12
REMARK    5  A    between atoms: C_19  and  C_20
REMARK    6  A    between atoms: N_22  and  O_24
REMARK                            x       y       z     vdW  Elec       q    Type
REMARK                         _______ _______ _______ _____ _____    ______ ____
ROOT
ATOM      1  C   UNL     1     -61.178 -63.152  42.299  0.00  0.00    +0.000 A 
ATOM      2  C   UNL     1     -60.031 -62.762  41.617  0.00  0.00    +0.000 A 
ATOM      3  C   UNL     1     -59.183 -61.827  42.200  0.00  0.00    +0.000 A 
ATOM      4  C   UNL     1     -61.478 -62.650  43.562  0.00  0.00    +0.000 A 
ATOM      5  C   UNL     1     -59.476 -61.302  43.459  0.00  0.00    +0.000 A 
ATOM      6  C   UNL     1     -60.623 -61.716  44.139  0.00  0.00    +0.000 A 
ENDROOT
BRANCH   1   7
ATOM      7  S   UNL     1     -62.235 -64.362  41.590  0.00  0.00    +0.000 S 
ATOM      8  O   UNL     1     -63.522 -63.734  41.387  0.00  0.00    +0.000 OA
ATOM      9  O   UNL     1     -62.110 -65.579  42.362  0.00  0.00    +0.000 OA
BRANCH   7  10
ATOM     10  N   UNL     1     -61.580 -64.605  40.068  0.00  0.00    +0.000 N 
ATOM     11  H   UNL     1     -60.593 -64.364  39.989  0.00  0.00    +0.000 HD
BRANCH  10  12
ATOM     12  C   UNL     1     -62.180 -65.440  39.084  0.00  0.00    +0.000 A 
ATOM     13  C   UNL     1     -62.059 -66.828  39.098  0.00  0.00    +0.000 A 
ATOM     14  C   UNL     1     -62.734 -67.605  38.159  0.00  0.00    +0.000 A 
ATOM     15  C   UNL     1     -63.556 -66.995  37.216  0.00  0.00    +0.000 A 
ATOM     16  C   UNL     1     -63.710 -65.611  37.219  0.00  0.00    +0.000 A 
ATOM     17  C   UNL     1     -63.033 -64.839  38.159  0.00  0.00    +0.000 A 
ENDBRANCH  10  12
ENDBRANCH   7  10
ENDBRANCH   1   7
BRANCH   3  18
ATOM     18  C   UNL     1     -58.009 -61.405  41.508  0.00  0.00    +0.000 C 
ATOM     19  C   UNL     1     -57.023 -61.049  40.923  0.00  0.00    +0.000 C 
BRANCH  19  20
ATOM     20  C   UNL     1     -55.839 -60.621  40.220  0.00  0.00    +0.000 C 
ATOM     21  O   UNL     1     -55.755 -60.754  39.004  0.00  0.00    +0.000 OA
ATOM     22  N   UNL     1     -54.855 -60.066  40.989  0.00  0.00    +0.000 N 
ATOM     23  H   UNL     1     -54.931 -59.896  41.985  0.00  0.00    +0.000 HD
BRANCH  22  24
ATOM     24  O   UNL     1     -53.700 -59.591  40.329  0.00  0.00    +0.000 OA
ATOM     25  H   UNL     1     -54.047 -58.839  39.800  0.00  0.00    +0.000 HD
ENDBRANCH  22  24
ENDBRANCH  19  20
ENDBRANCH   3  18
TORSDOF 6
ENDMDL
MODEL 2
REMARK VINA RESULT:      -7.6      2.263      2.677
REMARK  Name = Belinostat.pdbqt.pdb
REMARK  6 active torsions:
REMARK  status: ('A' for Active; 'I' for Inactive)
REMARK    1  A    between atoms: C_1  and  S_7
REMARK    2  A    between atoms: C_3  and  C_18
REMARK    3  A    between atoms: S_7  and  N_10
REMARK    4  A    between atoms: N_10  and  C_12
REMARK    5  A    between atoms: C_19  and  C_20
REMARK    6  A    between atoms: N_22  and  O_24
REMARK                            x       y       z     vdW  Elec       q    Type
REMARK                         _______ _______ _______ _____ _____    ______ ____
ROOT
ATOM      1  C   UNL     1     -60.785 -65.960  41.132  0.00  0.00    +0.000 A 
ATOM      2  C   UNL     1     -59.611 -65.263  40.870  0.00  0.00    +0.000 A 
ATOM      3  C   UNL     1     -59.533 -63.918  41.218  0.00  0.00    +0.000 A 
ATOM      4  C   UNL     1     -61.867 -65.352  41.759  0.00  0.00    +0.000 A 
ATOM      5  C   UNL     1     -60.614 -63.288  41.833  0.00  0.00    +0.000 A 
ATOM      6  C   UNL     1     -61.780 -64.006  42.104  0.00  0.00    +0.000 A 
ENDROOT
BRANCH   1   7
ATOM      7  S   UNL     1     -60.880 -67.668  40.735  0.00  0.00    +0.000 S 
ATOM      8  O   UNL     1     -60.922 -68.393  41.987  0.00  0.00    +0.000 OA
ATOM      9  O   UNL     1     -59.874 -67.958  39.737  0.00  0.00    +0.000 OA
BRANCH   7  10
ATOM     10  N   UNL     1     -62.399 -67.823  40.047  0.00  0.00    +0.000 N 
ATOM     11  H   UNL     1     -63.160 -67.916  40.719  0.00  0.00    +0.000 HD
BRANCH  10  12
ATOM     12  C   UNL     1     -62.691 -67.449  38.705  0.00  0.00    +0.000 A 
ATOM     13  C   UNL     1     -62.496 -68.307  37.624  0.00  0.00    +0.000 A 
ATOM     14  C   UNL     1     -62.875 -67.921  36.340  0.00  0.00    +0.000 A 
ATOM     15  C   UNL     1     -63.477 -66.683  36.136  0.00  0.00    +0.000 A 
ATOM     16  C   UNL     1     -63.708 -65.837  37.217  0.00  0.00    +0.000 A 
ATOM     17  C   UNL     1     -63.327 -66.225  38.499  0.00  0.00    +0.000 A 
ENDBRANCH  10  12
ENDBRANCH   7  10
ENDBRANCH   1   7
BRANCH   3  18
ATOM     18  C   UNL     1     -58.341 -63.183  40.943  0.00  0.00    +0.000 C 
ATOM     19  C   UNL     1     -57.336 -62.567  40.712  0.00  0.00    +0.000 C 
BRANCH  19  20
ATOM     20  C   UNL     1     -56.130 -61.828  40.435  0.00  0.00    +0.000 C 
ATOM     21  O   UNL     1     -56.188 -60.671  40.037  0.00  0.00    +0.000 OA
ATOM     22  N   UNL     1     -54.957 -62.495  40.652  0.00  0.00    +0.000 N 
ATOM     23  H   UNL     1     -54.891 -63.431  41.036  0.00  0.00    +0.000 HD
BRANCH  22  24
ATOM     24  O   UNL     1     -53.754 -61.787  40.438  0.00  0.00    +0.000 OA
ATOM     25  H   UNL     1     -54.067 -60.944  40.043  0.00  0.00    +0.000 HD
ENDBRANCH  22  24
ENDBRANCH  19  20
ENDBRANCH   3  18
TORSDOF 6
ENDMDL
MODEL 3
REMARK VINA RESULT:      -7.6      1.779      2.233
REMARK  Name = Belinostat.pdbqt.pdb
REMARK  6 active torsions:
REMARK  status: ('A' for Active; 'I' for Inactive)
REMARK    1  A    between atoms: C_1  and  S_7
REMARK    2  A    between atoms: C_3  and  C_18
REMARK    3  A    between atoms: S_7  and  N_10
REMARK    4  A    between atoms: N_10  and  C_12
REMARK    5  A    between atoms: C_19  and  C_20
REMARK    6  A    between atoms: N_22  and  O_24
REMARK                            x       y       z     vdW  Elec       q    Type
REMARK                         _______ _______ _______ _____ _____    ______ ____
ROOT
ATOM      1  C   UNL     1     -62.407 -63.525  41.315  0.00  0.00    +0.000 A 
ATOM      2  C   UNL     1     -61.143 -63.186  40.845  0.00  0.00    +0.000 A 
ATOM      3  C   UNL     1     -60.094 -63.074  41.752  0.00  0.00    +0.000 A 
ATOM      4  C   UNL     1     -62.637 -63.782  42.662  0.00  0.00    +0.000 A 
ATOM      5  C   UNL     1     -60.310 -63.313  43.109  0.00  0.00    +0.000 A 
ATOM      6  C   UNL     1     -61.581 -63.669  43.562  0.00  0.00    +0.000 A 
ENDROOT
BRANCH   1   7
ATOM      7  S   UNL     1     -63.729 -63.709  40.174  0.00  0.00    +0.000 S 
ATOM      8  O   UNL     1     -63.170 -63.556  38.848  0.00  0.00    +0.000 OA
ATOM      9  O   UNL     1     -64.830 -62.883  40.621  0.00  0.00    +0.000 OA
BRANCH   7  10
ATOM     10  N   UNL     1     -64.153 -65.322  40.328  0.00  0.00    +0.000 N 
ATOM     11  H   UNL     1     -65.048 -65.481  40.787  0.00  0.00    +0.000 HD
BRANCH  10  12
ATOM     12  C   UNL     1     -63.569 -66.361  39.550  0.00  0.00    +0.000 A 
ATOM     13  C   UNL     1     -64.021 -66.695  38.275  0.00  0.00    +0.000 A 
ATOM     14  C   UNL     1     -63.362 -67.664  37.523  0.00  0.00    +0.000 A 
ATOM     15  C   UNL     1     -62.226 -68.286  38.035  0.00  0.00    +0.000 A 
ATOM     16  C   UNL     1     -61.747 -67.931  39.293  0.00  0.00    +0.000 A 
ATOM     17  C   UNL     1     -62.410 -66.962  40.041  0.00  0.00    +0.000 A 
ENDBRANCH  10  12
ENDBRANCH   7  10
ENDBRANCH   1   7
BRANCH   3  18
ATOM     18  C   UNL     1     -58.793 -62.713  41.290  0.00  0.00    +0.000 C 
ATOM     19  C   UNL     1     -57.698 -62.406  40.903  0.00  0.00    +0.000 C 
BRANCH  19  20
ATOM     20  C   UNL     1     -56.384 -62.038  40.438  0.00  0.00    +0.000 C 
ATOM     21  O   UNL     1     -55.519 -62.891  40.278  0.00  0.00    +0.000 OA
ATOM     22  N   UNL     1     -56.189 -60.708  40.191  0.00  0.00    +0.000 N 
ATOM     23  H   UNL     1     -56.909 -59.999  40.263  0.00  0.00    +0.000 HD
BRANCH  22  24
ATOM     24  O   UNL     1     -54.928 -60.316  39.688  0.00  0.00    +0.000 OA
ATOM     25  H   UNL     1     -55.013 -60.498  38.727  0.00  0.00    +0.000 HD
ENDBRANCH  22  24
ENDBRANCH  19  20
ENDBRANCH   3  18
TORSDOF 6
ENDMDL
MODEL 4
REMARK VINA RESULT:      -7.3     12.234     14.231
REMARK  Name = Belinostat.pdbqt.pdb
REMARK  6 active torsions:
REMARK  status: ('A' for Active; 'I' for Inactive)
REMARK    1  A    between atoms: C_1  and  S_7
REMARK    2  A    between atoms: C_3  and  C_18
REMARK    3  A    between atoms: S_7  and  N_10
REMARK    4  A    between atoms: N_10  and  C_12
REMARK    5  A    between atoms: C_19  and  C_20
REMARK    6  A    between atoms: N_22  and  O_24
REMARK                            x       y       z     vdW  Elec       q    Type
REMARK                         _______ _______ _______ _____ _____    ______ ____
ROOT
ATOM      1  C   UNL     1     -45.541 -62.906  42.290  0.00  0.00    +0.000 A 
ATOM      2  C   UNL     1     -46.475 -61.920  41.993  0.00  0.00    +0.000 A 
ATOM      3  C   UNL     1     -47.082 -61.229  43.037  0.00  0.00    +0.000 A 
ATOM      4  C   UNL     1     -45.180 -63.194  43.603  0.00  0.00    +0.000 A 
ATOM      5  C   UNL     1     -46.743 -61.516  44.359  0.00  0.00    +0.000 A 
ATOM      6  C   UNL     1     -45.791 -62.497  44.641  0.00  0.00    +0.000 A 
ENDROOT
BRANCH   1   7
ATOM      7  S   UNL     1     -44.739 -63.756  40.980  0.00  0.00    +0.000 S 
ATOM      8  O   UNL     1     -44.042 -64.880  41.567  0.00  0.00    +0.000 OA
ATOM      9  O   UNL     1     -44.039 -62.783  40.170  0.00  0.00    +0.000 OA
BRANCH   7  10
ATOM     10  N   UNL     1     -46.010 -64.396  40.097  0.00  0.00    +0.000 N 
ATOM     11  H   UNL     1     -46.671 -64.946  40.645  0.00  0.00    +0.000 HD
BRANCH  10  12
ATOM     12  C   UNL     1     -46.396 -63.909  38.816  0.00  0.00    +0.000 A 
ATOM     13  C   UNL     1     -47.296 -62.859  38.649  0.00  0.00    +0.000 A 
ATOM     14  C   UNL     1     -47.577 -62.366  37.376  0.00  0.00    +0.000 A 
ATOM     15  C   UNL     1     -46.935 -62.906  36.266  0.00  0.00    +0.000 A 
ATOM     16  C   UNL     1     -46.007 -63.931  36.430  0.00  0.00    +0.000 A 
ATOM     17  C   UNL     1     -45.730 -64.421  37.703  0.00  0.00    +0.000 A 
ENDBRANCH  10  12
ENDBRANCH   7  10
ENDBRANCH   1   7
BRANCH   3  18
ATOM     18  C   UNL     1     -48.054 -60.224  42.752  0.00  0.00    +0.000 C 
ATOM     19  C   UNL     1     -48.870 -59.377  42.509  0.00  0.00    +0.000 C 
BRANCH  19  20
ATOM     20  C   UNL     1     -49.850 -58.361  42.217  0.00  0.00    +0.000 C 
ATOM     21  O   UNL     1     -49.592 -57.456  41.432  0.00  0.00    +0.000 OA
ATOM     22  N   UNL     1     -51.051 -58.487  42.856  0.00  0.00    +0.000 N 
ATOM     23  H   UNL     1     -51.300 -59.260  43.463  0.00  0.00    +0.000 HD
BRANCH  22  24
ATOM     24  O   UNL     1     -52.053 -57.537  42.558  0.00  0.00    +0.000 OA
ATOM     25  H   UNL     1     -51.971 -57.436  41.585  0.00  0.00    +0.000 HD
ENDBRANCH  22  24
ENDBRANCH  19  20
ENDBRANCH   3  18
TORSDOF 6
ENDMDL
MODEL 5
REMARK VINA RESULT:      -7.2     12.299     15.405
REMARK  Name = Belinostat.pdbqt.pdb
REMARK  6 active torsions:
REMARK  status: ('A' for Active; 'I' for Inactive)
REMARK    1  A    between atoms: C_1  and  S_7
REMARK    2  A    between atoms: C_3  and  C_18
REMARK    3  A    between atoms: S_7  and  N_10
REMARK    4  A    between atoms: N_10  and  C_12
REMARK    5  A    between atoms: C_19  and  C_20
REMARK    6  A    between atoms: N_22  and  O_24
REMARK                            x       y       z     vdW  Elec       q    Type
REMARK                         _______ _______ _______ _____ _____    ______ ____
ROOT
ATOM      1  C   UNL     1     -45.401 -62.802  42.243  0.00  0.00    +0.000 A 
ATOM      2  C   UNL     1     -46.338 -61.814  41.964  0.00  0.00    +0.000 A 
ATOM      3  C   UNL     1     -47.050 -61.242  43.013  0.00  0.00    +0.000 A 
ATOM      4  C   UNL     1     -45.139 -63.208  43.548  0.00  0.00    +0.000 A 
ATOM      5  C   UNL     1     -46.811 -61.648  44.326  0.00  0.00    +0.000 A 
ATOM      6  C   UNL     1     -45.855 -62.629  44.593  0.00  0.00    +0.000 A 
ENDROOT
BRANCH   1   7
ATOM      7  S   UNL     1     -44.468 -63.502  40.930  0.00  0.00    +0.000 S 
ATOM      8  O   UNL     1     -43.346 -62.621  40.690  0.00  0.00    +0.000 OA
ATOM      9  O   UNL     1     -45.381 -63.857  39.866  0.00  0.00    +0.000 OA
BRANCH   7  10
ATOM     10  N   UNL     1     -43.837 -64.900  41.604  0.00  0.00    +0.000 N 
ATOM     11  H   UNL     1     -43.932 -64.960  42.617  0.00  0.00    +0.000 HD
BRANCH  10  12
ATOM     12  C   UNL     1     -43.572 -66.079  40.853  0.00  0.00    +0.000 A 
ATOM     13  C   UNL     1     -44.565 -66.994  40.510  0.00  0.00    +0.000 A 
ATOM     14  C   UNL     1     -44.267 -68.090  39.703  0.00  0.00    +0.000 A 
ATOM     15  C   UNL     1     -42.976 -68.260  39.213  0.00  0.00    +0.000 A 
ATOM     16  C   UNL     1     -41.987 -67.330  39.521  0.00  0.00    +0.000 A 
ATOM     17  C   UNL     1     -42.289 -66.236  40.329  0.00  0.00    +0.000 A 
ENDBRANCH  10  12
ENDBRANCH   7  10
ENDBRANCH   1   7
BRANCH   3  18
ATOM     18  C   UNL     1     -48.026 -60.237  42.744  0.00  0.00    +0.000 C 
ATOM     19  C   UNL     1     -48.845 -59.390  42.515  0.00  0.00    +0.000 C 
BRANCH  19  20
ATOM     20  C   UNL     1     -49.829 -58.372  42.240  0.00  0.00    +0.000 C 
ATOM     21  O   UNL     1     -49.563 -57.435  41.496  0.00  0.00    +0.000 OA
ATOM     22  N   UNL     1     -51.042 -58.534  42.847  0.00  0.00    +0.000 N 
ATOM     23  H   UNL     1     -51.297 -59.331  43.419  0.00  0.00    +0.000 HD
BRANCH  22  24
ATOM     24  O   UNL     1     -52.047 -57.582  42.563  0.00  0.00    +0.000 OA
ATOM     25  H   UNL     1     -52.411 -57.902  41.709  0.00  0.00    +0.000 HD
ENDBRANCH  22  24
ENDBRANCH  19  20
ENDBRANCH   3  18
TORSDOF 6
ENDMDL
MODEL 6
REMARK VINA RESULT:      -7.1      2.718      3.072
REMARK  Name = Belinostat.pdbqt.pdb
REMARK  6 active torsions:
REMARK  status: ('A' for Active; 'I' for Inactive)
REMARK    1  A    between atoms: C_1  and  S_7
REMARK    2  A    between atoms: C_3  and  C_18
REMARK    3  A    between atoms: S_7  and  N_10
REMARK    4  A    between atoms: N_10  and  C_12
REMARK    5  A    between atoms: C_19  and  C_20
REMARK    6  A    between atoms: N_22  and  O_24
REMARK                            x       y       z     vdW  Elec       q    Type
REMARK                         _______ _______ _______ _____ _____    ______ ____
ROOT
ATOM      1  C   UNL     1     -62.291 -64.024  41.326  0.00  0.00    +0.000 A 
ATOM      2  C   UNL     1     -61.029 -63.691  40.847  0.00  0.00    +0.000 A 
ATOM      3  C   UNL     1     -60.096 -63.145  41.724  0.00  0.00    +0.000 A 
ATOM      4  C   UNL     1     -62.629 -63.852  42.664  0.00  0.00    +0.000 A 
ATOM      5  C   UNL     1     -60.424 -62.952  43.065  0.00  0.00    +0.000 A 
ATOM      6  C   UNL     1     -61.689 -63.307  43.535  0.00  0.00    +0.000 A 
ENDROOT
BRANCH   1   7
ATOM      7  S   UNL     1     -63.462 -64.750  40.238  0.00  0.00    +0.000 S 
ATOM      8  O   UNL     1     -62.835 -64.838  38.937  0.00  0.00    +0.000 OA
ATOM      9  O   UNL     1     -64.726 -64.069  40.414  0.00  0.00    +0.000 OA
BRANCH   7  10
ATOM     10  N   UNL     1     -63.597 -66.320  40.805  0.00  0.00    +0.000 N 
ATOM     11  H   UNL     1     -62.838 -66.615  41.418  0.00  0.00    +0.000 HD
BRANCH  10  12
ATOM     12  C   UNL     1     -64.820 -67.050  40.802  0.00  0.00    +0.000 A 
ATOM     13  C   UNL     1     -65.352 -67.625  39.650  0.00  0.00    +0.000 A 
ATOM     14  C   UNL     1     -66.509 -68.398  39.717  0.00  0.00    +0.000 A 
ATOM     15  C   UNL     1     -67.123 -68.622  40.945  0.00  0.00    +0.000 A 
ATOM     16  C   UNL     1     -66.576 -68.081  42.105  0.00  0.00    +0.000 A 
ATOM     17  C   UNL     1     -65.421 -67.308  42.034  0.00  0.00    +0.000 A 
ENDBRANCH  10  12
ENDBRANCH   7  10
ENDBRANCH   1   7
BRANCH   3  18
ATOM     18  C   UNL     1     -58.801 -62.784  41.247  0.00  0.00    +0.000 C 
ATOM     19  C   UNL     1     -57.712 -62.479  40.842  0.00  0.00    +0.000 C 
BRANCH  19  20
ATOM     20  C   UNL     1     -56.405 -62.112  40.357  0.00  0.00    +0.000 C 
ATOM     21  O   UNL     1     -55.526 -62.958  40.239  0.00  0.00    +0.000 OA
ATOM     22  N   UNL     1     -56.233 -60.794  40.041  0.00  0.00    +0.000 N 
ATOM     23  H   UNL     1     -56.965 -60.094  40.078  0.00  0.00    +0.000 HD
BRANCH  22  24
ATOM     24  O   UNL     1     -54.980 -60.406  39.516  0.00  0.00    +0.000 OA
ATOM     25  H   UNL     1     -55.175 -59.531  39.117  0.00  0.00    +0.000 HD
ENDBRANCH  22  24
ENDBRANCH  19  20
ENDBRANCH   3  18
TORSDOF 6
ENDMDL
MODEL 7
REMARK VINA RESULT:      -7.0      3.353      4.757
REMARK  Name = Belinostat.pdbqt.pdb
REMARK  6 active torsions:
REMARK  status: ('A' for Active; 'I' for Inactive)
REMARK    1  A    between atoms: C_1  and  S_7
REMARK    2  A    between atoms: C_3  and  C_18
REMARK    3  A    between atoms: S_7  and  N_10
REMARK    4  A    between atoms: N_10  and  C_12
REMARK    5  A    between atoms: C_19  and  C_20
REMARK    6  A    between atoms: N_22  and  O_24
REMARK                            x       y       z     vdW  Elec       q    Type
REMARK                         _______ _______ _______ _____ _____    ______ ____
ROOT
ATOM      1  C   UNL     1     -63.127 -66.881  40.354  0.00  0.00    +0.000 A 
ATOM      2  C   UNL     1     -62.293 -65.782  40.526  0.00  0.00    +0.000 A 
ATOM      3  C   UNL     1     -62.407 -65.023  41.686  0.00  0.00    +0.000 A 
ATOM      4  C   UNL     1     -64.049 -67.253  41.328  0.00  0.00    +0.000 A 
ATOM      5  C   UNL     1     -63.337 -65.373  42.665  0.00  0.00    +0.000 A 
ATOM      6  C   UNL     1     -64.155 -66.488  42.486  0.00  0.00    +0.000 A 
ENDROOT
BRANCH   1   7
ATOM      7  S   UNL     1     -62.964 -67.870  38.913  0.00  0.00    +0.000 S 
ATOM      8  O   UNL     1     -64.207 -68.593  38.752  0.00  0.00    +0.000 OA
ATOM      9  O   UNL     1     -61.698 -68.566  38.982  0.00  0.00    +0.000 OA
BRANCH   7  10
ATOM     10  N   UNL     1     -62.908 -66.744  37.674  0.00  0.00    +0.000 N 
ATOM     11  H   UNL     1     -62.365 -65.908  37.887  0.00  0.00    +0.000 HD
BRANCH  10  12
ATOM     12  C   UNL     1     -63.210 -67.057  36.319  0.00  0.00    +0.000 A 
ATOM     13  C   UNL     1     -64.040 -66.265  35.528  0.00  0.00    +0.000 A 
ATOM     14  C   UNL     1     -64.237 -66.572  34.184  0.00  0.00    +0.000 A 
ATOM     15  C   UNL     1     -63.582 -67.661  33.617  0.00  0.00    +0.000 A 
ATOM     16  C   UNL     1     -62.724 -68.436  34.392  0.00  0.00    +0.000 A 
ATOM     17  C   UNL     1     -62.529 -68.126  35.735  0.00  0.00    +0.000 A 
ENDBRANCH  10  12
ENDBRANCH   7  10
ENDBRANCH   1   7
BRANCH   3  18
ATOM     18  C   UNL     1     -61.569 -63.883  41.873  0.00  0.00    +0.000 C 
ATOM     19  C   UNL     1     -60.865 -62.924  42.034  0.00  0.00    +0.000 C 
BRANCH  19  20
ATOM     20  C   UNL     1     -60.020 -61.772  42.227  0.00  0.00    +0.000 C 
ATOM     21  O   UNL     1     -59.146 -61.498  41.413  0.00  0.00    +0.000 OA
ATOM     22  N   UNL     1     -60.268 -61.029  43.348  0.00  0.00    +0.000 N 
ATOM     23  H   UNL     1     -61.023 -61.209  44.000  0.00  0.00    +0.000 HD
BRANCH  22  24
ATOM     24  O   UNL     1     -59.492 -59.866  43.545  0.00  0.00    +0.000 OA
ATOM     25  H   UNL     1     -58.824 -59.927  42.828  0.00  0.00    +0.000 HD
ENDBRANCH  22  24
ENDBRANCH  19  20
ENDBRANCH   3  18
TORSDOF 6
ENDMDL
MODEL 8
REMARK VINA RESULT:      -6.9      6.310      9.907
REMARK  Name = Belinostat.pdbqt.pdb
REMARK  6 active torsions:
REMARK  status: ('A' for Active; 'I' for Inactive)
REMARK    1  A    between atoms: C_1  and  S_7
REMARK    2  A    between atoms: C_3  and  C_18
REMARK    3  A    between atoms: S_7  and  N_10
REMARK    4  A    between atoms: N_10  and  C_12
REMARK    5  A    between atoms: C_19  and  C_20
REMARK    6  A    between atoms: N_22  and  O_24
REMARK                            x       y       z     vdW  Elec       q    Type
REMARK                         _______ _______ _______ _____ _____    ______ ____
ROOT
ATOM      1  C   UNL     1     -64.212 -66.935  40.126  0.00  0.00    +0.000 A 
ATOM      2  C   UNL     1     -65.386 -67.473  39.610  0.00  0.00    +0.000 A 
ATOM      3  C   UNL     1     -66.004 -68.519  40.287  0.00  0.00    +0.000 A 
ATOM      4  C   UNL     1     -63.662 -67.400  41.317  0.00  0.00    +0.000 A 
ATOM      5  C   UNL     1     -65.457 -69.007  41.474  0.00  0.00    +0.000 A 
ATOM      6  C   UNL     1     -64.287 -68.446  41.988  0.00  0.00    +0.000 A 
ENDROOT
BRANCH   1   7
ATOM      7  S   UNL     1     -63.446 -65.587  39.302  0.00  0.00    +0.000 S 
ATOM      8  O   UNL     1     -62.083 -65.984  39.017  0.00  0.00    +0.000 OA
ATOM      9  O   UNL     1     -63.733 -64.380  40.045  0.00  0.00    +0.000 OA
BRANCH   7  10
ATOM     10  N   UNL     1     -64.240 -65.531  37.829  0.00  0.00    +0.000 N 
ATOM     11  H   UNL     1     -64.859 -64.729  37.713  0.00  0.00    +0.000 HD
BRANCH  10  12
ATOM     12  C   UNL     1     -63.815 -66.259  36.683  0.00  0.00    +0.000 A 
ATOM     13  C   UNL     1     -63.033 -67.409  36.767  0.00  0.00    +0.000 A 
ATOM     14  C   UNL     1     -62.713 -68.131  35.619  0.00  0.00    +0.000 A 
ATOM     15  C   UNL     1     -63.199 -67.719  34.382  0.00  0.00    +0.000 A 
ATOM     16  C   UNL     1     -64.011 -66.591  34.295  0.00  0.00    +0.000 A 
ATOM     17  C   UNL     1     -64.328 -65.872  35.444  0.00  0.00    +0.000 A 
ENDBRANCH  10  12
ENDBRANCH   7  10
ENDBRANCH   1   7
BRANCH   3  18
ATOM     18  C   UNL     1     -67.201 -69.093  39.765  0.00  0.00    +0.000 C 
ATOM     19  C   UNL     1     -68.211 -69.574  39.327  0.00  0.00    +0.000 C 
BRANCH  19  20
ATOM     20  C   UNL     1     -69.423 -70.150  38.802  0.00  0.00    +0.000 C 
ATOM     21  O   UNL     1     -70.451 -70.152  39.470  0.00  0.00    +0.000 OA
ATOM     22  N   UNL     1     -69.341 -70.669  37.540  0.00  0.00    +0.000 N 
ATOM     23  H   UNL     1     -68.515 -70.624  36.954  0.00  0.00    +0.000 HD
BRANCH  22  24
ATOM     24  O   UNL     1     -70.521 -71.200  36.974  0.00  0.00    +0.000 OA
ATOM     25  H   UNL     1     -71.010 -70.393  36.701  0.00  0.00    +0.000 HD
ENDBRANCH  22  24
ENDBRANCH  19  20
ENDBRANCH   3  18
TORSDOF 6
ENDMDL
MODEL 9
REMARK VINA RESULT:      -6.9     12.369     14.484
REMARK  Name = Belinostat.pdbqt.pdb
REMARK  6 active torsions:
REMARK  status: ('A' for Active; 'I' for Inactive)
REMARK    1  A    between atoms: C_1  and  S_7
REMARK    2  A    between atoms: C_3  and  C_18
REMARK    3  A    between atoms: S_7  and  N_10
REMARK    4  A    between atoms: N_10  and  C_12
REMARK    5  A    between atoms: C_19  and  C_20
REMARK    6  A    between atoms: N_22  and  O_24
REMARK                            x       y       z     vdW  Elec       q    Type
REMARK                         _______ _______ _______ _____ _____    ______ ____
ROOT
ATOM      1  C   UNL     1     -45.477 -63.281  42.193  0.00  0.00    +0.000 A 
ATOM      2  C   UNL     1     -46.446 -62.299  42.021  0.00  0.00    +0.000 A 
ATOM      3  C   UNL     1     -46.972 -61.665  43.142  0.00  0.00    +0.000 A 
ATOM      4  C   UNL     1     -45.003 -63.621  43.456  0.00  0.00    +0.000 A 
ATOM      5  C   UNL     1     -46.519 -62.005  44.417  0.00  0.00    +0.000 A 
ATOM      6  C   UNL     1     -45.534 -62.982  44.573  0.00  0.00    +0.000 A 
ENDROOT
BRANCH   1   7
ATOM      7  S   UNL     1     -44.777 -64.058  40.783  0.00  0.00    +0.000 S 
ATOM      8  O   UNL     1     -43.929 -65.127  41.264  0.00  0.00    +0.000 OA
ATOM      9  O   UNL     1     -44.259 -63.028  39.909  0.00  0.00    +0.000 OA
BRANCH   7  10
ATOM     10  N   UNL     1     -46.093 -64.792  40.050  0.00  0.00    +0.000 N 
ATOM     11  H   UNL     1     -46.922 -64.203  39.984  0.00  0.00    +0.000 HD
BRANCH  10  12
ATOM     12  C   UNL     1     -45.985 -65.946  39.225  0.00  0.00    +0.000 A 
ATOM     13  C   UNL     1     -45.562 -65.888  37.898  0.00  0.00    +0.000 A 
ATOM     14  C   UNL     1     -45.395 -67.057  37.159  0.00  0.00    +0.000 A 
ATOM     15  C   UNL     1     -45.625 -68.293  37.755  0.00  0.00    +0.000 A 
ATOM     16  C   UNL     1     -46.012 -68.360  39.090  0.00  0.00    +0.000 A 
ATOM     17  C   UNL     1     -46.179 -67.190  39.825  0.00  0.00    +0.000 A 
ENDBRANCH  10  12
ENDBRANCH   7  10
ENDBRANCH   1   7
BRANCH   3  18
ATOM     18  C   UNL     1     -47.977 -60.665  42.986  0.00  0.00    +0.000 C 
ATOM     19  C   UNL     1     -48.822 -59.822  42.858  0.00  0.00    +0.000 C 
BRANCH  19  20
ATOM     20  C   UNL     1     -49.837 -58.810  42.704  0.00  0.00    +0.000 C 
ATOM     21  O   UNL     1     -50.867 -58.855  43.368  0.00  0.00    +0.000 OA
ATOM     22  N   UNL     1     -49.566 -57.824  41.796  0.00  0.00    +0.000 N 
ATOM     23  H   UNL     1     -48.697 -57.740  41.282  0.00  0.00    +0.000 HD
BRANCH  22  24
ATOM     24  O   UNL     1     -50.516 -56.789  41.653  0.00  0.00    +0.000 OA
ATOM     25  H   UNL     1     -50.353 -56.235  42.448  0.00  0.00    +0.000 HD
ENDBRANCH  22  24
ENDBRANCH  19  20
ENDBRANCH   3  18
TORSDOF 6
ENDMDL
