MODEL 1
REMARK VINA RESULT:      -9.3      0.000      0.000
REMARK  Name = Benzo[a]pyrene.pdbqt.pdb
REMARK  0 active torsions:
REMARK  status: ('A' for Active; 'I' for Inactive)
REMARK                            x       y       z     vdW  Elec       q    Type
REMARK                         _______ _______ _______ _____ _____    ______ ____
ROOT
ATOM      1  C   UNL     1     -63.609 -67.333  34.407  0.00  0.00    +0.000 A 
ATOM      2  C   UNL     1     -63.624 -68.028  33.177  0.00  0.00    +0.000 A 
ATOM      3  C   UNL     1     -63.148 -67.969  35.582  0.00  0.00    +0.000 A 
ATOM      4  C   UNL     1     -64.059 -65.997  34.447  0.00  0.00    +0.000 A 
ATOM      5  C   UNL     1     -63.143 -67.249  36.801  0.00  0.00    +0.000 A 
ATOM      6  C   UNL     1     -63.178 -69.363  33.115  0.00  0.00    +0.000 A 
ATOM      7  C   UNL     1     -64.085 -67.388  32.007  0.00  0.00    +0.000 A 
ATOM      8  C   UNL     1     -63.599 -65.910  36.820  0.00  0.00    +0.000 A 
ATOM      9  C   UNL     1     -64.049 -65.302  35.652  0.00  0.00    +0.000 A 
ATOM     10  C   UNL     1     -62.711 -69.302  35.483  0.00  0.00    +0.000 A 
ATOM     11  C   UNL     1     -64.512 -65.377  33.282  0.00  0.00    +0.000 A 
ATOM     12  C   UNL     1     -62.724 -69.991  34.272  0.00  0.00    +0.000 A 
ATOM     13  C   UNL     1     -64.525 -66.067  32.071  0.00  0.00    +0.000 A 
ATOM     14  C   UNL     1     -63.197 -70.041  31.897  0.00  0.00    +0.000 A 
ATOM     15  C   UNL     1     -64.096 -68.083  30.799  0.00  0.00    +0.000 A 
ATOM     16  C   UNL     1     -62.701 -67.810  38.011  0.00  0.00    +0.000 A 
ATOM     17  C   UNL     1     -63.603 -65.182  38.009  0.00  0.00    +0.000 A 
ATOM     18  C   UNL     1     -63.654 -69.405  30.744  0.00  0.00    +0.000 A 
ATOM     19  C   UNL     1     -62.708 -67.077  39.196  0.00  0.00    +0.000 A 
ATOM     20  C   UNL     1     -63.160 -65.763  39.195  0.00  0.00    +0.000 A 
ENDROOT
TORSDOF 0
ENDMDL
MODEL 2
REMARK VINA RESULT:      -8.8     18.033     19.918
REMARK  Name = Benzo[a]pyrene.pdbqt.pdb
REMARK  0 active torsions:
REMARK  status: ('A' for Active; 'I' for Inactive)
REMARK                            x       y       z     vdW  Elec       q    Type
REMARK                         _______ _______ _______ _____ _____    ______ ____
ROOT
ATOM      1  C   UNL     1     -47.176 -61.792  42.883  0.00  0.00    +0.000 A 
ATOM      2  C   UNL     1     -47.745 -61.272  44.067  0.00  0.00    +0.000 A 
ATOM      3  C   UNL     1     -46.140 -62.751  42.950  0.00  0.00    +0.000 A 
ATOM      4  C   UNL     1     -47.655 -61.341  41.635  0.00  0.00    +0.000 A 
ATOM      5  C   UNL     1     -45.587 -63.256  41.747  0.00  0.00    +0.000 A 
ATOM      6  C   UNL     1     -47.282 -61.708  45.324  0.00  0.00    +0.000 A 
ATOM      7  C   UNL     1     -48.779 -60.314  43.995  0.00  0.00    +0.000 A 
ATOM      8  C   UNL     1     -46.081 -62.791  40.506  0.00  0.00    +0.000 A 
ATOM      9  C   UNL     1     -47.102 -61.846  40.462  0.00  0.00    +0.000 A 
ATOM     10  C   UNL     1     -45.702 -63.163  44.220  0.00  0.00    +0.000 A 
ATOM     11  C   UNL     1     -48.677 -60.395  41.579  0.00  0.00    +0.000 A 
ATOM     12  C   UNL     1     -46.261 -62.653  45.391  0.00  0.00    +0.000 A 
ATOM     13  C   UNL     1     -49.236 -59.884  42.750  0.00  0.00    +0.000 A 
ATOM     14  C   UNL     1     -47.849 -61.189  46.487  0.00  0.00    +0.000 A 
ATOM     15  C   UNL     1     -49.334 -59.808  45.169  0.00  0.00    +0.000 A 
ATOM     16  C   UNL     1     -44.556 -64.210  41.728  0.00  0.00    +0.000 A 
ATOM     17  C   UNL     1     -45.552 -63.274  39.310  0.00  0.00    +0.000 A 
ATOM     18  C   UNL     1     -48.871 -60.243  46.410  0.00  0.00    +0.000 A 
ATOM     19  C   UNL     1     -44.032 -64.689  40.530  0.00  0.00    +0.000 A 
ATOM     20  C   UNL     1     -44.530 -64.220  39.320  0.00  0.00    +0.000 A 
ENDROOT
TORSDOF 0
ENDMDL
MODEL 3
REMARK VINA RESULT:      -8.8     17.788     19.875
REMARK  Name = Benzo[a]pyrene.pdbqt.pdb
REMARK  0 active torsions:
REMARK  status: ('A' for Active; 'I' for Inactive)
REMARK                            x       y       z     vdW  Elec       q    Type
REMARK                         _______ _______ _______ _____ _____    ______ ____
ROOT
ATOM      1  C   UNL     1     -47.075 -61.973  42.905  0.00  0.00    +0.000 A 
ATOM      2  C   UNL     1     -47.705 -61.319  43.986  0.00  0.00    +0.000 A 
ATOM      3  C   UNL     1     -47.474 -61.704  41.576  0.00  0.00    +0.000 A 
ATOM      4  C   UNL     1     -46.043 -62.899  43.168  0.00  0.00    +0.000 A 
ATOM      5  C   UNL     1     -46.824 -62.374  40.510  0.00  0.00    +0.000 A 
ATOM      6  C   UNL     1     -48.738 -60.392  43.745  0.00  0.00    +0.000 A 
ATOM      7  C   UNL     1     -47.303 -61.592  45.311  0.00  0.00    +0.000 A 
ATOM      8  C   UNL     1     -45.792 -63.297  40.796  0.00  0.00    +0.000 A 
ATOM      9  C   UNL     1     -45.414 -63.549  42.112  0.00  0.00    +0.000 A 
ATOM     10  C   UNL     1     -48.507 -60.773  41.372  0.00  0.00    +0.000 A 
ATOM     11  C   UNL     1     -45.656 -63.158  44.482  0.00  0.00    +0.000 A 
ATOM     12  C   UNL     1     -49.132 -60.125  42.437  0.00  0.00    +0.000 A 
ATOM     13  C   UNL     1     -46.281 -62.510  45.547  0.00  0.00    +0.000 A 
ATOM     14  C   UNL     1     -49.355 -59.751  44.819  0.00  0.00    +0.000 A 
ATOM     15  C   UNL     1     -47.933 -60.941  46.371  0.00  0.00    +0.000 A 
ATOM     16  C   UNL     1     -47.162 -62.161  39.163  0.00  0.00    +0.000 A 
ATOM     17  C   UNL     1     -45.139 -63.968  39.762  0.00  0.00    +0.000 A 
ATOM     18  C   UNL     1     -48.954 -60.024  46.127  0.00  0.00    +0.000 A 
ATOM     19  C   UNL     1     -46.506 -62.835  38.135  0.00  0.00    +0.000 A 
ATOM     20  C   UNL     1     -45.494 -63.739  38.435  0.00  0.00    +0.000 A 
ENDROOT
TORSDOF 0
ENDMDL
MODEL 4
REMARK VINA RESULT:      -8.6      0.827      1.263
REMARK  Name = Benzo[a]pyrene.pdbqt.pdb
REMARK  0 active torsions:
REMARK  status: ('A' for Active; 'I' for Inactive)
REMARK                            x       y       z     vdW  Elec       q    Type
REMARK                         _______ _______ _______ _____ _____    ______ ____
ROOT
ATOM      1  C   UNL     1     -63.445 -67.164  35.444  0.00  0.00    +0.000 A 
ATOM      2  C   UNL     1     -63.602 -67.567  34.100  0.00  0.00    +0.000 A 
ATOM      3  C   UNL     1     -62.942 -68.067  36.407  0.00  0.00    +0.000 A 
ATOM      4  C   UNL     1     -63.796 -65.848  35.813  0.00  0.00    +0.000 A 
ATOM      5  C   UNL     1     -62.794 -67.636  37.749  0.00  0.00    +0.000 A 
ATOM      6  C   UNL     1     -63.258 -68.877  33.710  0.00  0.00    +0.000 A 
ATOM      7  C   UNL     1     -64.105 -66.661  33.142  0.00  0.00    +0.000 A 
ATOM      8  C   UNL     1     -63.152 -66.313  38.097  0.00  0.00    +0.000 A 
ATOM      9  C   UNL     1     -63.646 -65.438  37.133  0.00  0.00    +0.000 A 
ATOM     10  C   UNL     1     -62.608 -69.366  35.984  0.00  0.00    +0.000 A 
ATOM     11  C   UNL     1     -64.292 -64.963  34.855  0.00  0.00    +0.000 A 
ATOM     12  C   UNL     1     -62.762 -69.768  34.658  0.00  0.00    +0.000 A 
ATOM     13  C   UNL     1     -64.445 -65.366  33.529  0.00  0.00    +0.000 A 
ATOM     14  C   UNL     1     -63.416 -69.266  32.381  0.00  0.00    +0.000 A 
ATOM     15  C   UNL     1     -64.256 -67.070  31.818  0.00  0.00    +0.000 A 
ATOM     16  C   UNL     1     -62.301 -68.473  38.764  0.00  0.00    +0.000 A 
ATOM     17  C   UNL     1     -63.015 -65.868  39.411  0.00  0.00    +0.000 A 
ATOM     18  C   UNL     1     -63.914 -68.367  31.439  0.00  0.00    +0.000 A 
ATOM     19  C   UNL     1     -62.167 -68.022  40.075  0.00  0.00    +0.000 A 
ATOM     20  C   UNL     1     -62.524 -66.718  40.399  0.00  0.00    +0.000 A 
ENDROOT
TORSDOF 0
ENDMDL
MODEL 5
REMARK VINA RESULT:      -8.6      0.787      3.058
REMARK  Name = Benzo[a]pyrene.pdbqt.pdb
REMARK  0 active torsions:
REMARK  status: ('A' for Active; 'I' for Inactive)
REMARK                            x       y       z     vdW  Elec       q    Type
REMARK                         _______ _______ _______ _____ _____    ______ ____
ROOT
ATOM      1  C   UNL     1     -63.340 -67.404  35.431  0.00  0.00    +0.000 A 
ATOM      2  C   UNL     1     -63.607 -67.542  34.051  0.00  0.00    +0.000 A 
ATOM      3  C   UNL     1     -63.589 -66.178  36.089  0.00  0.00    +0.000 A 
ATOM      4  C   UNL     1     -62.821 -68.506  36.144  0.00  0.00    +0.000 A 
ATOM      5  C   UNL     1     -63.313 -66.068  37.474  0.00  0.00    +0.000 A 
ATOM      6  C   UNL     1     -64.125 -66.454  33.320  0.00  0.00    +0.000 A 
ATOM      7  C   UNL     1     -63.356 -68.768  33.399  0.00  0.00    +0.000 A 
ATOM      8  C   UNL     1     -62.794 -67.184  38.170  0.00  0.00    +0.000 A 
ATOM      9  C   UNL     1     -62.555 -68.383  37.504  0.00  0.00    +0.000 A 
ATOM     10  C   UNL     1     -64.106 -65.114  35.329  0.00  0.00    +0.000 A 
ATOM     11  C   UNL     1     -62.579 -69.711  35.487  0.00  0.00    +0.000 A 
ATOM     12  C   UNL     1     -64.371 -65.246  33.966  0.00  0.00    +0.000 A 
ATOM     13  C   UNL     1     -62.843 -69.843  34.124  0.00  0.00    +0.000 A 
ATOM     14  C   UNL     1     -64.385 -66.599  31.957  0.00  0.00    +0.000 A 
ATOM     15  C   UNL     1     -63.623 -68.893  32.036  0.00  0.00    +0.000 A 
ATOM     16  C   UNL     1     -63.533 -64.885  38.199  0.00  0.00    +0.000 A 
ATOM     17  C   UNL     1     -62.514 -67.098  39.533  0.00  0.00    +0.000 A 
ATOM     18  C   UNL     1     -64.135 -67.813  31.318  0.00  0.00    +0.000 A 
ATOM     19  C   UNL     1     -63.252 -64.805  39.561  0.00  0.00    +0.000 A 
ATOM     20  C   UNL     1     -62.742 -65.913  40.228  0.00  0.00    +0.000 A 
ENDROOT
TORSDOF 0
ENDMDL
MODEL 6
REMARK VINA RESULT:      -7.8     17.808     18.540
REMARK  Name = Benzo[a]pyrene.pdbqt.pdb
REMARK  0 active torsions:
REMARK  status: ('A' for Active; 'I' for Inactive)
REMARK                            x       y       z     vdW  Elec       q    Type
REMARK                         _______ _______ _______ _____ _____    ______ ____
ROOT
ATOM      1  C   UNL     1     -46.409 -65.751  27.783  0.00  0.00    +0.000 A 
ATOM      2  C   UNL     1     -45.780 -65.460  26.552  0.00  0.00    +0.000 A 
ATOM      3  C   UNL     1     -46.703 -67.087  28.138  0.00  0.00    +0.000 A 
ATOM      4  C   UNL     1     -46.741 -64.690  28.653  0.00  0.00    +0.000 A 
ATOM      5  C   UNL     1     -47.336 -67.350  29.378  0.00  0.00    +0.000 A 
ATOM      6  C   UNL     1     -45.440 -66.505  25.669  0.00  0.00    +0.000 A 
ATOM      7  C   UNL     1     -45.489 -64.125  26.203  0.00  0.00    +0.000 A 
ATOM      8  C   UNL     1     -47.659 -66.273  30.235  0.00  0.00    +0.000 A 
ATOM      9  C   UNL     1     -47.361 -64.963  29.867  0.00  0.00    +0.000 A 
ATOM     10  C   UNL     1     -46.351 -68.103  27.233  0.00  0.00    +0.000 A 
ATOM     11  C   UNL     1     -46.447 -63.376  28.294  0.00  0.00    +0.000 A 
ATOM     12  C   UNL     1     -45.729 -67.821  26.017  0.00  0.00    +0.000 A 
ATOM     13  C   UNL     1     -45.825 -63.093  27.078  0.00  0.00    +0.000 A 
ATOM     14  C   UNL     1     -44.819 -66.208  24.456  0.00  0.00    +0.000 A 
ATOM     15  C   UNL     1     -44.867 -63.849  24.986  0.00  0.00    +0.000 A 
ATOM     16  C   UNL     1     -47.661 -68.649  29.803  0.00  0.00    +0.000 A 
ATOM     17  C   UNL     1     -48.282 -66.508  31.460  0.00  0.00    +0.000 A 
ATOM     18  C   UNL     1     -44.533 -64.887  24.116  0.00  0.00    +0.000 A 
ATOM     19  C   UNL     1     -48.282 -68.877  31.028  0.00  0.00    +0.000 A 
ATOM     20  C   UNL     1     -48.593 -67.806  31.857  0.00  0.00    +0.000 A 
ENDROOT
TORSDOF 0
ENDMDL
MODEL 7
REMARK VINA RESULT:      -7.8     17.885     18.766
REMARK  Name = Benzo[a]pyrene.pdbqt.pdb
REMARK  0 active torsions:
REMARK  status: ('A' for Active; 'I' for Inactive)
REMARK                            x       y       z     vdW  Elec       q    Type
REMARK                         _______ _______ _______ _____ _____    ______ ____
ROOT
ATOM      1  C   UNL     1     -46.321 -65.670  27.745  0.00  0.00    +0.000 A 
ATOM      2  C   UNL     1     -45.834 -64.625  26.929  0.00  0.00    +0.000 A 
ATOM      3  C   UNL     1     -47.004 -65.380  28.947  0.00  0.00    +0.000 A 
ATOM      4  C   UNL     1     -46.116 -67.007  27.343  0.00  0.00    +0.000 A 
ATOM      5  C   UNL     1     -47.482 -66.448  29.746  0.00  0.00    +0.000 A 
ATOM      6  C   UNL     1     -46.028 -63.282  27.311  0.00  0.00    +0.000 A 
ATOM      7  C   UNL     1     -45.153 -64.921  25.729  0.00  0.00    +0.000 A 
ATOM      8  C   UNL     1     -47.266 -67.780  29.326  0.00  0.00    +0.000 A 
ATOM      9  C   UNL     1     -46.591 -68.046  28.138  0.00  0.00    +0.000 A 
ATOM     10  C   UNL     1     -47.180 -64.030  29.297  0.00  0.00    +0.000 A 
ATOM     11  C   UNL     1     -45.441 -67.284  26.155  0.00  0.00    +0.000 A 
ATOM     12  C   UNL     1     -46.701 -62.995  28.495  0.00  0.00    +0.000 A 
ATOM     13  C   UNL     1     -44.962 -66.249  25.353  0.00  0.00    +0.000 A 
ATOM     14  C   UNL     1     -45.544 -62.257  26.499  0.00  0.00    +0.000 A 
ATOM     15  C   UNL     1     -44.676 -63.881  24.932  0.00  0.00    +0.000 A 
ATOM     16  C   UNL     1     -48.170 -66.242  30.953  0.00  0.00    +0.000 A 
ATOM     17  C   UNL     1     -47.728 -68.847  30.096  0.00  0.00    +0.000 A 
ATOM     18  C   UNL     1     -44.871 -62.555  25.315  0.00  0.00    +0.000 A 
ATOM     19  C   UNL     1     -48.628 -67.312  31.719  0.00  0.00    +0.000 A 
ATOM     20  C   UNL     1     -48.407 -68.615  31.290  0.00  0.00    +0.000 A 
ENDROOT
TORSDOF 0
ENDMDL
MODEL 8
REMARK VINA RESULT:      -7.6     29.252     31.975
REMARK  Name = Benzo[a]pyrene.pdbqt.pdb
REMARK  0 active torsions:
REMARK  status: ('A' for Active; 'I' for Inactive)
REMARK                            x       y       z     vdW  Elec       q    Type
REMARK                         _______ _______ _______ _____ _____    ______ ____
ROOT
ATOM      1  C   UNL     1     -64.736 -42.027  53.483  0.00  0.00    +0.000 A 
ATOM      2  C   UNL     1     -64.927 -42.011  52.083  0.00  0.00    +0.000 A 
ATOM      3  C   UNL     1     -63.798 -41.159  54.086  0.00  0.00    +0.000 A 
ATOM      4  C   UNL     1     -65.494 -42.921  54.269  0.00  0.00    +0.000 A 
ATOM      5  C   UNL     1     -63.627 -41.197  55.492  0.00  0.00    +0.000 A 
ATOM      6  C   UNL     1     -64.180 -41.127  51.279  0.00  0.00    +0.000 A 
ATOM      7  C   UNL     1     -65.864 -42.880  51.486  0.00  0.00    +0.000 A 
ATOM      8  C   UNL     1     -64.396 -42.099  56.262  0.00  0.00    +0.000 A 
ATOM      9  C   UNL     1     -65.315 -42.946  55.648  0.00  0.00    +0.000 A 
ATOM     10  C   UNL     1     -63.071 -40.291  53.254  0.00  0.00    +0.000 A 
ATOM     11  C   UNL     1     -66.417 -43.773  53.664  0.00  0.00    +0.000 A 
ATOM     12  C   UNL     1     -63.256 -40.272  51.872  0.00  0.00    +0.000 A 
ATOM     13  C   UNL     1     -66.602 -43.754  52.283  0.00  0.00    +0.000 A 
ATOM     14  C   UNL     1     -64.375 -41.118  49.898  0.00  0.00    +0.000 A 
ATOM     15  C   UNL     1     -66.044 -42.855  50.103  0.00  0.00    +0.000 A 
ATOM     16  C   UNL     1     -62.716 -40.367  56.167  0.00  0.00    +0.000 A 
ATOM     17  C   UNL     1     -64.245 -42.153  57.647  0.00  0.00    +0.000 A 
ATOM     18  C   UNL     1     -65.303 -41.978  49.313  0.00  0.00    +0.000 A 
ATOM     19  C   UNL     1     -62.569 -40.426  57.551  0.00  0.00    +0.000 A 
ATOM     20  C   UNL     1     -63.334 -41.319  58.291  0.00  0.00    +0.000 A 
ENDROOT
TORSDOF 0
ENDMDL
MODEL 9
REMARK VINA RESULT:      -7.6     29.264     31.943
REMARK  Name = Benzo[a]pyrene.pdbqt.pdb
REMARK  0 active torsions:
REMARK  status: ('A' for Active; 'I' for Inactive)
REMARK                            x       y       z     vdW  Elec       q    Type
REMARK                         _______ _______ _______ _____ _____    ______ ____
ROOT
ATOM      1  C   UNL     1     -64.386 -41.774  53.592  0.00  0.00    +0.000 A 
ATOM      2  C   UNL     1     -64.725 -41.939  52.230  0.00  0.00    +0.000 A 
ATOM      3  C   UNL     1     -64.969 -42.600  54.579  0.00  0.00    +0.000 A 
ATOM      4  C   UNL     1     -63.458 -40.774  53.952  0.00  0.00    +0.000 A 
ATOM      5  C   UNL     1     -64.610 -42.413  55.937  0.00  0.00    +0.000 A 
ATOM      6  C   UNL     1     -65.650 -42.932  51.849  0.00  0.00    +0.000 A 
ATOM      7  C   UNL     1     -64.140 -41.112  51.249  0.00  0.00    +0.000 A 
ATOM      8  C   UNL     1     -63.679 -41.405  56.277  0.00  0.00    +0.000 A 
ATOM      9  C   UNL     1     -63.115 -40.602  55.289  0.00  0.00    +0.000 A 
ATOM     10  C   UNL     1     -65.887 -43.580  54.163  0.00  0.00    +0.000 A 
ATOM     11  C   UNL     1     -62.888 -39.964  52.971  0.00  0.00    +0.000 A 
ATOM     12  C   UNL     1     -66.225 -43.746  52.820  0.00  0.00    +0.000 A 
ATOM     13  C   UNL     1     -63.226 -40.130  51.628  0.00  0.00    +0.000 A 
ATOM     14  C   UNL     1     -65.979 -43.088  50.503  0.00  0.00    +0.000 A 
ATOM     15  C   UNL     1     -64.483 -41.284  49.908  0.00  0.00    +0.000 A 
ATOM     16  C   UNL     1     -65.145 -43.192  56.976  0.00  0.00    +0.000 A 
ATOM     17  C   UNL     1     -63.311 -41.203  57.607  0.00  0.00    +0.000 A 
ATOM     18  C   UNL     1     -65.398 -42.267  49.536  0.00  0.00    +0.000 A 
ATOM     19  C   UNL     1     -64.774 -42.985  58.303  0.00  0.00    +0.000 A 
ATOM     20  C   UNL     1     -63.856 -41.990  58.618  0.00  0.00    +0.000 A 
ENDROOT
TORSDOF 0
ENDMDL
