MODEL 1
REMARK VINA RESULT:      -6.9      0.000      0.000
REMARK  Name = Bicalutamide.pdbqt.pdb
REMARK  8 active torsions:
REMARK  status: ('A' for Active; 'I' for Inactive)
REMARK    1  A    between atoms: C_2  and  N_13
REMARK    2  A    between atoms: C_5  and  C_9
REMARK    3  A    between atoms: C_6  and  C_8
REMARK    4  A    between atoms: C_14  and  C_17
REMARK    5  A    between atoms: C_17  and  O_19
REMARK    6  A    between atoms: C_17  and  C_21
REMARK    7  A    between atoms: C_21  and  S_22
REMARK    8  A    between atoms: S_22  and  C_25
REMARK                            x       y       z     vdW  Elec       q    Type
REMARK                         _______ _______ _______ _____ _____    ______ ____
ROOT
ATOM      1  N   UNL     1     -62.103 -67.349  41.091  0.00  0.00    +0.000 N 
ATOM      2  C   UNL     1     -63.244 -67.685  40.367  0.00  0.00    +0.000 C 
ATOM      3  O   UNL     1     -63.331 -68.650  39.600  0.00  0.00    +0.000 OA
ATOM      4  H   UNL     1     -62.200 -66.588  41.764  0.00  0.00    +0.000 HD
ENDROOT
BRANCH   1   5
ATOM      5  C   UNL     1     -60.867 -68.012  41.037  0.00  0.00    +0.000 A 
ATOM      6  C   UNL     1     -60.759 -69.239  41.690  0.00  0.00    +0.000 A 
ATOM      7  C   UNL     1     -59.757 -67.493  40.377  0.00  0.00    +0.000 A 
ATOM      8  C   UNL     1     -59.558 -69.959  41.691  0.00  0.00    +0.000 A 
ATOM      9  C   UNL     1     -58.448 -69.425  41.020  0.00  0.00    +0.000 A 
ATOM     10  C   UNL     1     -58.554 -68.195  40.368  0.00  0.00    +0.000 A 
BRANCH   8  11
ATOM     11  C   UNL     1     -59.496 -71.275  42.409  0.00  0.00    +0.000 C 
ATOM     12  F   UNL     1     -59.173 -72.317  41.594  0.00  0.00    +0.000 F 
ATOM     13  F   UNL     1     -58.569 -71.280  43.402  0.00  0.00    +0.000 F 
ATOM     14  F   UNL     1     -60.682 -71.608  42.985  0.00  0.00    +0.000 F 
ENDBRANCH   8  11
BRANCH   9  16
ATOM     15  N   UNL     1     -56.170 -70.657  40.940  0.00  0.00    +0.000 NA
ATOM     16  C   UNL     1     -57.185 -70.098  40.975  0.00  0.00    +0.000 C 
ENDBRANCH   9  16
ENDBRANCH   1   5
BRANCH   2  17
ATOM     17  C   UNL     1     -64.472 -66.703  40.548  0.00  0.00    +0.000 C 
ATOM     18  C   UNL     1     -65.081 -66.816  41.974  0.00  0.00    +0.000 C 
BRANCH  17  19
ATOM     19  O   UNL     1     -65.501 -67.028  39.627  0.00  0.00    +0.000 OA
ATOM     20  H   UNL     1     -65.565 -66.247  39.044  0.00  0.00    +0.000 HD
ENDBRANCH  17  19
BRANCH  17  21
ATOM     21  C   UNL     1     -64.018 -65.372  40.287  0.00  0.00    +0.000 C 
BRANCH  21  22
ATOM     22  S   UNL     1     -63.362 -63.782  40.166  0.00  0.00    +0.000 S 
ATOM     23  O   UNL     1     -64.600 -63.049  40.246  0.00  0.00    +0.000 OA
ATOM     24  O   UNL     1     -62.595 -64.009  38.965  0.00  0.00    +0.000 OA
BRANCH  22  25
ATOM     25  C   UNL     1     -62.344 -63.480  41.534  0.00  0.00    +0.000 A 
ATOM     26  C   UNL     1     -62.846 -63.762  42.800  0.00  0.00    +0.000 A 
ATOM     27  C   UNL     1     -62.055 -63.507  43.917  0.00  0.00    +0.000 A 
ATOM     28  C   UNL     1     -60.782 -62.969  43.745  0.00  0.00    +0.000 A 
ATOM     29  F   UNL     1     -60.022 -62.723  44.820  0.00  0.00    +0.000 F 
ATOM     30  C   UNL     1     -60.287 -62.681  42.476  0.00  0.00    +0.000 A 
ATOM     31  C   UNL     1     -61.075 -62.935  41.359  0.00  0.00    +0.000 A 
ENDBRANCH  22  25
ENDBRANCH  21  22
ENDBRANCH  17  21
ENDBRANCH   2  17
TORSDOF 8
ENDMDL
MODEL 2
REMARK VINA RESULT:      -6.6     33.001     34.530
REMARK  Name = Bicalutamide.pdbqt.pdb
REMARK  8 active torsions:
REMARK  status: ('A' for Active; 'I' for Inactive)
REMARK    1  A    between atoms: C_2  and  N_13
REMARK    2  A    between atoms: C_5  and  C_9
REMARK    3  A    between atoms: C_6  and  C_8
REMARK    4  A    between atoms: C_14  and  C_17
REMARK    5  A    between atoms: C_17  and  O_19
REMARK    6  A    between atoms: C_17  and  C_21
REMARK    7  A    between atoms: C_21  and  S_22
REMARK    8  A    between atoms: S_22  and  C_25
REMARK                            x       y       z     vdW  Elec       q    Type
REMARK                         _______ _______ _______ _____ _____    ______ ____
ROOT
ATOM      1  N   UNL     1     -40.705 -41.794  48.460  0.00  0.00    +0.000 N 
ATOM      2  C   UNL     1     -40.432 -42.582  47.345  0.00  0.00    +0.000 C 
ATOM      3  O   UNL     1     -41.193 -42.725  46.382  0.00  0.00    +0.000 OA
ATOM      4  H   UNL     1     -39.948 -41.683  49.136  0.00  0.00    +0.000 HD
ENDROOT
BRANCH   1   5
ATOM      5  C   UNL     1     -41.890 -41.077  48.693  0.00  0.00    +0.000 A 
ATOM      6  C   UNL     1     -42.330 -40.208  47.696  0.00  0.00    +0.000 A 
ATOM      7  C   UNL     1     -42.623 -41.189  49.870  0.00  0.00    +0.000 A 
ATOM      8  C   UNL     1     -43.497 -39.451  47.855  0.00  0.00    +0.000 A 
ATOM      9  C   UNL     1     -44.228 -39.575  49.046  0.00  0.00    +0.000 A 
ATOM     10  C   UNL     1     -43.786 -40.443  50.046  0.00  0.00    +0.000 A 
BRANCH   8  11
ATOM     11  C   UNL     1     -43.926 -38.531  46.750  0.00  0.00    +0.000 C 
ATOM     12  F   UNL     1     -45.156 -38.831  46.249  0.00  0.00    +0.000 F 
ATOM     13  F   UNL     1     -43.996 -37.235  47.153  0.00  0.00    +0.000 F 
ATOM     14  F   UNL     1     -43.077 -38.561  45.690  0.00  0.00    +0.000 F 
ENDBRANCH   8  11
BRANCH   9  16
ATOM     15  N   UNL     1     -46.404 -38.242  49.493  0.00  0.00    +0.000 NA
ATOM     16  C   UNL     1     -45.430 -38.836  49.285  0.00  0.00    +0.000 C 
ENDBRANCH   9  16
ENDBRANCH   1   5
BRANCH   2  17
ATOM     17  C   UNL     1     -39.053 -43.359  47.389  0.00  0.00    +0.000 C 
ATOM     18  C   UNL     1     -38.319 -43.284  46.020  0.00  0.00    +0.000 C 
BRANCH  17  19
ATOM     19  O   UNL     1     -39.270 -44.731  47.673  0.00  0.00    +0.000 OA
ATOM     20  H   UNL     1     -39.608 -45.106  46.837  0.00  0.00    +0.000 HD
ENDBRANCH  17  19
BRANCH  17  21
ATOM     21  C   UNL     1     -38.256 -42.789  48.431  0.00  0.00    +0.000 C 
BRANCH  21  22
ATOM     22  S   UNL     1     -37.119 -42.189  49.581  0.00  0.00    +0.000 S 
ATOM     23  O   UNL     1     -38.002 -41.294  50.284  0.00  0.00    +0.000 OA
ATOM     24  O   UNL     1     -36.109 -41.797  48.628  0.00  0.00    +0.000 OA
BRANCH  22  25
ATOM     25  C   UNL     1     -36.584 -43.492  50.588  0.00  0.00    +0.000 A 
ATOM     26  C   UNL     1     -35.217 -43.641  50.796  0.00  0.00    +0.000 A 
ATOM     27  C   UNL     1     -34.760 -44.694  51.583  0.00  0.00    +0.000 A 
ATOM     28  C   UNL     1     -35.679 -45.579  52.141  0.00  0.00    +0.000 A 
ATOM     29  F   UNL     1     -35.240 -46.593  52.898  0.00  0.00    +0.000 F 
ATOM     30  C   UNL     1     -37.047 -45.430  51.924  0.00  0.00    +0.000 A 
ATOM     31  C   UNL     1     -37.505 -44.378  51.138  0.00  0.00    +0.000 A 
ENDBRANCH  22  25
ENDBRANCH  21  22
ENDBRANCH  17  21
ENDBRANCH   2  17
TORSDOF 8
ENDMDL
MODEL 3
REMARK VINA RESULT:      -6.2     20.741     22.694
REMARK  Name = Bicalutamide.pdbqt.pdb
REMARK  8 active torsions:
REMARK  status: ('A' for Active; 'I' for Inactive)
REMARK    1  A    between atoms: C_2  and  N_13
REMARK    2  A    between atoms: C_5  and  C_9
REMARK    3  A    between atoms: C_6  and  C_8
REMARK    4  A    between atoms: C_14  and  C_17
REMARK    5  A    between atoms: C_17  and  O_19
REMARK    6  A    between atoms: C_17  and  C_21
REMARK    7  A    between atoms: C_21  and  S_22
REMARK    8  A    between atoms: S_22  and  C_25
REMARK                            x       y       z     vdW  Elec       q    Type
REMARK                         _______ _______ _______ _____ _____    ______ ____
ROOT
ATOM      1  N   UNL     1     -43.370 -55.473  34.555  0.00  0.00    +0.000 N 
ATOM      2  C   UNL     1     -42.119 -55.169  35.083  0.00  0.00    +0.000 C 
ATOM      3  O   UNL     1     -41.365 -55.988  35.619  0.00  0.00    +0.000 OA
ATOM      4  H   UNL     1     -43.846 -54.723  34.050  0.00  0.00    +0.000 HD
ENDROOT
BRANCH   1   5
ATOM      5  C   UNL     1     -43.994 -56.731  34.581  0.00  0.00    +0.000 A 
ATOM      6  C   UNL     1     -43.996 -57.480  33.405  0.00  0.00    +0.000 A 
ATOM      7  C   UNL     1     -44.613 -57.245  35.716  0.00  0.00    +0.000 A 
ATOM      8  C   UNL     1     -44.604 -58.739  33.346  0.00  0.00    +0.000 A 
ATOM      9  C   UNL     1     -45.223 -59.247  34.499  0.00  0.00    +0.000 A 
ATOM     10  C   UNL     1     -45.224 -58.496  35.676  0.00  0.00    +0.000 A 
BRANCH   8  11
ATOM     11  C   UNL     1     -44.577 -59.503  32.055  0.00  0.00    +0.000 C 
ATOM     12  F   UNL     1     -45.817 -59.836  31.601  0.00  0.00    +0.000 F 
ATOM     13  F   UNL     1     -43.991 -58.800  31.050  0.00  0.00    +0.000 F 
ATOM     14  F   UNL     1     -43.894 -60.674  32.159  0.00  0.00    +0.000 F 
ENDBRANCH   8  11
BRANCH   9  16
ATOM     15  N   UNL     1     -46.375 -61.567  34.542  0.00  0.00    +0.000 NA
ATOM     16  C   UNL     1     -45.866 -60.525  34.520  0.00  0.00    +0.000 C 
ENDBRANCH   9  16
ENDBRANCH   1   5
BRANCH   2  17
ATOM     17  C   UNL     1     -41.703 -53.644  35.001  0.00  0.00    +0.000 C 
ATOM     18  C   UNL     1     -40.159 -53.482  34.920  0.00  0.00    +0.000 C 
BRANCH  17  19
ATOM     19  O   UNL     1     -42.136 -52.953  36.162  0.00  0.00    +0.000 OA
ATOM     20  H   UNL     1     -42.214 -53.645  36.846  0.00  0.00    +0.000 HD
ENDBRANCH  17  19
BRANCH  17  21
ATOM     21  C   UNL     1     -42.341 -53.072  33.855  0.00  0.00    +0.000 C 
BRANCH  21  22
ATOM     22  S   UNL     1     -43.026 -52.554  32.359  0.00  0.00    +0.000 S 
ATOM     23  O   UNL     1     -43.438 -53.846  31.872  0.00  0.00    +0.000 OA
ATOM     24  O   UNL     1     -41.878 -51.809  31.900  0.00  0.00    +0.000 OA
BRANCH  22  25
ATOM     25  C   UNL     1     -44.379 -51.522  32.678  0.00  0.00    +0.000 A 
ATOM     26  C   UNL     1     -44.795 -51.375  33.997  0.00  0.00    +0.000 A 
ATOM     27  C   UNL     1     -45.895 -50.569  34.277  0.00  0.00    +0.000 A 
ATOM     28  C   UNL     1     -46.558 -49.931  33.232  0.00  0.00    +0.000 A 
ATOM     29  F   UNL     1     -47.617 -49.155  33.501  0.00  0.00    +0.000 F 
ATOM     30  C   UNL     1     -46.142 -50.086  31.912  0.00  0.00    +0.000 A 
ATOM     31  C   UNL     1     -45.044 -50.892  31.631  0.00  0.00    +0.000 A 
ENDBRANCH  22  25
ENDBRANCH  21  22
ENDBRANCH  17  21
ENDBRANCH   2  17
TORSDOF 8
ENDMDL
MODEL 4
REMARK VINA RESULT:      -6.0     16.470     18.781
REMARK  Name = Bicalutamide.pdbqt.pdb
REMARK  8 active torsions:
REMARK  status: ('A' for Active; 'I' for Inactive)
REMARK    1  A    between atoms: C_2  and  N_13
REMARK    2  A    between atoms: C_5  and  C_9
REMARK    3  A    between atoms: C_6  and  C_8
REMARK    4  A    between atoms: C_14  and  C_17
REMARK    5  A    between atoms: C_17  and  O_19
REMARK    6  A    between atoms: C_17  and  C_21
REMARK    7  A    between atoms: C_21  and  S_22
REMARK    8  A    between atoms: S_22  and  C_25
REMARK                            x       y       z     vdW  Elec       q    Type
REMARK                         _______ _______ _______ _____ _____    ______ ____
ROOT
ATOM      1  N   UNL     1     -47.794 -64.690  32.400  0.00  0.00    +0.000 N 
ATOM      2  C   UNL     1     -47.001 -65.835  32.370  0.00  0.00    +0.000 C 
ATOM      3  O   UNL     1     -45.878 -65.925  32.877  0.00  0.00    +0.000 OA
ATOM      4  H   UNL     1     -48.741 -64.784  32.030  0.00  0.00    +0.000 HD
ENDROOT
BRANCH   1   5
ATOM      5  C   UNL     1     -47.439 -63.455  32.964  0.00  0.00    +0.000 A 
ATOM      6  C   UNL     1     -47.890 -63.175  34.253  0.00  0.00    +0.000 A 
ATOM      7  C   UNL     1     -46.675 -62.506  32.290  0.00  0.00    +0.000 A 
ATOM      8  C   UNL     1     -47.587 -61.962  34.882  0.00  0.00    +0.000 A 
ATOM      9  C   UNL     1     -46.814 -61.016  34.193  0.00  0.00    +0.000 A 
ATOM     10  C   UNL     1     -46.364 -61.294  32.901  0.00  0.00    +0.000 A 
BRANCH   8  11
ATOM     11  C   UNL     1     -48.098 -61.713  36.271  0.00  0.00    +0.000 C 
ATOM     12  F   UNL     1     -48.998 -60.693  36.338  0.00  0.00    +0.000 F 
ATOM     13  F   UNL     1     -48.728 -62.798  36.793  0.00  0.00    +0.000 F 
ATOM     14  F   UNL     1     -47.104 -61.388  37.139  0.00  0.00    +0.000 F 
ENDBRANCH   8  11
BRANCH   9  16
ATOM     15  N   UNL     1     -46.172 -58.736  35.244  0.00  0.00    +0.000 NA
ATOM     16  C   UNL     1     -46.462 -59.753  34.767  0.00  0.00    +0.000 C 
ENDBRANCH   9  16
ENDBRANCH   1   5
BRANCH   2  17
ATOM     17  C   UNL     1     -47.615 -67.061  31.580  0.00  0.00    +0.000 C 
ATOM     18  C   UNL     1     -49.151 -66.903  31.396  0.00  0.00    +0.000 C 
BRANCH  17  19
ATOM     19  O   UNL     1     -47.401 -68.265  32.298  0.00  0.00    +0.000 OA
ATOM     20  H   UNL     1     -48.235 -68.415  32.783  0.00  0.00    +0.000 HD
ENDBRANCH  17  19
BRANCH  17  21
ATOM     21  C   UNL     1     -46.953 -67.151  30.315  0.00  0.00    +0.000 C 
BRANCH  21  22
ATOM     22  S   UNL     1     -46.098 -67.045  28.820  0.00  0.00    +0.000 S 
ATOM     23  O   UNL     1     -46.959 -67.898  28.039  0.00  0.00    +0.000 OA
ATOM     24  O   UNL     1     -44.804 -67.409  29.343  0.00  0.00    +0.000 OA
BRANCH  22  25
ATOM     25  C   UNL     1     -46.130 -65.408  28.260  0.00  0.00    +0.000 A 
ATOM     26  C   UNL     1     -47.022 -64.526  28.862  0.00  0.00    +0.000 A 
ATOM     27  C   UNL     1     -47.083 -63.210  28.413  0.00  0.00    +0.000 A 
ATOM     28  C   UNL     1     -46.255 -62.804  27.369  0.00  0.00    +0.000 A 
ATOM     29  F   UNL     1     -46.314 -61.537  26.937  0.00  0.00    +0.000 F 
ATOM     30  C   UNL     1     -45.369 -63.692  26.764  0.00  0.00    +0.000 A 
ATOM     31  C   UNL     1     -45.307 -65.008  27.211  0.00  0.00    +0.000 A 
ENDBRANCH  22  25
ENDBRANCH  21  22
ENDBRANCH  17  21
ENDBRANCH   2  17
TORSDOF 8
ENDMDL
MODEL 5
REMARK VINA RESULT:      -6.0     34.825     36.599
REMARK  Name = Bicalutamide.pdbqt.pdb
REMARK  8 active torsions:
REMARK  status: ('A' for Active; 'I' for Inactive)
REMARK    1  A    between atoms: C_2  and  N_13
REMARK    2  A    between atoms: C_5  and  C_9
REMARK    3  A    between atoms: C_6  and  C_8
REMARK    4  A    between atoms: C_14  and  C_17
REMARK    5  A    between atoms: C_17  and  O_19
REMARK    6  A    between atoms: C_17  and  C_21
REMARK    7  A    between atoms: C_21  and  S_22
REMARK    8  A    between atoms: S_22  and  C_25
REMARK                            x       y       z     vdW  Elec       q    Type
REMARK                         _______ _______ _______ _____ _____    ______ ____
ROOT
ATOM      1  N   UNL     1     -31.956 -62.152  64.216  0.00  0.00    +0.000 N 
ATOM      2  C   UNL     1     -32.337 -60.812  64.194  0.00  0.00    +0.000 C 
ATOM      3  O   UNL     1     -33.036 -60.296  63.317  0.00  0.00    +0.000 OA
ATOM      4  H   UNL     1     -31.462 -62.470  65.051  0.00  0.00    +0.000 HD
ENDROOT
BRANCH   1   5
ATOM      5  C   UNL     1     -32.261 -63.113  63.239  0.00  0.00    +0.000 A 
ATOM      6  C   UNL     1     -33.338 -63.965  63.480  0.00  0.00    +0.000 A 
ATOM      7  C   UNL     1     -31.533 -63.254  62.062  0.00  0.00    +0.000 A 
ATOM      8  C   UNL     1     -33.701 -64.956  62.560  0.00  0.00    +0.000 A 
ATOM      9  C   UNL     1     -32.959 -65.085  61.377  0.00  0.00    +0.000 A 
ATOM     10  C   UNL     1     -31.880 -64.234  61.135  0.00  0.00    +0.000 A 
BRANCH   8  11
ATOM     11  C   UNL     1     -34.869 -65.846  62.870  0.00  0.00    +0.000 C 
ATOM     12  F   UNL     1     -35.392 -65.635  64.109  0.00  0.00    +0.000 F 
ATOM     13  F   UNL     1     -35.898 -65.671  61.999  0.00  0.00    +0.000 F 
ATOM     14  F   UNL     1     -34.543 -67.165  62.824  0.00  0.00    +0.000 F 
ENDBRANCH   8  11
BRANCH   9  16
ATOM     15  N   UNL     1     -33.502 -66.876  59.584  0.00  0.00    +0.000 NA
ATOM     16  C   UNL     1     -33.267 -66.073  60.387  0.00  0.00    +0.000 C 
ENDBRANCH   9  16
ENDBRANCH   1   5
BRANCH   2  17
ATOM     17  C   UNL     1     -31.769 -59.929  65.378  0.00  0.00    +0.000 C 
ATOM     18  C   UNL     1     -32.107 -58.425  65.175  0.00  0.00    +0.000 C 
BRANCH  17  19
ATOM     19  O   UNL     1     -30.356 -60.036  65.438  0.00  0.00    +0.000 OA
ATOM     20  H   UNL     1     -30.102 -60.436  64.584  0.00  0.00    +0.000 HD
ENDBRANCH  17  19
BRANCH  17  21
ATOM     21  C   UNL     1     -32.324 -60.420  66.602  0.00  0.00    +0.000 C 
BRANCH  21  22
ATOM     22  S   UNL     1     -33.154 -60.859  68.049  0.00  0.00    +0.000 S 
ATOM     23  O   UNL     1     -33.372 -59.531  68.564  0.00  0.00    +0.000 OA
ATOM     24  O   UNL     1     -32.167 -61.795  68.530  0.00  0.00    +0.000 OA
BRANCH  22  25
ATOM     25  C   UNL     1     -34.641 -61.644  67.638  0.00  0.00    +0.000 A 
ATOM     26  C   UNL     1     -34.706 -62.334  66.432  0.00  0.00    +0.000 A 
ATOM     27  C   UNL     1     -35.898 -62.955  66.068  0.00  0.00    +0.000 A 
ATOM     28  C   UNL     1     -37.000 -62.868  66.914  0.00  0.00    +0.000 A 
ATOM     29  F   UNL     1     -38.147 -63.465  66.563  0.00  0.00    +0.000 F 
ATOM     30  C   UNL     1     -36.933 -62.170  68.117  0.00  0.00    +0.000 A 
ATOM     31  C   UNL     1     -35.743 -61.549  68.482  0.00  0.00    +0.000 A 
ENDBRANCH  22  25
ENDBRANCH  21  22
ENDBRANCH  17  21
ENDBRANCH   2  17
TORSDOF 8
ENDMDL
MODEL 6
REMARK VINA RESULT:      -5.9     21.057     23.044
REMARK  Name = Bicalutamide.pdbqt.pdb
REMARK  8 active torsions:
REMARK  status: ('A' for Active; 'I' for Inactive)
REMARK    1  A    between atoms: C_2  and  N_13
REMARK    2  A    between atoms: C_5  and  C_9
REMARK    3  A    between atoms: C_6  and  C_8
REMARK    4  A    between atoms: C_14  and  C_17
REMARK    5  A    between atoms: C_17  and  O_19
REMARK    6  A    between atoms: C_17  and  C_21
REMARK    7  A    between atoms: C_21  and  S_22
REMARK    8  A    between atoms: S_22  and  C_25
REMARK                            x       y       z     vdW  Elec       q    Type
REMARK                         _______ _______ _______ _____ _____    ______ ____
ROOT
ATOM      1  N   UNL     1     -41.215 -56.166  35.084  0.00  0.00    +0.000 N 
ATOM      2  C   UNL     1     -40.223 -55.201  35.245  0.00  0.00    +0.000 C 
ATOM      3  O   UNL     1     -39.097 -55.420  35.702  0.00  0.00    +0.000 OA
ATOM      4  H   UNL     1     -42.064 -55.870  34.601  0.00  0.00    +0.000 HD
ENDROOT
BRANCH   1   5
ATOM      5  C   UNL     1     -41.117 -57.518  35.451  0.00  0.00    +0.000 A 
ATOM      6  C   UNL     1     -42.221 -58.105  36.067  0.00  0.00    +0.000 A 
ATOM      7  C   UNL     1     -39.972 -58.279  35.238  0.00  0.00    +0.000 A 
ATOM      8  C   UNL     1     -42.201 -59.445  36.471  0.00  0.00    +0.000 A 
ATOM      9  C   UNL     1     -41.040 -60.202  36.249  0.00  0.00    +0.000 A 
ATOM     10  C   UNL     1     -39.933 -59.614  35.634  0.00  0.00    +0.000 A 
BRANCH   8  11
ATOM     11  C   UNL     1     -43.417 -60.028  37.129  0.00  0.00    +0.000 C 
ATOM     12  F   UNL     1     -43.727 -61.275  36.679  0.00  0.00    +0.000 F 
ATOM     13  F   UNL     1     -43.270 -60.146  38.475  0.00  0.00    +0.000 F 
ATOM     14  F   UNL     1     -44.529 -59.274  36.926  0.00  0.00    +0.000 F 
ENDBRANCH   8  11
BRANCH   9  16
ATOM     15  N   UNL     1     -40.873 -62.694  36.940  0.00  0.00    +0.000 NA
ATOM     16  C   UNL     1     -40.940 -61.578  36.632  0.00  0.00    +0.000 C 
ENDBRANCH   9  16
ENDBRANCH   1   5
BRANCH   2  17
ATOM     17  C   UNL     1     -40.640 -53.731  34.833  0.00  0.00    +0.000 C 
ATOM     18  C   UNL     1     -39.503 -53.019  34.047  0.00  0.00    +0.000 C 
BRANCH  17  19
ATOM     19  O   UNL     1     -40.901 -52.951  35.989  0.00  0.00    +0.000 OA
ATOM     20  H   UNL     1     -41.014 -52.042  35.654  0.00  0.00    +0.000 HD
ENDBRANCH  17  19
BRANCH  17  21
ATOM     21  C   UNL     1     -41.834 -53.811  34.049  0.00  0.00    +0.000 C 
BRANCH  21  22
ATOM     22  S   UNL     1     -43.139 -53.905  32.925  0.00  0.00    +0.000 S 
ATOM     23  O   UNL     1     -43.592 -55.232  33.258  0.00  0.00    +0.000 OA
ATOM     24  O   UNL     1     -42.377 -53.547  31.754  0.00  0.00    +0.000 OA
BRANCH  22  25
ATOM     25  C   UNL     1     -44.320 -52.701  33.319  0.00  0.00    +0.000 A 
ATOM     26  C   UNL     1     -45.387 -52.519  32.445  0.00  0.00    +0.000 A 
ATOM     27  C   UNL     1     -46.336 -51.541  32.728  0.00  0.00    +0.000 A 
ATOM     28  C   UNL     1     -46.197 -50.764  33.875  0.00  0.00    +0.000 A 
ATOM     29  F   UNL     1     -47.111 -49.823  34.147  0.00  0.00    +0.000 F 
ATOM     30  C   UNL     1     -45.123 -50.946  34.743  0.00  0.00    +0.000 A 
ATOM     31  C   UNL     1     -44.173 -51.921  34.462  0.00  0.00    +0.000 A 
ENDBRANCH  22  25
ENDBRANCH  21  22
ENDBRANCH  17  21
ENDBRANCH   2  17
TORSDOF 8
ENDMDL
MODEL 7
REMARK VINA RESULT:      -5.7     27.818     29.867
REMARK  Name = Bicalutamide.pdbqt.pdb
REMARK  8 active torsions:
REMARK  status: ('A' for Active; 'I' for Inactive)
REMARK    1  A    between atoms: C_2  and  N_13
REMARK    2  A    between atoms: C_5  and  C_9
REMARK    3  A    between atoms: C_6  and  C_8
REMARK    4  A    between atoms: C_14  and  C_17
REMARK    5  A    between atoms: C_17  and  O_19
REMARK    6  A    between atoms: C_17  and  C_21
REMARK    7  A    between atoms: C_21  and  S_22
REMARK    8  A    between atoms: S_22  and  C_25
REMARK                            x       y       z     vdW  Elec       q    Type
REMARK                         _______ _______ _______ _____ _____    ______ ____
ROOT
ATOM      1  N   UNL     1     -43.574 -77.052  61.721  0.00  0.00    +0.000 N 
ATOM      2  C   UNL     1     -43.181 -76.614  60.459  0.00  0.00    +0.000 C 
ATOM      3  O   UNL     1     -43.944 -76.137  59.612  0.00  0.00    +0.000 OA
ATOM      4  H   UNL     1     -42.827 -77.329  62.359  0.00  0.00    +0.000 HD
ENDROOT
BRANCH   1   5
ATOM      5  C   UNL     1     -44.887 -77.067  62.217  0.00  0.00    +0.000 A 
ATOM      6  C   UNL     1     -45.126 -76.443  63.442  0.00  0.00    +0.000 A 
ATOM      7  C   UNL     1     -45.942 -77.682  61.550  0.00  0.00    +0.000 A 
ATOM      8  C   UNL     1     -46.406 -76.422  64.009  0.00  0.00    +0.000 A 
ATOM      9  C   UNL     1     -47.461 -77.045  63.325  0.00  0.00    +0.000 A 
ATOM     10  C   UNL     1     -47.222 -77.671  62.100  0.00  0.00    +0.000 A 
BRANCH   8  11
ATOM     11  C   UNL     1     -46.608 -75.737  65.329  0.00  0.00    +0.000 C 
ATOM     12  F   UNL     1     -47.745 -74.989  65.378  0.00  0.00    +0.000 F 
ATOM     13  F   UNL     1     -46.699 -76.617  66.360  0.00  0.00    +0.000 F 
ATOM     14  F   UNL     1     -45.592 -74.887  65.633  0.00  0.00    +0.000 F 
ENDBRANCH   8  11
BRANCH   9  16
ATOM     15  N   UNL     1     -49.877 -77.099  64.256  0.00  0.00    +0.000 NA
ATOM     16  C   UNL     1     -48.797 -77.067  63.838  0.00  0.00    +0.000 C 
ENDBRANCH   9  16
ENDBRANCH   1   5
BRANCH   2  17
ATOM     17  C   UNL     1     -41.645 -76.802  60.127  0.00  0.00    +0.000 C 
ATOM     18  C   UNL     1     -41.355 -76.536  58.622  0.00  0.00    +0.000 C 
BRANCH  17  19
ATOM     19  O   UNL     1     -41.243 -78.134  60.401  0.00  0.00    +0.000 OA
ATOM     20  H   UNL     1     -40.267 -78.103  60.395  0.00  0.00    +0.000 HD
ENDBRANCH  17  19
BRANCH  17  21
ATOM     21  C   UNL     1     -40.899 -75.910  60.960  0.00  0.00    +0.000 C 
BRANCH  21  22
ATOM     22  S   UNL     1     -40.174 -74.839  62.102  0.00  0.00    +0.000 S 
ATOM     23  O   UNL     1     -40.444 -73.603  61.412  0.00  0.00    +0.000 OA
ATOM     24  O   UNL     1     -38.895 -75.504  62.166  0.00  0.00    +0.000 OA
BRANCH  22  25
ATOM     25  C   UNL     1     -41.031 -74.942  63.603  0.00  0.00    +0.000 A 
ATOM     26  C   UNL     1     -40.847 -76.077  64.386  0.00  0.00    +0.000 A 
ATOM     27  C   UNL     1     -41.542 -76.193  65.587  0.00  0.00    +0.000 A 
ATOM     28  C   UNL     1     -42.410 -75.176  65.976  0.00  0.00    +0.000 A 
ATOM     29  F   UNL     1     -43.079 -75.288  67.131  0.00  0.00    +0.000 F 
ATOM     30  C   UNL     1     -42.596 -74.045  65.185  0.00  0.00    +0.000 A 
ATOM     31  C   UNL     1     -41.903 -73.927  63.985  0.00  0.00    +0.000 A 
ENDBRANCH  22  25
ENDBRANCH  21  22
ENDBRANCH  17  21
ENDBRANCH   2  17
TORSDOF 8
ENDMDL
MODEL 8
REMARK VINA RESULT:      -5.6     33.724     35.891
REMARK  Name = Bicalutamide.pdbqt.pdb
REMARK  8 active torsions:
REMARK  status: ('A' for Active; 'I' for Inactive)
REMARK    1  A    between atoms: C_2  and  N_13
REMARK    2  A    between atoms: C_5  and  C_9
REMARK    3  A    between atoms: C_6  and  C_8
REMARK    4  A    between atoms: C_14  and  C_17
REMARK    5  A    between atoms: C_17  and  O_19
REMARK    6  A    between atoms: C_17  and  C_21
REMARK    7  A    between atoms: C_21  and  S_22
REMARK    8  A    between atoms: S_22  and  C_25
REMARK                            x       y       z     vdW  Elec       q    Type
REMARK                         _______ _______ _______ _____ _____    ______ ____
ROOT
ATOM      1  N   UNL     1     -33.691 -65.441  63.985  0.00  0.00    +0.000 N 
ATOM      2  C   UNL     1     -33.789 -66.775  63.599  0.00  0.00    +0.000 C 
ATOM      3  O   UNL     1     -34.740 -67.517  63.870  0.00  0.00    +0.000 OA
ATOM      4  H   UNL     1     -32.900 -64.916  63.608  0.00  0.00    +0.000 HD
ENDROOT
BRANCH   1   5
ATOM      5  C   UNL     1     -34.619 -64.739  64.770  0.00  0.00    +0.000 A 
ATOM      6  C   UNL     1     -34.548 -64.894  66.154  0.00  0.00    +0.000 A 
ATOM      7  C   UNL     1     -35.600 -63.915  64.228  0.00  0.00    +0.000 A 
ATOM      8  C   UNL     1     -35.442 -64.235  67.006  0.00  0.00    +0.000 A 
ATOM      9  C   UNL     1     -36.425 -63.406  66.446  0.00  0.00    +0.000 A 
ATOM     10  C   UNL     1     -36.499 -63.252  65.061  0.00  0.00    +0.000 A 
BRANCH   8  11
ATOM     11  C   UNL     1     -35.321 -64.437  68.489  0.00  0.00    +0.000 C 
ATOM     12  F   UNL     1     -35.117 -63.278  69.174  0.00  0.00    +0.000 F 
ATOM     13  F   UNL     1     -36.437 -64.995  69.027  0.00  0.00    +0.000 F 
ATOM     14  F   UNL     1     -34.283 -65.251  68.819  0.00  0.00    +0.000 F 
ENDBRANCH   8  11
BRANCH   9  16
ATOM     15  N   UNL     1     -38.156 -62.127  67.889  0.00  0.00    +0.000 NA
ATOM     16  C   UNL     1     -37.376 -62.699  67.249  0.00  0.00    +0.000 C 
ENDBRANCH   9  16
ENDBRANCH   1   5
BRANCH   2  17
ATOM     17  C   UNL     1     -32.548 -67.339  62.795  0.00  0.00    +0.000 C 
ATOM     18  C   UNL     1     -32.916 -68.639  62.025  0.00  0.00    +0.000 C 
BRANCH  17  19
ATOM     19  O   UNL     1     -31.492 -67.664  63.685  0.00  0.00    +0.000 OA
ATOM     20  H   UNL     1     -30.915 -66.877  63.681  0.00  0.00    +0.000 HD
ENDBRANCH  17  19
BRANCH  17  21
ATOM     21  C   UNL     1     -32.101 -66.319  61.897  0.00  0.00    +0.000 C 
BRANCH  21  22
ATOM     22  S   UNL     1     -31.751 -65.126  60.702  0.00  0.00    +0.000 S 
ATOM     23  O   UNL     1     -30.418 -64.794  61.136  0.00  0.00    +0.000 OA
ATOM     24  O   UNL     1     -32.930 -64.322  60.919  0.00  0.00    +0.000 OA
BRANCH  22  25
ATOM     25  C   UNL     1     -31.755 -65.867  59.137  0.00  0.00    +0.000 A 
ATOM     26  C   UNL     1     -30.547 -66.333  58.629  0.00  0.00    +0.000 A 
ATOM     27  C   UNL     1     -30.520 -66.912  57.364  0.00  0.00    +0.000 A 
ATOM     28  C   UNL     1     -31.700 -67.008  56.631  0.00  0.00    +0.000 A 
ATOM     29  F   UNL     1     -31.674 -67.566  55.413  0.00  0.00    +0.000 F 
ATOM     30  C   UNL     1     -32.906 -66.534  57.140  0.00  0.00    +0.000 A 
ATOM     31  C   UNL     1     -32.935 -65.955  58.404  0.00  0.00    +0.000 A 
ENDBRANCH  22  25
ENDBRANCH  21  22
ENDBRANCH  17  21
ENDBRANCH   2  17
TORSDOF 8
ENDMDL
MODEL 9
REMARK VINA RESULT:      -5.6     28.493     29.859
REMARK  Name = Bicalutamide.pdbqt.pdb
REMARK  8 active torsions:
REMARK  status: ('A' for Active; 'I' for Inactive)
REMARK    1  A    between atoms: C_2  and  N_13
REMARK    2  A    between atoms: C_5  and  C_9
REMARK    3  A    between atoms: C_6  and  C_8
REMARK    4  A    between atoms: C_14  and  C_17
REMARK    5  A    between atoms: C_17  and  O_19
REMARK    6  A    between atoms: C_17  and  C_21
REMARK    7  A    between atoms: C_21  and  S_22
REMARK    8  A    between atoms: S_22  and  C_25
REMARK                            x       y       z     vdW  Elec       q    Type
REMARK                         _______ _______ _______ _____ _____    ______ ____
ROOT
ATOM      1  N   UNL     1     -44.600 -77.422  62.132  0.00  0.00    +0.000 N 
ATOM      2  C   UNL     1     -43.965 -78.661  62.127  0.00  0.00    +0.000 C 
ATOM      3  O   UNL     1     -43.702 -79.320  63.138  0.00  0.00    +0.000 OA
ATOM      4  H   UNL     1     -44.847 -77.033  61.221  0.00  0.00    +0.000 HD
ENDROOT
BRANCH   1   5
ATOM      5  C   UNL     1     -45.003 -76.706  63.271  0.00  0.00    +0.000 A 
ATOM      6  C   UNL     1     -44.032 -75.979  63.958  0.00  0.00    +0.000 A 
ATOM      7  C   UNL     1     -46.313 -76.704  63.741  0.00  0.00    +0.000 A 
ATOM      8  C   UNL     1     -44.350 -75.246  65.108  0.00  0.00    +0.000 A 
ATOM      9  C   UNL     1     -45.675 -75.252  65.569  0.00  0.00    +0.000 A 
ATOM     10  C   UNL     1     -46.648 -75.981  64.883  0.00  0.00    +0.000 A 
BRANCH   8  11
ATOM     11  C   UNL     1     -43.266 -74.480  65.809  0.00  0.00    +0.000 C 
ATOM     12  F   UNL     1     -43.171 -74.776  67.135  0.00  0.00    +0.000 F 
ATOM     13  F   UNL     1     -42.037 -74.727  65.285  0.00  0.00    +0.000 F 
ATOM     14  F   UNL     1     -43.453 -73.136  65.741  0.00  0.00    +0.000 F 
ENDBRANCH   8  11
BRANCH   9  16
ATOM     15  N   UNL     1     -46.397 -73.946  67.687  0.00  0.00    +0.000 NA
ATOM     16  C   UNL     1     -46.081 -74.528  66.736  0.00  0.00    +0.000 C 
ENDBRANCH   9  16
ENDBRANCH   1   5
BRANCH   2  17
ATOM     17  C   UNL     1     -43.535 -79.193  60.700  0.00  0.00    +0.000 C 
ATOM     18  C   UNL     1     -44.647 -80.075  60.066  0.00  0.00    +0.000 C 
BRANCH  17  19
ATOM     19  O   UNL     1     -42.372 -79.998  60.805  0.00  0.00    +0.000 OA
ATOM     20  H   UNL     1     -42.710 -80.902  60.950  0.00  0.00    +0.000 HD
ENDBRANCH  17  19
BRANCH  17  21
ATOM     21  C   UNL     1     -43.243 -78.062  59.874  0.00  0.00    +0.000 C 
BRANCH  21  22
ATOM     22  S   UNL     1     -42.827 -76.595  59.066  0.00  0.00    +0.000 S 
ATOM     23  O   UNL     1     -44.110 -75.946  59.160  0.00  0.00    +0.000 OA
ATOM     24  O   UNL     1     -42.279 -77.208  57.880  0.00  0.00    +0.000 OA
BRANCH  22  25
ATOM     25  C   UNL     1     -41.614 -75.764  59.981  0.00  0.00    +0.000 A 
ATOM     26  C   UNL     1     -42.004 -75.111  61.146  0.00  0.00    +0.000 A 
ATOM     27  C   UNL     1     -41.052 -74.417  61.887  0.00  0.00    +0.000 A 
ATOM     28  C   UNL     1     -39.732 -74.386  61.445  0.00  0.00    +0.000 A 
ATOM     29  F   UNL     1     -38.815 -73.717  62.159  0.00  0.00    +0.000 F 
ATOM     30  C   UNL     1     -39.347 -75.035  60.275  0.00  0.00    +0.000 A 
ATOM     31  C   UNL     1     -40.297 -75.729  59.534  0.00  0.00    +0.000 A 
ENDBRANCH  22  25
ENDBRANCH  21  22
ENDBRANCH  17  21
ENDBRANCH   2  17
TORSDOF 8
ENDMDL
