MODEL 1
REMARK VINA RESULT:      -6.2      0.000      0.000
REMARK  Name = Bisphenol_A.pdbqt.pdb
REMARK  4 active torsions:
REMARK  status: ('A' for Active; 'I' for Inactive)
REMARK    1  A    between atoms: C_1  and  C_4
REMARK    2  A    between atoms: C_1  and  C_12
REMARK    3  A    between atoms: C_7  and  O_10
REMARK    4  A    between atoms: C_15  and  O_18
REMARK                            x       y       z     vdW  Elec       q    Type
REMARK                         _______ _______ _______ _____ _____    ______ ____
ROOT
ATOM      1  C   UNL     1     -31.568 -51.613  53.161  0.00  0.00    +0.000 C 
ATOM      2  C   UNL     1     -30.102 -51.059  53.079  0.00  0.00    +0.000 C 
ATOM      3  C   UNL     1     -31.830 -52.489  51.884  0.00  0.00    +0.000 C 
ENDROOT
BRANCH   1   4
ATOM      4  C   UNL     1     -31.659 -52.444  54.450  0.00  0.00    +0.000 A 
ATOM      5  C   UNL     1     -31.228 -51.895  55.671  0.00  0.00    +0.000 A 
ATOM      6  C   UNL     1     -31.279 -52.627  56.855  0.00  0.00    +0.000 A 
ATOM      7  C   UNL     1     -31.761 -53.930  56.829  0.00  0.00    +0.000 A 
ATOM      8  C   UNL     1     -32.187 -54.507  55.639  0.00  0.00    +0.000 A 
ATOM      9  C   UNL     1     -32.129 -53.766  54.460  0.00  0.00    +0.000 A 
BRANCH   7  10
ATOM     10  O   UNL     1     -31.829 -54.672  57.970  0.00  0.00    +0.000 OA
ATOM     11  H   UNL     1     -31.069 -55.280  57.990  0.00  0.00    +0.000 HD
ENDBRANCH   7  10
ENDBRANCH   1   4
BRANCH   1  12
ATOM     12  C   UNL     1     -32.607 -50.483  53.144  0.00  0.00    +0.000 A 
ATOM     13  C   UNL     1     -32.195 -49.153  52.942  0.00  0.00    +0.000 A 
ATOM     14  C   UNL     1     -33.109 -48.102  52.938  0.00  0.00    +0.000 A 
ATOM     15  C   UNL     1     -34.457 -48.372  53.143  0.00  0.00    +0.000 A 
ATOM     16  C   UNL     1     -34.898 -49.673  53.351  0.00  0.00    +0.000 A 
ATOM     17  C   UNL     1     -33.974 -50.716  53.356  0.00  0.00    +0.000 A 
BRANCH  15  18
ATOM     18  O   UNL     1     -35.379 -47.368  53.139  0.00  0.00    +0.000 OA
ATOM     19  H   UNL     1     -36.241 -47.737  53.400  0.00  0.00    +0.000 HD
ENDBRANCH  15  18
ENDBRANCH   1  12
TORSDOF 4
ENDMDL
MODEL 2
REMARK VINA RESULT:      -6.2      0.084      5.593
REMARK  Name = Bisphenol_A.pdbqt.pdb
REMARK  4 active torsions:
REMARK  status: ('A' for Active; 'I' for Inactive)
REMARK    1  A    between atoms: C_1  and  C_4
REMARK    2  A    between atoms: C_1  and  C_12
REMARK    3  A    between atoms: C_7  and  O_10
REMARK    4  A    between atoms: C_15  and  O_18
REMARK                            x       y       z     vdW  Elec       q    Type
REMARK                         _______ _______ _______ _____ _____    ______ ____
ROOT
ATOM      1  C   UNL     1     -31.504 -51.527  53.167  0.00  0.00    +0.000 C 
ATOM      2  C   UNL     1     -31.736 -52.404  51.886  0.00  0.00    +0.000 C 
ATOM      3  C   UNL     1     -30.049 -50.941  53.100  0.00  0.00    +0.000 C 
ENDROOT
BRANCH   1   4
ATOM      4  C   UNL     1     -32.566 -50.418  53.146  0.00  0.00    +0.000 A 
ATOM      5  C   UNL     1     -32.178 -49.079  52.957  0.00  0.00    +0.000 A 
ATOM      6  C   UNL     1     -33.113 -48.046  52.950  0.00  0.00    +0.000 A 
ATOM      7  C   UNL     1     -34.457 -48.344  53.139  0.00  0.00    +0.000 A 
ATOM      8  C   UNL     1     -34.875 -49.654  53.337  0.00  0.00    +0.000 A 
ATOM      9  C   UNL     1     -33.930 -50.679  53.344  0.00  0.00    +0.000 A 
BRANCH   7  10
ATOM     10  O   UNL     1     -35.399 -47.358  53.134  0.00  0.00    +0.000 OA
ATOM     11  H   UNL     1     -36.058 -47.562  52.448  0.00  0.00    +0.000 HD
ENDBRANCH   7  10
ENDBRANCH   1   4
BRANCH   1  12
ATOM     12  C   UNL     1     -31.587 -52.363  54.453  0.00  0.00    +0.000 A 
ATOM     13  C   UNL     1     -32.054 -53.690  54.400  0.00  0.00    +0.000 A 
ATOM     14  C   UNL     1     -32.158 -54.469  55.549  0.00  0.00    +0.000 A 
ATOM     15  C   UNL     1     -31.797 -53.924  56.775  0.00  0.00    +0.000 A 
ATOM     16  C   UNL     1     -31.338 -52.616  56.865  0.00  0.00    +0.000 A 
ATOM     17  C   UNL     1     -31.241 -51.845  55.709  0.00  0.00    +0.000 A 
BRANCH  15  18
ATOM     18  O   UNL     1     -31.881 -54.662  57.919  0.00  0.00    +0.000 OA
ATOM     19  H   UNL     1     -31.310 -55.445  57.826  0.00  0.00    +0.000 HD
ENDBRANCH  15  18
ENDBRANCH   1  12
TORSDOF 4
ENDMDL
MODEL 3
REMARK VINA RESULT:      -6.1     21.092     22.391
REMARK  Name = Bisphenol_A.pdbqt.pdb
REMARK  4 active torsions:
REMARK  status: ('A' for Active; 'I' for Inactive)
REMARK    1  A    between atoms: C_1  and  C_4
REMARK    2  A    between atoms: C_1  and  C_12
REMARK    3  A    between atoms: C_7  and  O_10
REMARK    4  A    between atoms: C_15  and  O_18
REMARK                            x       y       z     vdW  Elec       q    Type
REMARK                         _______ _______ _______ _____ _____    ______ ____
ROOT
ATOM      1  C   UNL     1     -45.356 -63.073  40.838  0.00  0.00    +0.000 C 
ATOM      2  C   UNL     1     -44.005 -62.292  40.671  0.00  0.00    +0.000 C 
ATOM      3  C   UNL     1     -46.363 -62.540  39.757  0.00  0.00    +0.000 C 
ENDROOT
BRANCH   1   4
ATOM      4  C   UNL     1     -45.038 -64.562  40.635  0.00  0.00    +0.000 A 
ATOM      5  C   UNL     1     -43.818 -65.088  41.097  0.00  0.00    +0.000 A 
ATOM      6  C   UNL     1     -43.489 -66.430  40.914  0.00  0.00    +0.000 A 
ATOM      7  C   UNL     1     -44.384 -67.264  40.255  0.00  0.00    +0.000 A 
ATOM      8  C   UNL     1     -45.594 -66.776  39.778  0.00  0.00    +0.000 A 
ATOM      9  C   UNL     1     -45.910 -65.432  39.966  0.00  0.00    +0.000 A 
BRANCH   7  10
ATOM     10  O   UNL     1     -44.096 -68.583  40.062  0.00  0.00    +0.000 OA
ATOM     11  H   UNL     1     -44.446 -69.090  40.815  0.00  0.00    +0.000 HD
ENDBRANCH   7  10
ENDBRANCH   1   4
BRANCH   1  12
ATOM     12  C   UNL     1     -45.998 -62.814  42.209  0.00  0.00    +0.000 A 
ATOM     13  C   UNL     1     -47.341 -62.403  42.290  0.00  0.00    +0.000 A 
ATOM     14  C   UNL     1     -47.949 -62.143  43.515  0.00  0.00    +0.000 A 
ATOM     15  C   UNL     1     -47.212 -62.289  44.684  0.00  0.00    +0.000 A 
ATOM     16  C   UNL     1     -45.882 -62.687  44.641  0.00  0.00    +0.000 A 
ATOM     17  C   UNL     1     -45.283 -62.941  43.409  0.00  0.00    +0.000 A 
BRANCH  15  18
ATOM     18  O   UNL     1     -47.778 -62.049  45.901  0.00  0.00    +0.000 OA
ATOM     19  H   UNL     1     -47.080 -62.079  46.579  0.00  0.00    +0.000 HD
ENDBRANCH  15  18
ENDBRANCH   1  12
TORSDOF 4
ENDMDL
MODEL 4
REMARK VINA RESULT:      -5.8      7.204     11.700
REMARK  Name = Bisphenol_A.pdbqt.pdb
REMARK  4 active torsions:
REMARK  status: ('A' for Active; 'I' for Inactive)
REMARK    1  A    between atoms: C_1  and  C_4
REMARK    2  A    between atoms: C_1  and  C_12
REMARK    3  A    between atoms: C_7  and  O_10
REMARK    4  A    between atoms: C_15  and  O_18
REMARK                            x       y       z     vdW  Elec       q    Type
REMARK                         _______ _______ _______ _____ _____    ______ ____
ROOT
ATOM      1  C   UNL     1     -36.541 -42.465  49.612  0.00  0.00    +0.000 C 
ATOM      2  C   UNL     1     -35.351 -42.122  48.647  0.00  0.00    +0.000 C 
ATOM      3  C   UNL     1     -36.684 -41.291  50.645  0.00  0.00    +0.000 C 
ENDROOT
BRANCH   1   4
ATOM      4  C   UNL     1     -37.795 -42.609  48.738  0.00  0.00    +0.000 A 
ATOM      5  C   UNL     1     -38.909 -41.782  48.966  0.00  0.00    +0.000 A 
ATOM      6  C   UNL     1     -40.070 -41.898  48.204  0.00  0.00    +0.000 A 
ATOM      7  C   UNL     1     -40.130 -42.857  47.200  0.00  0.00    +0.000 A 
ATOM      8  C   UNL     1     -39.051 -43.697  46.952  0.00  0.00    +0.000 A 
ATOM      9  C   UNL     1     -37.897 -43.572  47.723  0.00  0.00    +0.000 A 
BRANCH   7  10
ATOM     10  O   UNL     1     -41.248 -42.995  46.433  0.00  0.00    +0.000 OA
ATOM     11  H   UNL     1     -41.932 -43.444  46.959  0.00  0.00    +0.000 HD
ENDBRANCH   7  10
ENDBRANCH   1   4
BRANCH   1  12
ATOM     12  C   UNL     1     -36.268 -43.739  50.424  0.00  0.00    +0.000 A 
ATOM     13  C   UNL     1     -37.235 -44.218  51.327  0.00  0.00    +0.000 A 
ATOM     14  C   UNL     1     -37.013 -45.360  52.092  0.00  0.00    +0.000 A 
ATOM     15  C   UNL     1     -35.808 -46.040  51.963  0.00  0.00    +0.000 A 
ATOM     16  C   UNL     1     -34.828 -45.593  51.085  0.00  0.00    +0.000 A 
ATOM     17  C   UNL     1     -35.060 -44.447  50.328  0.00  0.00    +0.000 A 
BRANCH  15  18
ATOM     18  O   UNL     1     -35.560 -47.166  52.691  0.00  0.00    +0.000 OA
ATOM     19  H   UNL     1     -35.416 -47.907  52.077  0.00  0.00    +0.000 HD
ENDBRANCH  15  18
ENDBRANCH   1  12
TORSDOF 4
ENDMDL
MODEL 5
REMARK VINA RESULT:      -5.5     10.767     14.196
REMARK  Name = Bisphenol_A.pdbqt.pdb
REMARK  4 active torsions:
REMARK  status: ('A' for Active; 'I' for Inactive)
REMARK    1  A    between atoms: C_1  and  C_4
REMARK    2  A    between atoms: C_1  and  C_12
REMARK    3  A    between atoms: C_7  and  O_10
REMARK    4  A    between atoms: C_15  and  O_18
REMARK                            x       y       z     vdW  Elec       q    Type
REMARK                         _______ _______ _______ _____ _____    ______ ____
ROOT
ATOM      1  C   UNL     1     -40.292 -40.535  49.404  0.00  0.00    +0.000 C 
ATOM      2  C   UNL     1     -40.747 -39.962  48.015  0.00  0.00    +0.000 C 
ATOM      3  C   UNL     1     -39.379 -39.462  50.097  0.00  0.00    +0.000 C 
ENDROOT
BRANCH   1   4
ATOM      4  C   UNL     1     -41.570 -40.803  50.214  0.00  0.00    +0.000 A 
ATOM      5  C   UNL     1     -42.783 -41.056  49.549  0.00  0.00    +0.000 A 
ATOM      6  C   UNL     1     -43.963 -41.286  50.252  0.00  0.00    +0.000 A 
ATOM      7  C   UNL     1     -43.943 -41.259  51.641  0.00  0.00    +0.000 A 
ATOM      8  C   UNL     1     -42.764 -41.005  52.331  0.00  0.00    +0.000 A 
ATOM      9  C   UNL     1     -41.590 -40.774  51.616  0.00  0.00    +0.000 A 
BRANCH   7  10
ATOM     10  O   UNL     1     -45.079 -41.484  52.361  0.00  0.00    +0.000 OA
ATOM     11  H   UNL     1     -44.918 -41.223  53.284  0.00  0.00    +0.000 HD
ENDBRANCH   7  10
ENDBRANCH   1   4
BRANCH   1  12
ATOM     12  C   UNL     1     -39.445 -41.805  49.248  0.00  0.00    +0.000 A 
ATOM     13  C   UNL     1     -38.411 -42.078  50.162  0.00  0.00    +0.000 A 
ATOM     14  C   UNL     1     -37.612 -43.212  50.039  0.00  0.00    +0.000 A 
ATOM     15  C   UNL     1     -37.838 -44.092  48.988  0.00  0.00    +0.000 A 
ATOM     16  C   UNL     1     -38.847 -43.851  48.063  0.00  0.00    +0.000 A 
ATOM     17  C   UNL     1     -39.637 -42.712  48.194  0.00  0.00    +0.000 A 
BRANCH  15  18
ATOM     18  O   UNL     1     -37.079 -45.215  48.842  0.00  0.00    +0.000 OA
ATOM     19  H   UNL     1     -37.673 -45.979  48.742  0.00  0.00    +0.000 HD
ENDBRANCH  15  18
ENDBRANCH   1  12
TORSDOF 4
ENDMDL
MODEL 6
REMARK VINA RESULT:      -5.5     10.727     13.649
REMARK  Name = Bisphenol_A.pdbqt.pdb
REMARK  4 active torsions:
REMARK  status: ('A' for Active; 'I' for Inactive)
REMARK    1  A    between atoms: C_1  and  C_4
REMARK    2  A    between atoms: C_1  and  C_12
REMARK    3  A    between atoms: C_7  and  O_10
REMARK    4  A    between atoms: C_15  and  O_18
REMARK                            x       y       z     vdW  Elec       q    Type
REMARK                         _______ _______ _______ _____ _____    ______ ____
ROOT
ATOM      1  C   UNL     1     -40.243 -40.512  49.465  0.00  0.00    +0.000 C 
ATOM      2  C   UNL     1     -39.335 -39.470  50.211  0.00  0.00    +0.000 C 
ATOM      3  C   UNL     1     -40.641 -39.903  48.074  0.00  0.00    +0.000 C 
ENDROOT
BRANCH   1   4
ATOM      4  C   UNL     1     -39.412 -41.794  49.308  0.00  0.00    +0.000 A 
ATOM      5  C   UNL     1     -38.393 -42.088  50.233  0.00  0.00    +0.000 A 
ATOM      6  C   UNL     1     -37.609 -43.233  50.110  0.00  0.00    +0.000 A 
ATOM      7  C   UNL     1     -37.833 -44.100  49.048  0.00  0.00    +0.000 A 
ATOM      8  C   UNL     1     -38.825 -43.837  48.111  0.00  0.00    +0.000 A 
ATOM      9  C   UNL     1     -39.601 -42.687  48.243  0.00  0.00    +0.000 A 
BRANCH   7  10
ATOM     10  O   UNL     1     -37.087 -45.231  48.900  0.00  0.00    +0.000 OA
ATOM     11  H   UNL     1     -36.159 -44.974  48.758  0.00  0.00    +0.000 HD
ENDBRANCH   7  10
ENDBRANCH   1   4
BRANCH   1  12
ATOM     12  C   UNL     1     -41.551 -40.776  50.225  0.00  0.00    +0.000 A 
ATOM     13  C   UNL     1     -41.564 -40.753  51.631  0.00  0.00    +0.000 A 
ATOM     14  C   UNL     1     -42.728 -41.006  52.352  0.00  0.00    +0.000 A 
ATOM     15  C   UNL     1     -43.903 -41.291  51.666  0.00  0.00    +0.000 A 
ATOM     16  C   UNL     1     -43.925 -41.329  50.277  0.00  0.00    +0.000 A 
ATOM     17  C   UNL     1     -42.753 -41.078  49.568  0.00  0.00    +0.000 A 
BRANCH  15  18
ATOM     18  O   UNL     1     -45.062 -41.538  52.340  0.00  0.00    +0.000 OA
ATOM     19  H   UNL     1     -45.449 -42.364  52.000  0.00  0.00    +0.000 HD
ENDBRANCH  15  18
ENDBRANCH   1  12
TORSDOF 4
ENDMDL
MODEL 7
REMARK VINA RESULT:      -5.4      1.720      5.997
REMARK  Name = Bisphenol_A.pdbqt.pdb
REMARK  4 active torsions:
REMARK  status: ('A' for Active; 'I' for Inactive)
REMARK    1  A    between atoms: C_1  and  C_4
REMARK    2  A    between atoms: C_1  and  C_12
REMARK    3  A    between atoms: C_7  and  O_10
REMARK    4  A    between atoms: C_15  and  O_18
REMARK                            x       y       z     vdW  Elec       q    Type
REMARK                         _______ _______ _______ _____ _____    ______ ____
ROOT
ATOM      1  C   UNL     1     -31.387 -49.225  52.338  0.00  0.00    +0.000 C 
ATOM      2  C   UNL     1     -30.810 -49.257  50.878  0.00  0.00    +0.000 C 
ATOM      3  C   UNL     1     -30.307 -48.574  53.274  0.00  0.00    +0.000 C 
ENDROOT
BRANCH   1   4
ATOM      4  C   UNL     1     -32.675 -48.390  52.289  0.00  0.00    +0.000 A 
ATOM      5  C   UNL     1     -33.657 -48.556  53.283  0.00  0.00    +0.000 A 
ATOM      6  C   UNL     1     -34.845 -47.829  53.260  0.00  0.00    +0.000 A 
ATOM      7  C   UNL     1     -35.067 -46.924  52.229  0.00  0.00    +0.000 A 
ATOM      8  C   UNL     1     -34.123 -46.740  51.227  0.00  0.00    +0.000 A 
ATOM      9  C   UNL     1     -32.940 -47.476  51.260  0.00  0.00    +0.000 A 
BRANCH   7  10
ATOM     10  O   UNL     1     -36.217 -46.193  52.178  0.00  0.00    +0.000 OA
ATOM     11  H   UNL     1     -35.987 -45.249  52.237  0.00  0.00    +0.000 HD
ENDBRANCH   7  10
ENDBRANCH   1   4
BRANCH   1  12
ATOM     12  C   UNL     1     -31.649 -50.638  52.879  0.00  0.00    +0.000 A 
ATOM     13  C   UNL     1     -31.205 -50.992  54.166  0.00  0.00    +0.000 A 
ATOM     14  C   UNL     1     -31.411 -52.270  54.680  0.00  0.00    +0.000 A 
ATOM     15  C   UNL     1     -32.066 -53.217  53.903  0.00  0.00    +0.000 A 
ATOM     16  C   UNL     1     -32.513 -52.905  52.625  0.00  0.00    +0.000 A 
ATOM     17  C   UNL     1     -32.298 -51.624  52.120  0.00  0.00    +0.000 A 
BRANCH  15  18
ATOM     18  O   UNL     1     -32.289 -54.476  54.378  0.00  0.00    +0.000 OA
ATOM     19  H   UNL     1     -32.975 -54.897  53.829  0.00  0.00    +0.000 HD
ENDBRANCH  15  18
ENDBRANCH   1  12
TORSDOF 4
ENDMDL
MODEL 8
REMARK VINA RESULT:      -5.3     12.894     16.191
REMARK  Name = Bisphenol_A.pdbqt.pdb
REMARK  4 active torsions:
REMARK  status: ('A' for Active; 'I' for Inactive)
REMARK    1  A    between atoms: C_1  and  C_4
REMARK    2  A    between atoms: C_1  and  C_12
REMARK    3  A    between atoms: C_7  and  O_10
REMARK    4  A    between atoms: C_15  and  O_18
REMARK                            x       y       z     vdW  Elec       q    Type
REMARK                         _______ _______ _______ _____ _____    ______ ____
ROOT
ATOM      1  C   UNL     1     -33.178 -61.448  66.709  0.00  0.00    +0.000 C 
ATOM      2  C   UNL     1     -32.229 -62.132  65.662  0.00  0.00    +0.000 C 
ATOM      3  C   UNL     1     -32.642 -61.786  68.145  0.00  0.00    +0.000 C 
ENDROOT
BRANCH   1   4
ATOM      4  C   UNL     1     -33.136 -59.938  66.427  0.00  0.00    +0.000 A 
ATOM      5  C   UNL     1     -33.224 -59.469  65.104  0.00  0.00    +0.000 A 
ATOM      6  C   UNL     1     -33.171 -58.107  64.811  0.00  0.00    +0.000 A 
ATOM      7  C   UNL     1     -33.023 -57.195  65.848  0.00  0.00    +0.000 A 
ATOM      8  C   UNL     1     -32.926 -57.623  67.165  0.00  0.00    +0.000 A 
ATOM      9  C   UNL     1     -32.977 -58.988  67.445  0.00  0.00    +0.000 A 
BRANCH   7  10
ATOM     10  O   UNL     1     -32.973 -55.855  65.597  0.00  0.00    +0.000 OA
ATOM     11  H   UNL     1     -33.835 -55.465  65.821  0.00  0.00    +0.000 HD
ENDBRANCH   7  10
ENDBRANCH   1   4
BRANCH   1  12
ATOM     12  C   UNL     1     -34.609 -61.998  66.627  0.00  0.00    +0.000 A 
ATOM     13  C   UNL     1     -35.073 -62.577  65.432  0.00  0.00    +0.000 A 
ATOM     14  C   UNL     1     -36.370 -63.070  65.318  0.00  0.00    +0.000 A 
ATOM     15  C   UNL     1     -37.227 -62.984  66.409  0.00  0.00    +0.000 A 
ATOM     16  C   UNL     1     -36.805 -62.413  67.603  0.00  0.00    +0.000 A 
ATOM     17  C   UNL     1     -35.506 -61.920  67.703  0.00  0.00    +0.000 A 
BRANCH  15  18
ATOM     18  O   UNL     1     -38.502 -63.462  66.334  0.00  0.00    +0.000 OA
ATOM     19  H   UNL     1     -38.914 -63.384  67.212  0.00  0.00    +0.000 HD
ENDBRANCH  15  18
ENDBRANCH   1  12
TORSDOF 4
ENDMDL
MODEL 9
REMARK VINA RESULT:      -5.3     11.080     13.970
REMARK  Name = Bisphenol_A.pdbqt.pdb
REMARK  4 active torsions:
REMARK  status: ('A' for Active; 'I' for Inactive)
REMARK    1  A    between atoms: C_1  and  C_4
REMARK    2  A    between atoms: C_1  and  C_12
REMARK    3  A    between atoms: C_7  and  O_10
REMARK    4  A    between atoms: C_15  and  O_18
REMARK                            x       y       z     vdW  Elec       q    Type
REMARK                         _______ _______ _______ _____ _____    ______ ____
ROOT
ATOM      1  C   UNL     1     -41.005 -40.693  48.944  0.00  0.00    +0.000 C 
ATOM      2  C   UNL     1     -40.260 -39.410  48.431  0.00  0.00    +0.000 C 
ATOM      3  C   UNL     1     -42.214 -40.972  47.981  0.00  0.00    +0.000 C 
ENDROOT
BRANCH   1   4
ATOM      4  C   UNL     1     -39.984 -41.840  48.921  0.00  0.00    +0.000 A 
ATOM      5  C   UNL     1     -39.998 -42.772  47.868  0.00  0.00    +0.000 A 
ATOM      6  C   UNL     1     -39.097 -43.835  47.825  0.00  0.00    +0.000 A 
ATOM      7  C   UNL     1     -38.170 -43.980  48.849  0.00  0.00    +0.000 A 
ATOM      8  C   UNL     1     -38.133 -43.083  49.910  0.00  0.00    +0.000 A 
ATOM      9  C   UNL     1     -39.040 -42.026  49.942  0.00  0.00    +0.000 A 
BRANCH   7  10
ATOM     10  O   UNL     1     -37.272 -45.006  48.837  0.00  0.00    +0.000 OA
ATOM     11  H   UNL     1     -37.558 -45.677  49.481  0.00  0.00    +0.000 HD
ENDBRANCH   7  10
ENDBRANCH   1   4
BRANCH   1  12
ATOM     12  C   UNL     1     -41.594 -40.488  50.347  0.00  0.00    +0.000 A 
ATOM     13  C   UNL     1     -42.705 -41.246  50.761  0.00  0.00    +0.000 A 
ATOM     14  C   UNL     1     -43.274 -41.073  52.020  0.00  0.00    +0.000 A 
ATOM     15  C   UNL     1     -42.735 -40.128  52.885  0.00  0.00    +0.000 A 
ATOM     16  C   UNL     1     -41.642 -39.358  52.507  0.00  0.00    +0.000 A 
ATOM     17  C   UNL     1     -41.084 -39.538  51.244  0.00  0.00    +0.000 A 
BRANCH  15  18
ATOM     18  O   UNL     1     -43.264 -39.938  54.128  0.00  0.00    +0.000 OA
ATOM     19  H   UNL     1     -42.779 -40.497  54.760  0.00  0.00    +0.000 HD
ENDBRANCH  15  18
ENDBRANCH   1  12
TORSDOF 4
ENDMDL
