MODEL 1
REMARK VINA RESULT:      -6.2      0.000      0.000
REMARK  Name = BX795.pdbqt.pdb
REMARK  7 active torsions:
REMARK  status: ('A' for Active; 'I' for Inactive)
REMARK    1  A    between atoms: C_4  and  N_25
REMARK    2  A    between atoms: N_8  and  C_10
REMARK    3  A    between atoms: C_12  and  N_16
REMARK    4  A    between atoms: N_25  and  C_27
REMARK    5  A    between atoms: C_27  and  C_28
REMARK    6  A    between atoms: C_29  and  N_30
REMARK    7  A    between atoms: C_31  and  C_34
REMARK                            x       y       z     vdW  Elec       q    Type
REMARK                         _______ _______ _______ _____ _____    ______ ____
ROOT
ATOM      1  I   UNL     1     -45.441 -64.936  39.457  0.00  0.00    +0.000 I 
ATOM      2  N   UNL     1     -44.801 -61.175  37.420  0.00  0.00    +0.000 NA
ATOM      3  N   UNL     1     -42.986 -61.477  38.888  0.00  0.00    +0.000 NA
ATOM      4  C   UNL     1     -45.368 -62.329  37.831  0.00  0.00    +0.000 A 
ATOM      5  C   UNL     1     -43.637 -60.778  37.955  0.00  0.00    +0.000 A 
ATOM      6  C   UNL     1     -44.731 -63.132  38.756  0.00  0.00    +0.000 A 
ATOM      7  C   UNL     1     -43.546 -62.646  39.251  0.00  0.00    +0.000 A 
ATOM      8  N   UNL     1     -43.069 -59.565  37.580  0.00  0.00    +0.000 N 
ATOM      9  H   UNL     1     -42.238 -59.365  38.117  0.00  0.00    +0.000 HD
ENDROOT
BRANCH   8  10
ATOM     10  C   UNL     1     -43.357 -58.731  36.494  0.00  0.00    +0.000 A 
ATOM     11  C   UNL     1     -43.938 -59.210  35.315  0.00  0.00    +0.000 A 
ATOM     12  C   UNL     1     -44.312 -58.358  34.277  0.00  0.00    +0.000 A 
ATOM     13  C   UNL     1     -44.128 -56.987  34.425  0.00  0.00    +0.000 A 
ATOM     14  C   UNL     1     -43.562 -56.483  35.593  0.00  0.00    +0.000 A 
ATOM     15  C   UNL     1     -43.183 -57.350  36.618  0.00  0.00    +0.000 A 
BRANCH  12  16
ATOM     16  N   UNL     1     -44.819 -58.947  33.105  0.00  0.00    +0.000 N 
ATOM     17  C   UNL     1     -44.095 -59.247  31.965  0.00  0.00    +0.000 C 
ATOM     18  O   UNL     1     -42.928 -58.905  31.778  0.00  0.00    +0.000 OA
ATOM     19  N   UNL     1     -44.824 -59.959  31.012  0.00  0.00    +0.000 N 
ATOM     20  C   UNL     1     -46.108 -60.413  30.986  0.00  0.00    +0.000 A 
ATOM     21  C   UNL     1     -44.420 -60.400  29.788  0.00  0.00    +0.000 A 
ATOM     22  C   UNL     1     -46.643 -61.163  29.762  0.00  0.00    +0.000 A 
ATOM     23  C   UNL     1     -45.391 -61.154  28.872  0.00  0.00    +0.000 A 
ATOM     24  H   UNL     1     -45.821 -59.096  33.072  0.00  0.00    +0.000 HD
ENDBRANCH  12  16
ENDBRANCH   8  10
BRANCH   4  25
ATOM     25  N   UNL     1     -46.594 -62.732  37.241  0.00  0.00    +0.000 N 
ATOM     26  H   UNL     1     -47.303 -62.021  37.406  0.00  0.00    +0.000 HD
BRANCH  25  27
ATOM     27  C   UNL     1     -46.515 -63.197  35.859  0.00  0.00    +0.000 C 
BRANCH  27  28
ATOM     28  C   UNL     1     -46.487 -63.773  34.439  0.00  0.00    +0.000 C 
ATOM     29  C   UNL     1     -46.500 -64.426  33.055  0.00  0.00    +0.000 C 
BRANCH  29  30
ATOM     30  N   UNL     1     -46.557 -65.033  31.847  0.00  0.00    +0.000 N 
ATOM     31  C   UNL     1     -47.558 -65.839  31.324  0.00  0.00    +0.000 C 
ATOM     32  O   UNL     1     -48.585 -66.071  31.961  0.00  0.00    +0.000 OA
ATOM     33  H   UNL     1     -45.715 -64.913  31.296  0.00  0.00    +0.000 HD
BRANCH  31  34
ATOM     34  C   UNL     1     -47.278 -66.384  30.006  0.00  0.00    +0.000 A 
ATOM     35  S   UNL     1     -46.868 -68.047  29.833  0.00  0.00    +0.000 S 
ATOM     36  C   UNL     1     -46.692 -67.884  28.156  0.00  0.00    +0.000 A 
ATOM     37  C   UNL     1     -46.935 -66.615  27.709  0.00  0.00    +0.000 A 
ATOM     38  C   UNL     1     -47.273 -65.755  28.778  0.00  0.00    +0.000 A 
ENDBRANCH  31  34
ENDBRANCH  29  30
ENDBRANCH  27  28
ENDBRANCH  25  27
ENDBRANCH   4  25
TORSDOF 7
ENDMDL
MODEL 2
REMARK VINA RESULT:      -6.1      3.270      6.377
REMARK  Name = BX795.pdbqt.pdb
REMARK  7 active torsions:
REMARK  status: ('A' for Active; 'I' for Inactive)
REMARK    1  A    between atoms: C_4  and  N_25
REMARK    2  A    between atoms: N_8  and  C_10
REMARK    3  A    between atoms: C_12  and  N_16
REMARK    4  A    between atoms: N_25  and  C_27
REMARK    5  A    between atoms: C_27  and  C_28
REMARK    6  A    between atoms: C_29  and  N_30
REMARK    7  A    between atoms: C_31  and  C_34
REMARK                            x       y       z     vdW  Elec       q    Type
REMARK                         _______ _______ _______ _____ _____    ______ ____
ROOT
ATOM      1  I   UNL     1     -41.343 -56.787  30.831  0.00  0.00    +0.000 I 
ATOM      2  N   UNL     1     -43.918 -59.015  33.497  0.00  0.00    +0.000 NA
ATOM      3  N   UNL     1     -42.454 -57.762  34.847  0.00  0.00    +0.000 NA
ATOM      4  C   UNL     1     -43.334 -58.549  32.373  0.00  0.00    +0.000 A 
ATOM      5  C   UNL     1     -43.467 -58.618  34.696  0.00  0.00    +0.000 A 
ATOM      6  C   UNL     1     -42.312 -57.623  32.447  0.00  0.00    +0.000 A 
ATOM      7  C   UNL     1     -41.914 -57.275  33.714  0.00  0.00    +0.000 A 
ATOM      8  N   UNL     1     -44.025 -59.131  35.862  0.00  0.00    +0.000 N 
ATOM      9  H   UNL     1     -43.538 -58.800  36.681  0.00  0.00    +0.000 HD
ENDROOT
BRANCH   8  10
ATOM     10  C   UNL     1     -45.216 -59.839  36.057  0.00  0.00    +0.000 A 
ATOM     11  C   UNL     1     -45.253 -61.085  36.690  0.00  0.00    +0.000 A 
ATOM     12  C   UNL     1     -46.454 -61.738  36.968  0.00  0.00    +0.000 A 
ATOM     13  C   UNL     1     -47.654 -61.121  36.631  0.00  0.00    +0.000 A 
ATOM     14  C   UNL     1     -47.646 -59.875  36.010  0.00  0.00    +0.000 A 
ATOM     15  C   UNL     1     -46.436 -59.241  35.729  0.00  0.00    +0.000 A 
BRANCH  12  16
ATOM     16  N   UNL     1     -46.378 -63.020  37.540  0.00  0.00    +0.000 N 
ATOM     17  C   UNL     1     -46.075 -64.194  36.872  0.00  0.00    +0.000 C 
ATOM     18  O   UNL     1     -45.968 -64.285  35.650  0.00  0.00    +0.000 OA
ATOM     19  N   UNL     1     -45.928 -65.294  37.716  0.00  0.00    +0.000 N 
ATOM     20  C   UNL     1     -46.026 -65.437  39.068  0.00  0.00    +0.000 A 
ATOM     21  C   UNL     1     -45.641 -66.585  37.389  0.00  0.00    +0.000 A 
ATOM     22  C   UNL     1     -45.827 -66.809  39.721  0.00  0.00    +0.000 A 
ATOM     23  C   UNL     1     -45.542 -67.662  38.476  0.00  0.00    +0.000 A 
ATOM     24  H   UNL     1     -46.640 -63.095  38.515  0.00  0.00    +0.000 HD
ENDBRANCH  12  16
ENDBRANCH   8  10
BRANCH   4  25
ATOM     25  N   UNL     1     -43.837 -58.977  31.117  0.00  0.00    +0.000 N 
ATOM     26  H   UNL     1     -43.137 -58.816  30.395  0.00  0.00    +0.000 HD
BRANCH  25  27
ATOM     27  C   UNL     1     -44.437 -60.308  31.090  0.00  0.00    +0.000 C 
BRANCH  27  28
ATOM     28  C   UNL     1     -45.161 -61.657  31.036  0.00  0.00    +0.000 C 
ATOM     29  C   UNL     1     -45.828 -63.035  31.051  0.00  0.00    +0.000 C 
BRANCH  29  30
ATOM     30  N   UNL     1     -46.405 -64.257  31.119  0.00  0.00    +0.000 N 
ATOM     31  C   UNL     1     -47.375 -64.713  31.999  0.00  0.00    +0.000 C 
ATOM     32  O   UNL     1     -47.858 -63.971  32.853  0.00  0.00    +0.000 OA
ATOM     33  H   UNL     1     -46.012 -64.925  30.466  0.00  0.00    +0.000 HD
BRANCH  31  34
ATOM     34  C   UNL     1     -47.740 -66.110  31.836  0.00  0.00    +0.000 A 
ATOM     35  S   UNL     1     -46.745 -67.343  32.512  0.00  0.00    +0.000 S 
ATOM     36  C   UNL     1     -47.758 -68.563  31.914  0.00  0.00    +0.000 A 
ATOM     37  C   UNL     1     -48.832 -68.079  31.219  0.00  0.00    +0.000 A 
ATOM     38  C   UNL     1     -48.817 -66.667  31.178  0.00  0.00    +0.000 A 
ENDBRANCH  31  34
ENDBRANCH  29  30
ENDBRANCH  27  28
ENDBRANCH  25  27
ENDBRANCH   4  25
TORSDOF 7
ENDMDL
MODEL 3
REMARK VINA RESULT:      -5.9     20.014     22.909
REMARK  Name = BX795.pdbqt.pdb
REMARK  7 active torsions:
REMARK  status: ('A' for Active; 'I' for Inactive)
REMARK    1  A    between atoms: C_4  and  N_25
REMARK    2  A    between atoms: N_8  and  C_10
REMARK    3  A    between atoms: C_12  and  N_16
REMARK    4  A    between atoms: N_25  and  C_27
REMARK    5  A    between atoms: C_27  and  C_28
REMARK    6  A    between atoms: C_29  and  N_30
REMARK    7  A    between atoms: C_31  and  C_34
REMARK                            x       y       z     vdW  Elec       q    Type
REMARK                         _______ _______ _______ _____ _____    ______ ____
ROOT
ATOM      1  I   UNL     1     -69.005 -75.577  36.997  0.00  0.00    +0.000 I 
ATOM      2  N   UNL     1     -67.548 -72.024  38.986  0.00  0.00    +0.000 NA
ATOM      3  N   UNL     1     -69.529 -71.420  37.868  0.00  0.00    +0.000 NA
ATOM      4  C   UNL     1     -67.633 -73.289  38.523  0.00  0.00    +0.000 A 
ATOM      5  C   UNL     1     -68.486 -71.127  38.649  0.00  0.00    +0.000 A 
ATOM      6  C   UNL     1     -68.708 -73.681  37.750  0.00  0.00    +0.000 A 
ATOM      7  C   UNL     1     -69.618 -72.697  37.453  0.00  0.00    +0.000 A 
ATOM      8  N   UNL     1     -68.382 -69.807  39.075  0.00  0.00    +0.000 N 
ATOM      9  H   UNL     1     -69.115 -69.234  38.685  0.00  0.00    +0.000 HD
ENDROOT
BRANCH   8  10
ATOM     10  C   UNL     1     -67.573 -69.240  40.067  0.00  0.00    +0.000 A 
ATOM     11  C   UNL     1     -66.542 -68.343  39.770  0.00  0.00    +0.000 A 
ATOM     12  C   UNL     1     -65.806 -67.708  40.769  0.00  0.00    +0.000 A 
ATOM     13  C   UNL     1     -66.120 -67.951  42.102  0.00  0.00    +0.000 A 
ATOM     14  C   UNL     1     -67.149 -68.831  42.425  0.00  0.00    +0.000 A 
ATOM     15  C   UNL     1     -67.869 -69.467  41.413  0.00  0.00    +0.000 A 
BRANCH  12  16
ATOM     16  N   UNL     1     -64.742 -66.880  40.365  0.00  0.00    +0.000 N 
ATOM     17  C   UNL     1     -64.780 -65.502  40.254  0.00  0.00    +0.000 C 
ATOM     18  O   UNL     1     -65.803 -64.827  40.365  0.00  0.00    +0.000 OA
ATOM     19  N   UNL     1     -63.539 -64.930  39.973  0.00  0.00    +0.000 N 
ATOM     20  C   UNL     1     -62.301 -65.467  39.783  0.00  0.00    +0.000 A 
ATOM     21  C   UNL     1     -63.228 -63.616  39.794  0.00  0.00    +0.000 A 
ATOM     22  C   UNL     1     -61.105 -64.565  39.459  0.00  0.00    +0.000 A 
ATOM     23  C   UNL     1     -61.792 -63.191  39.467  0.00  0.00    +0.000 A 
ATOM     24  H   UNL     1     -63.898 -67.348  40.059  0.00  0.00    +0.000 HD
ENDBRANCH  12  16
ENDBRANCH   8  10
BRANCH   4  25
ATOM     25  N   UNL     1     -66.634 -74.221  38.903  0.00  0.00    +0.000 N 
ATOM     26  H   UNL     1     -66.405 -74.820  38.113  0.00  0.00    +0.000 HD
BRANCH  25  27
ATOM     27  C   UNL     1     -65.473 -73.667  39.594  0.00  0.00    +0.000 C 
BRANCH  27  28
ATOM     28  C   UNL     1     -64.194 -73.156  40.266  0.00  0.00    +0.000 C 
ATOM     29  C   UNL     1     -62.883 -72.625  40.851  0.00  0.00    +0.000 C 
BRANCH  29  30
ATOM     30  N   UNL     1     -61.720 -72.121  41.324  0.00  0.00    +0.000 N 
ATOM     31  C   UNL     1     -60.529 -71.898  40.648  0.00  0.00    +0.000 C 
ATOM     32  O   UNL     1     -60.427 -72.136  39.445  0.00  0.00    +0.000 OA
ATOM     33  H   UNL     1     -61.732 -71.949  42.322  0.00  0.00    +0.000 HD
BRANCH  31  34
ATOM     34  C   UNL     1     -59.443 -71.395  41.471  0.00  0.00    +0.000 A 
ATOM     35  S   UNL     1     -58.863 -69.791  41.242  0.00  0.00    +0.000 S 
ATOM     36  C   UNL     1     -57.699 -69.980  42.459  0.00  0.00    +0.000 A 
ATOM     37  C   UNL     1     -57.727 -71.216  43.044  0.00  0.00    +0.000 A 
ATOM     38  C   UNL     1     -58.733 -72.027  42.472  0.00  0.00    +0.000 A 
ENDBRANCH  31  34
ENDBRANCH  29  30
ENDBRANCH  27  28
ENDBRANCH  25  27
ENDBRANCH   4  25
TORSDOF 7
ENDMDL
MODEL 4
REMARK VINA RESULT:      -5.9     25.815     28.690
REMARK  Name = BX795.pdbqt.pdb
REMARK  7 active torsions:
REMARK  status: ('A' for Active; 'I' for Inactive)
REMARK    1  A    between atoms: C_4  and  N_25
REMARK    2  A    between atoms: N_8  and  C_10
REMARK    3  A    between atoms: C_12  and  N_16
REMARK    4  A    between atoms: N_25  and  C_27
REMARK    5  A    between atoms: C_27  and  C_28
REMARK    6  A    between atoms: C_29  and  N_30
REMARK    7  A    between atoms: C_31  and  C_34
REMARK                            x       y       z     vdW  Elec       q    Type
REMARK                         _______ _______ _______ _____ _____    ______ ____
ROOT
ATOM      1  I   UNL     1     -63.234 -37.487  34.193  0.00  0.00    +0.000 I 
ATOM      2  N   UNL     1     -64.268 -40.624  36.984  0.00  0.00    +0.000 NA
ATOM      3  N   UNL     1     -65.348 -41.129  34.954  0.00  0.00    +0.000 NA
ATOM      4  C   UNL     1     -63.753 -39.489  36.466  0.00  0.00    +0.000 A 
ATOM      5  C   UNL     1     -65.048 -41.408  36.225  0.00  0.00    +0.000 A 
ATOM      6  C   UNL     1     -63.977 -39.158  35.144  0.00  0.00    +0.000 A 
ATOM      7  C   UNL     1     -64.788 -40.017  34.444  0.00  0.00    +0.000 A 
ATOM      8  N   UNL     1     -65.629 -42.552  36.763  0.00  0.00    +0.000 N 
ATOM      9  H   UNL     1     -66.246 -42.999  36.100  0.00  0.00    +0.000 HD
ENDROOT
BRANCH   8  10
ATOM     10  C   UNL     1     -65.341 -43.239  37.948  0.00  0.00    +0.000 A 
ATOM     11  C   UNL     1     -66.322 -43.534  38.900  0.00  0.00    +0.000 A 
ATOM     12  C   UNL     1     -66.047 -44.303  40.030  0.00  0.00    +0.000 A 
ATOM     13  C   UNL     1     -64.767 -44.817  40.205  0.00  0.00    +0.000 A 
ATOM     14  C   UNL     1     -63.774 -44.548  39.266  0.00  0.00    +0.000 A 
ATOM     15  C   UNL     1     -64.063 -43.768  38.147  0.00  0.00    +0.000 A 
BRANCH  12  16
ATOM     16  N   UNL     1     -67.084 -44.479  40.963  0.00  0.00    +0.000 N 
ATOM     17  C   UNL     1     -68.060 -45.459  40.922  0.00  0.00    +0.000 C 
ATOM     18  O   UNL     1     -68.228 -46.227  39.975  0.00  0.00    +0.000 OA
ATOM     19  N   UNL     1     -68.874 -45.486  42.054  0.00  0.00    +0.000 N 
ATOM     20  C   UNL     1     -68.895 -44.733  43.190  0.00  0.00    +0.000 A 
ATOM     21  C   UNL     1     -69.923 -46.310  42.329  0.00  0.00    +0.000 A 
ATOM     22  C   UNL     1     -69.947 -44.991  44.274  0.00  0.00    +0.000 A 
ATOM     23  C   UNL     1     -70.710 -46.161  43.635  0.00  0.00    +0.000 A 
ATOM     24  H   UNL     1     -67.162 -43.778  41.690  0.00  0.00    +0.000 HD
ENDBRANCH  12  16
ENDBRANCH   8  10
BRANCH   4  25
ATOM     25  N   UNL     1     -62.922 -38.683  37.286  0.00  0.00    +0.000 N 
ATOM     26  H   UNL     1     -63.418 -38.437  38.140  0.00  0.00    +0.000 HD
BRANCH  25  27
ATOM     27  C   UNL     1     -61.564 -39.177  37.499  0.00  0.00    +0.000 C 
BRANCH  27  28
ATOM     28  C   UNL     1     -60.105 -39.617  37.656  0.00  0.00    +0.000 C 
ATOM     29  C   UNL     1     -58.647 -40.018  37.899  0.00  0.00    +0.000 C 
BRANCH  29  30
ATOM     30  N   UNL     1     -57.371 -40.375  38.168  0.00  0.00    +0.000 N 
ATOM     31  C   UNL     1     -56.554 -41.266  37.487  0.00  0.00    +0.000 C 
ATOM     32  O   UNL     1     -56.947 -41.839  36.472  0.00  0.00    +0.000 OA
ATOM     33  H   UNL     1     -57.009 -39.966  39.022  0.00  0.00    +0.000 HD
BRANCH  31  34
ATOM     34  C   UNL     1     -55.242 -41.467  38.078  0.00  0.00    +0.000 A 
ATOM     35  S   UNL     1     -54.883 -40.799  39.623  0.00  0.00    +0.000 S 
ATOM     36  C   UNL     1     -53.304 -41.411  39.581  0.00  0.00    +0.000 A 
ATOM     37  C   UNL     1     -53.027 -42.111  38.440  0.00  0.00    +0.000 A 
ATOM     38  C   UNL     1     -54.146 -42.141  37.578  0.00  0.00    +0.000 A 
ENDBRANCH  31  34
ENDBRANCH  29  30
ENDBRANCH  27  28
ENDBRANCH  25  27
ENDBRANCH   4  25
TORSDOF 7
ENDMDL
MODEL 5
REMARK VINA RESULT:      -5.8     27.023     30.681
REMARK  Name = BX795.pdbqt.pdb
REMARK  7 active torsions:
REMARK  status: ('A' for Active; 'I' for Inactive)
REMARK    1  A    between atoms: C_4  and  N_25
REMARK    2  A    between atoms: N_8  and  C_10
REMARK    3  A    between atoms: C_12  and  N_16
REMARK    4  A    between atoms: N_25  and  C_27
REMARK    5  A    between atoms: C_27  and  C_28
REMARK    6  A    between atoms: C_29  and  N_30
REMARK    7  A    between atoms: C_31  and  C_34
REMARK                            x       y       z     vdW  Elec       q    Type
REMARK                         _______ _______ _______ _____ _____    ______ ____
ROOT
ATOM      1  I   UNL     1     -58.272 -75.465  48.144  0.00  0.00    +0.000 I 
ATOM      2  N   UNL     1     -59.611 -75.133  52.243  0.00  0.00    +0.000 NA
ATOM      3  N   UNL     1     -57.281 -74.801  52.254  0.00  0.00    +0.000 NA
ATOM      4  C   UNL     1     -59.609 -75.335  50.909  0.00  0.00    +0.000 A 
ATOM      5  C   UNL     1     -58.458 -74.877  52.879  0.00  0.00    +0.000 A 
ATOM      6  C   UNL     1     -58.439 -75.225  50.185  0.00  0.00    +0.000 A 
ATOM      7  C   UNL     1     -57.308 -74.962  50.918  0.00  0.00    +0.000 A 
ATOM      8  N   UNL     1     -58.438 -74.720  54.261  0.00  0.00    +0.000 N 
ATOM      9  H   UNL     1     -57.497 -74.607  54.606  0.00  0.00    +0.000 HD
ENDROOT
BRANCH   8  10
ATOM     10  C   UNL     1     -59.490 -74.508  55.161  0.00  0.00    +0.000 A 
ATOM     11  C   UNL     1     -60.434 -75.496  55.455  0.00  0.00    +0.000 A 
ATOM     12  C   UNL     1     -61.419 -75.312  56.424  0.00  0.00    +0.000 A 
ATOM     13  C   UNL     1     -61.449 -74.121  57.142  0.00  0.00    +0.000 A 
ATOM     14  C   UNL     1     -60.513 -73.125  56.877  0.00  0.00    +0.000 A 
ATOM     15  C   UNL     1     -59.541 -73.321  55.896  0.00  0.00    +0.000 A 
BRANCH  12  16
ATOM     16  N   UNL     1     -62.366 -76.338  56.591  0.00  0.00    +0.000 N 
ATOM     17  C   UNL     1     -63.654 -76.348  56.087  0.00  0.00    +0.000 C 
ATOM     18  O   UNL     1     -64.188 -75.385  55.538  0.00  0.00    +0.000 OA
ATOM     19  N   UNL     1     -64.322 -77.556  56.284  0.00  0.00    +0.000 N 
ATOM     20  C   UNL     1     -63.952 -78.726  56.878  0.00  0.00    +0.000 A 
ATOM     21  C   UNL     1     -65.591 -77.896  55.923  0.00  0.00    +0.000 A 
ATOM     22  C   UNL     1     -64.935 -79.899  56.962  0.00  0.00    +0.000 A 
ATOM     23  C   UNL     1     -66.151 -79.284  56.254  0.00  0.00    +0.000 A 
ATOM     24  H   UNL     1     -62.099 -77.105  57.197  0.00  0.00    +0.000 HD
ENDBRANCH  12  16
ENDBRANCH   8  10
BRANCH   4  25
ATOM     25  N   UNL     1     -60.843 -75.594  50.258  0.00  0.00    +0.000 N 
ATOM     26  H   UNL     1     -60.846 -76.544  49.893  0.00  0.00    +0.000 HD
BRANCH  25  27
ATOM     27  C   UNL     1     -62.046 -75.232  51.004  0.00  0.00    +0.000 C 
BRANCH  27  28
ATOM     28  C   UNL     1     -63.364 -74.918  51.720  0.00  0.00    +0.000 C 
ATOM     29  C   UNL     1     -64.665 -74.513  52.417  0.00  0.00    +0.000 C 
BRANCH  29  30
ATOM     30  N   UNL     1     -65.818 -74.111  52.999  0.00  0.00    +0.000 N 
ATOM     31  C   UNL     1     -66.607 -73.010  52.698  0.00  0.00    +0.000 C 
ATOM     32  O   UNL     1     -66.314 -72.252  51.775  0.00  0.00    +0.000 OA
ATOM     33  H   UNL     1     -66.084 -74.675  53.798  0.00  0.00    +0.000 HD
BRANCH  31  34
ATOM     34  C   UNL     1     -67.762 -72.831  53.561  0.00  0.00    +0.000 A 
ATOM     35  S   UNL     1     -69.345 -73.117  52.949  0.00  0.00    +0.000 S 
ATOM     36  C   UNL     1     -70.052 -72.704  54.432  0.00  0.00    +0.000 A 
ATOM     37  C   UNL     1     -69.137 -72.357  55.387  0.00  0.00    +0.000 A 
ATOM     38  C   UNL     1     -67.820 -72.432  54.881  0.00  0.00    +0.000 A 
ENDBRANCH  31  34
ENDBRANCH  29  30
ENDBRANCH  27  28
ENDBRANCH  25  27
ENDBRANCH   4  25
TORSDOF 7
ENDMDL
MODEL 6
REMARK VINA RESULT:      -5.7     25.997     30.982
REMARK  Name = BX795.pdbqt.pdb
REMARK  7 active torsions:
REMARK  status: ('A' for Active; 'I' for Inactive)
REMARK    1  A    between atoms: C_4  and  N_25
REMARK    2  A    between atoms: N_8  and  C_10
REMARK    3  A    between atoms: C_12  and  N_16
REMARK    4  A    between atoms: N_25  and  C_27
REMARK    5  A    between atoms: C_27  and  C_28
REMARK    6  A    between atoms: C_29  and  N_30
REMARK    7  A    between atoms: C_31  and  C_34
REMARK                            x       y       z     vdW  Elec       q    Type
REMARK                         _______ _______ _______ _____ _____    ______ ____
ROOT
ATOM      1  I   UNL     1     -25.900 -62.447  59.179  0.00  0.00    +0.000 I 
ATOM      2  N   UNL     1     -29.464 -63.639  61.318  0.00  0.00    +0.000 NA
ATOM      3  N   UNL     1     -29.177 -61.333  61.695  0.00  0.00    +0.000 NA
ATOM      4  C   UNL     1     -28.338 -63.691  60.575  0.00  0.00    +0.000 A 
ATOM      5  C   UNL     1     -29.851 -62.474  61.858  0.00  0.00    +0.000 A 
ATOM      6  C   UNL     1     -27.613 -62.544  60.320  0.00  0.00    +0.000 A 
ATOM      7  C   UNL     1     -28.083 -61.399  60.915  0.00  0.00    +0.000 A 
ATOM      8  N   UNL     1     -30.980 -62.417  62.670  0.00  0.00    +0.000 N 
ATOM      9  H   UNL     1     -31.105 -61.496  63.063  0.00  0.00    +0.000 HD
ENDROOT
BRANCH   8  10
ATOM     10  C   UNL     1     -32.012 -63.345  62.847  0.00  0.00    +0.000 A 
ATOM     11  C   UNL     1     -33.040 -63.155  63.775  0.00  0.00    +0.000 A 
ATOM     12  C   UNL     1     -34.117 -64.035  63.876  0.00  0.00    +0.000 A 
ATOM     13  C   UNL     1     -34.188 -65.121  63.010  0.00  0.00    +0.000 A 
ATOM     14  C   UNL     1     -33.184 -65.327  62.068  0.00  0.00    +0.000 A 
ATOM     15  C   UNL     1     -32.108 -64.443  61.988  0.00  0.00    +0.000 A 
BRANCH  12  16
ATOM     16  N   UNL     1     -35.059 -63.795  64.893  0.00  0.00    +0.000 N 
ATOM     17  C   UNL     1     -34.946 -64.184  66.216  0.00  0.00    +0.000 C 
ATOM     18  O   UNL     1     -34.059 -64.919  66.647  0.00  0.00    +0.000 OA
ATOM     19  N   UNL     1     -35.961 -63.685  67.032  0.00  0.00    +0.000 N 
ATOM     20  C   UNL     1     -37.040 -62.892  66.779  0.00  0.00    +0.000 A 
ATOM     21  C   UNL     1     -36.152 -63.880  68.367  0.00  0.00    +0.000 A 
ATOM     22  C   UNL     1     -38.013 -62.522  67.904  0.00  0.00    +0.000 A 
ATOM     23  C   UNL     1     -37.355 -63.254  69.082  0.00  0.00    +0.000 A 
ATOM     24  H   UNL     1     -35.929 -63.361  64.609  0.00  0.00    +0.000 HD
ENDBRANCH  12  16
ENDBRANCH   8  10
BRANCH   4  25
ATOM     25  N   UNL     1     -27.956 -64.933  60.006  0.00  0.00    +0.000 N 
ATOM     26  H   UNL     1     -27.706 -65.587  60.746  0.00  0.00    +0.000 HD
BRANCH  25  27
ATOM     27  C   UNL     1     -28.861 -65.479  58.999  0.00  0.00    +0.000 C 
BRANCH  27  28
ATOM     28  C   UNL     1     -29.732 -66.039  57.869  0.00  0.00    +0.000 C 
ATOM     29  C   UNL     1     -30.634 -66.511  56.726  0.00  0.00    +0.000 C 
BRANCH  29  30
ATOM     30  N   UNL     1     -31.426 -66.876  55.692  0.00  0.00    +0.000 N 
ATOM     31  C   UNL     1     -32.525 -67.724  55.695  0.00  0.00    +0.000 C 
ATOM     32  O   UNL     1     -32.926 -68.241  56.737  0.00  0.00    +0.000 OA
ATOM     33  H   UNL     1     -31.115 -66.515  54.798  0.00  0.00    +0.000 HD
BRANCH  31  34
ATOM     34  C   UNL     1     -33.125 -67.953  54.392  0.00  0.00    +0.000 A 
ATOM     35  S   UNL     1     -34.569 -68.880  54.261  0.00  0.00    +0.000 S 
ATOM     36  C   UNL     1     -34.590 -68.709  52.575  0.00  0.00    +0.000 A 
ATOM     37  C   UNL     1     -33.545 -67.970  52.095  0.00  0.00    +0.000 A 
ATOM     38  C   UNL     1     -32.704 -67.537  53.145  0.00  0.00    +0.000 A 
ENDBRANCH  31  34
ENDBRANCH  29  30
ENDBRANCH  27  28
ENDBRANCH  25  27
ENDBRANCH   4  25
TORSDOF 7
ENDMDL
MODEL 7
REMARK VINA RESULT:      -5.6     26.508     30.246
REMARK  Name = BX795.pdbqt.pdb
REMARK  7 active torsions:
REMARK  status: ('A' for Active; 'I' for Inactive)
REMARK    1  A    between atoms: C_4  and  N_25
REMARK    2  A    between atoms: N_8  and  C_10
REMARK    3  A    between atoms: C_12  and  N_16
REMARK    4  A    between atoms: N_25  and  C_27
REMARK    5  A    between atoms: C_27  and  C_28
REMARK    6  A    between atoms: C_29  and  N_30
REMARK    7  A    between atoms: C_31  and  C_34
REMARK                            x       y       z     vdW  Elec       q    Type
REMARK                         _______ _______ _______ _____ _____    ______ ____
ROOT
ATOM      1  I   UNL     1     -25.464 -59.184  54.732  0.00  0.00    +0.000 I 
ATOM      2  N   UNL     1     -27.922 -56.074  56.460  0.00  0.00    +0.000 NA
ATOM      3  N   UNL     1     -27.449 -57.608  58.181  0.00  0.00    +0.000 NA
ATOM      4  C   UNL     1     -27.236 -56.815  55.565  0.00  0.00    +0.000 A 
ATOM      5  C   UNL     1     -28.015 -56.485  57.733  0.00  0.00    +0.000 A 
ATOM      6  C   UNL     1     -26.582 -57.964  55.962  0.00  0.00    +0.000 A 
ATOM      7  C   UNL     1     -26.733 -58.309  57.283  0.00  0.00    +0.000 A 
ATOM      8  N   UNL     1     -28.763 -55.758  58.653  0.00  0.00    +0.000 N 
ATOM      9  H   UNL     1     -28.803 -56.224  59.547  0.00  0.00    +0.000 HD
ENDROOT
BRANCH   8  10
ATOM     10  C   UNL     1     -29.269 -54.455  58.577  0.00  0.00    +0.000 A 
ATOM     11  C   UNL     1     -28.469 -53.327  58.784  0.00  0.00    +0.000 A 
ATOM     12  C   UNL     1     -28.958 -52.033  58.609  0.00  0.00    +0.000 A 
ATOM     13  C   UNL     1     -30.272 -51.855  58.191  0.00  0.00    +0.000 A 
ATOM     14  C   UNL     1     -31.087 -52.961  57.967  0.00  0.00    +0.000 A 
ATOM     15  C   UNL     1     -30.586 -54.249  58.157  0.00  0.00    +0.000 A 
BRANCH  12  16
ATOM     16  N   UNL     1     -28.093 -50.966  58.914  0.00  0.00    +0.000 N 
ATOM     17  C   UNL     1     -27.669 -49.985  58.036  0.00  0.00    +0.000 C 
ATOM     18  O   UNL     1     -27.888 -49.999  56.826  0.00  0.00    +0.000 OA
ATOM     19  N   UNL     1     -26.931 -48.970  58.646  0.00  0.00    +0.000 N 
ATOM     20  C   UNL     1     -26.547 -48.761  59.937  0.00  0.00    +0.000 A 
ATOM     21  C   UNL     1     -26.364 -47.870  58.077  0.00  0.00    +0.000 A 
ATOM     22  C   UNL     1     -25.703 -47.537  60.307  0.00  0.00    +0.000 A 
ATOM     23  C   UNL     1     -25.567 -46.875  58.928  0.00  0.00    +0.000 A 
ATOM     24  H   UNL     1     -27.690 -50.963  59.844  0.00  0.00    +0.000 HD
ENDBRANCH  12  16
ENDBRANCH   8  10
BRANCH   4  25
ATOM     25  N   UNL     1     -27.144 -56.353  54.227  0.00  0.00    +0.000 N 
ATOM     26  H   UNL     1     -27.152 -57.146  53.589  0.00  0.00    +0.000 HD
BRANCH  25  27
ATOM     27  C   UNL     1     -28.058 -55.275  53.860  0.00  0.00    +0.000 C 
BRANCH  27  28
ATOM     28  C   UNL     1     -28.930 -54.079  53.461  0.00  0.00    +0.000 C 
ATOM     29  C   UNL     1     -29.799 -52.858  53.153  0.00  0.00    +0.000 C 
BRANCH  29  30
ATOM     30  N   UNL     1     -30.543 -51.752  52.923  0.00  0.00    +0.000 N 
ATOM     31  C   UNL     1     -30.970 -50.787  53.825  0.00  0.00    +0.000 C 
ATOM     32  O   UNL     1     -30.658 -50.846  55.013  0.00  0.00    +0.000 OA
ATOM     33  H   UNL     1     -30.868 -51.675  51.966  0.00  0.00    +0.000 HD
BRANCH  31  34
ATOM     34  C   UNL     1     -31.811 -49.747  53.256  0.00  0.00    +0.000 A 
ATOM     35  S   UNL     1     -33.464 -50.075  52.906  0.00  0.00    +0.000 S 
ATOM     36  C   UNL     1     -33.704 -48.507  52.310  0.00  0.00    +0.000 A 
ATOM     37  C   UNL     1     -32.580 -47.731  52.365  0.00  0.00    +0.000 A 
ATOM     38  C   UNL     1     -31.493 -48.450  52.911  0.00  0.00    +0.000 A 
ENDBRANCH  31  34
ENDBRANCH  29  30
ENDBRANCH  27  28
ENDBRANCH  25  27
ENDBRANCH   4  25
TORSDOF 7
ENDMDL
MODEL 8
REMARK VINA RESULT:      -5.5     31.404     33.056
REMARK  Name = BX795.pdbqt.pdb
REMARK  7 active torsions:
REMARK  status: ('A' for Active; 'I' for Inactive)
REMARK    1  A    between atoms: C_4  and  N_25
REMARK    2  A    between atoms: N_8  and  C_10
REMARK    3  A    between atoms: C_12  and  N_16
REMARK    4  A    between atoms: N_25  and  C_27
REMARK    5  A    between atoms: C_27  and  C_28
REMARK    6  A    between atoms: C_29  and  N_30
REMARK    7  A    between atoms: C_31  and  C_34
REMARK                            x       y       z     vdW  Elec       q    Type
REMARK                         _______ _______ _______ _____ _____    ______ ____
ROOT
ATOM      1  I   UNL     1     -79.108 -49.054  40.031  0.00  0.00    +0.000 I 
ATOM      2  N   UNL     1     -77.538 -52.693  41.762  0.00  0.00    +0.000 NA
ATOM      3  N   UNL     1     -76.368 -50.905  42.749  0.00  0.00    +0.000 NA
ATOM      4  C   UNL     1     -78.248 -51.845  40.989  0.00  0.00    +0.000 A 
ATOM      5  C   UNL     1     -76.621 -52.208  42.613  0.00  0.00    +0.000 A 
ATOM      6  C   UNL     1     -78.079 -50.480  41.107  0.00  0.00    +0.000 A 
ATOM      7  C   UNL     1     -77.119 -50.074  42.001  0.00  0.00    +0.000 A 
ATOM      8  N   UNL     1     -75.845 -53.074  43.376  0.00  0.00    +0.000 N 
ATOM      9  H   UNL     1     -75.152 -52.573  43.912  0.00  0.00    +0.000 HD
ENDROOT
BRANCH   8  10
ATOM     10  C   UNL     1     -76.011 -54.438  43.644  0.00  0.00    +0.000 A 
ATOM     11  C   UNL     1     -74.929 -55.294  43.868  0.00  0.00    +0.000 A 
ATOM     12  C   UNL     1     -75.107 -56.629  44.231  0.00  0.00    +0.000 A 
ATOM     13  C   UNL     1     -76.397 -57.119  44.402  0.00  0.00    +0.000 A 
ATOM     14  C   UNL     1     -77.492 -56.285  44.195  0.00  0.00    +0.000 A 
ATOM     15  C   UNL     1     -77.297 -54.955  43.822  0.00  0.00    +0.000 A 
BRANCH  12  16
ATOM     16  N   UNL     1     -73.954 -57.425  44.360  0.00  0.00    +0.000 N 
ATOM     17  C   UNL     1     -73.440 -57.927  45.543  0.00  0.00    +0.000 C 
ATOM     18  O   UNL     1     -73.854 -57.623  46.660  0.00  0.00    +0.000 OA
ATOM     19  N   UNL     1     -72.371 -58.805  45.359  0.00  0.00    +0.000 N 
ATOM     20  C   UNL     1     -71.736 -59.259  44.242  0.00  0.00    +0.000 A 
ATOM     21  C   UNL     1     -71.639 -59.463  46.300  0.00  0.00    +0.000 A 
ATOM     22  C   UNL     1     -70.551 -60.224  44.361  0.00  0.00    +0.000 A 
ATOM     23  C   UNL     1     -70.478 -60.375  45.888  0.00  0.00    +0.000 A 
ATOM     24  H   UNL     1     -73.416 -57.581  43.517  0.00  0.00    +0.000 HD
ENDBRANCH  12  16
ENDBRANCH   8  10
BRANCH   4  25
ATOM     25  N   UNL     1     -79.219 -52.382  40.105  0.00  0.00    +0.000 N 
ATOM     26  H   UNL     1     -79.434 -51.703  39.377  0.00  0.00    +0.000 HD
BRANCH  25  27
ATOM     27  C   UNL     1     -78.956 -53.731  39.611  0.00  0.00    +0.000 C 
BRANCH  27  28
ATOM     28  C   UNL     1     -78.622 -55.164  39.183  0.00  0.00    +0.000 C 
ATOM     29  C   UNL     1     -78.371 -56.622  38.791  0.00  0.00    +0.000 C 
BRANCH  29  30
ATOM     30  N   UNL     1     -78.204 -57.918  38.440  0.00  0.00    +0.000 N 
ATOM     31  C   UNL     1     -77.289 -58.469  37.555  0.00  0.00    +0.000 C 
ATOM     32  O   UNL     1     -76.457 -57.766  36.982  0.00  0.00    +0.000 OA
ATOM     33  H   UNL     1     -78.893 -58.538  38.848  0.00  0.00    +0.000 HD
BRANCH  31  34
ATOM     34  C   UNL     1     -77.415 -59.903  37.358  0.00  0.00    +0.000 A 
ATOM     35  S   UNL     1     -78.114 -60.881  38.590  0.00  0.00    +0.000 S 
ATOM     36  C   UNL     1     -77.890 -62.289  37.674  0.00  0.00    +0.000 A 
ATOM     37  C   UNL     1     -77.306 -62.055  36.461  0.00  0.00    +0.000 A 
ATOM     38  C   UNL     1     -77.034 -60.680  36.283  0.00  0.00    +0.000 A 
ENDBRANCH  31  34
ENDBRANCH  29  30
ENDBRANCH  27  28
ENDBRANCH  25  27
ENDBRANCH   4  25
TORSDOF 7
ENDMDL
MODEL 9
REMARK VINA RESULT:      -5.3     37.796     39.859
REMARK  Name = BX795.pdbqt.pdb
REMARK  7 active torsions:
REMARK  status: ('A' for Active; 'I' for Inactive)
REMARK    1  A    between atoms: C_4  and  N_25
REMARK    2  A    between atoms: N_8  and  C_10
REMARK    3  A    between atoms: C_12  and  N_16
REMARK    4  A    between atoms: N_25  and  C_27
REMARK    5  A    between atoms: C_27  and  C_28
REMARK    6  A    between atoms: C_29  and  N_30
REMARK    7  A    between atoms: C_31  and  C_34
REMARK                            x       y       z     vdW  Elec       q    Type
REMARK                         _______ _______ _______ _____ _____    ______ ____
ROOT
ATOM      1  I   UNL     1     -50.736 -53.789  75.346  0.00  0.00    +0.000 I 
ATOM      2  N   UNL     1     -49.014 -50.909  72.618  0.00  0.00    +0.000 NA
ATOM      3  N   UNL     1     -47.640 -52.818  72.555  0.00  0.00    +0.000 NA
ATOM      4  C   UNL     1     -49.817 -51.476  73.543  0.00  0.00    +0.000 A 
ATOM      5  C   UNL     1     -47.953 -51.584  72.153  0.00  0.00    +0.000 A 
ATOM      6  C   UNL     1     -49.587 -52.768  73.973  0.00  0.00    +0.000 A 
ATOM      7  C   UNL     1     -48.478 -53.382  73.445  0.00  0.00    +0.000 A 
ATOM      8  N   UNL     1     -47.088 -50.991  71.240  0.00  0.00    +0.000 N 
ATOM      9  H   UNL     1     -46.299 -51.587  71.038  0.00  0.00    +0.000 HD
ENDROOT
BRANCH   8  10
ATOM     10  C   UNL     1     -47.250 -49.841  70.458  0.00  0.00    +0.000 A 
ATOM     11  C   UNL     1     -46.398 -48.737  70.564  0.00  0.00    +0.000 A 
ATOM     12  C   UNL     1     -46.506 -47.637  69.714  0.00  0.00    +0.000 A 
ATOM     13  C   UNL     1     -47.471 -47.646  68.712  0.00  0.00    +0.000 A 
ATOM     14  C   UNL     1     -48.324 -48.738  68.578  0.00  0.00    +0.000 A 
ATOM     15  C   UNL     1     -48.210 -49.826  69.444  0.00  0.00    +0.000 A 
BRANCH  12  16
ATOM     16  N   UNL     1     -45.650 -46.547  69.952  0.00  0.00    +0.000 N 
ATOM     17  C   UNL     1     -45.815 -45.579  70.927  0.00  0.00    +0.000 C 
ATOM     18  O   UNL     1     -46.818 -45.471  71.630  0.00  0.00    +0.000 OA
ATOM     19  N   UNL     1     -44.737 -44.700  71.028  0.00  0.00    +0.000 N 
ATOM     20  C   UNL     1     -43.557 -44.609  70.353  0.00  0.00    +0.000 A 
ATOM     21  C   UNL     1     -44.580 -43.640  71.869  0.00  0.00    +0.000 A 
ATOM     22  C   UNL     1     -42.557 -43.495  70.682  0.00  0.00    +0.000 A 
ATOM     23  C   UNL     1     -43.316 -42.775  71.808  0.00  0.00    +0.000 A 
ATOM     24  H   UNL     1     -44.884 -46.424  69.300  0.00  0.00    +0.000 HD
ENDBRANCH  12  16
ENDBRANCH   8  10
BRANCH   4  25
ATOM     25  N   UNL     1     -50.939 -50.744  74.011  0.00  0.00    +0.000 N 
ATOM     26  H   UNL     1     -50.641 -50.075  74.718  0.00  0.00    +0.000 HD
BRANCH  25  27
ATOM     27  C   UNL     1     -51.810 -50.185  72.981  0.00  0.00    +0.000 C 
BRANCH  27  28
ATOM     28  C   UNL     1     -52.670 -49.657  71.828  0.00  0.00    +0.000 C 
ATOM     29  C   UNL     1     -53.531 -49.217  70.641  0.00  0.00    +0.000 C 
BRANCH  29  30
ATOM     30  N   UNL     1     -54.314 -48.881  69.591  0.00  0.00    +0.000 N 
ATOM     31  C   UNL     1     -53.941 -48.362  68.358  0.00  0.00    +0.000 C 
ATOM     32  O   UNL     1     -52.758 -48.173  68.081  0.00  0.00    +0.000 OA
ATOM     33  H   UNL     1     -55.305 -48.973  69.780  0.00  0.00    +0.000 HD
BRANCH  31  34
ATOM     34  C   UNL     1     -55.045 -48.054  67.465  0.00  0.00    +0.000 A 
ATOM     35  S   UNL     1     -55.804 -46.511  67.537  0.00  0.00    +0.000 S 
ATOM     36  C   UNL     1     -56.895 -46.930  66.311  0.00  0.00    +0.000 A 
ATOM     37  C   UNL     1     -56.712 -48.200  65.837  0.00  0.00    +0.000 A 
ATOM     38  C   UNL     1     -55.645 -48.843  66.505  0.00  0.00    +0.000 A 
ENDBRANCH  31  34
ENDBRANCH  29  30
ENDBRANCH  27  28
ENDBRANCH  25  27
ENDBRANCH   4  25
TORSDOF 7
ENDMDL
