MODEL 1
REMARK VINA RESULT:      -3.1      0.000      0.000
REMARK  Name = CadmiumAcetate.pdbqt.pdb
REMARK  1 active torsions:
REMARK  status: ('A' for Active; 'I' for Inactive)
REMARK    1  A    between atoms: C_3  and  O_4
REMARK                            x       y       z     vdW  Elec       q    Type
REMARK                         _______ _______ _______ _____ _____    ______ ____
ROOT
ATOM      1  O   UNL     1     -59.919 -60.141  42.513  0.00  0.00    +0.000 OA
ATOM      2  C   UNL     1     -58.477 -61.362  41.203  0.00  0.00    +0.000 C 
ATOM      3  C   UNL     1     -59.659 -60.499  41.383  0.00  0.00    +0.000 C 
ENDROOT
BRANCH   3   4
ATOM      4  O   UNL     1     -60.335 -60.193  40.277  0.00  0.00    +0.000 OA
ATOM      5  H   UNL     1     -60.227 -60.995  39.732  0.00  0.00    +0.000 HD
ENDBRANCH   3   4
TORSDOF 1
ENDMDL
MODEL 2
REMARK VINA RESULT:      -3.0      5.938      6.170
REMARK  Name = CadmiumAcetate.pdbqt.pdb
REMARK  1 active torsions:
REMARK  status: ('A' for Active; 'I' for Inactive)
REMARK    1  A    between atoms: C_3  and  O_4
REMARK                            x       y       z     vdW  Elec       q    Type
REMARK                         _______ _______ _______ _____ _____    ______ ____
ROOT
ATOM      1  O   UNL     1     -54.399 -63.729  40.473  0.00  0.00    +0.000 OA
ATOM      2  C   UNL     1     -53.917 -61.543  40.998  0.00  0.00    +0.000 C 
ATOM      3  C   UNL     1     -54.282 -62.922  41.372  0.00  0.00    +0.000 C 
ENDROOT
BRANCH   3   4
ATOM      4  O   UNL     1     -54.449 -63.152  42.673  0.00  0.00    +0.000 OA
ATOM      5  H   UNL     1     -53.676 -63.705  42.893  0.00  0.00    +0.000 HD
ENDBRANCH   3   4
TORSDOF 1
ENDMDL
MODEL 3
REMARK VINA RESULT:      -2.8      1.812      2.000
REMARK  Name = CadmiumAcetate.pdbqt.pdb
REMARK  1 active torsions:
REMARK  status: ('A' for Active; 'I' for Inactive)
REMARK    1  A    between atoms: C_3  and  O_4
REMARK                            x       y       z     vdW  Elec       q    Type
REMARK                         _______ _______ _______ _____ _____    ______ ____
ROOT
ATOM      1  O   UNL     1     -59.828 -59.967  43.428  0.00  0.00    +0.000 OA
ATOM      2  C   UNL     1     -59.663 -60.608  41.226  0.00  0.00    +0.000 C 
ATOM      3  C   UNL     1     -59.855 -60.904  42.658  0.00  0.00    +0.000 C 
ENDROOT
BRANCH   3   4
ATOM      4  O   UNL     1     -60.043 -62.185  42.972  0.00  0.00    +0.000 OA
ATOM      5  H   UNL     1     -59.192 -62.592  42.723  0.00  0.00    +0.000 HD
ENDBRANCH   3   4
TORSDOF 1
ENDMDL
MODEL 4
REMARK VINA RESULT:      -2.7      5.040      5.424
REMARK  Name = CadmiumAcetate.pdbqt.pdb
REMARK  1 active torsions:
REMARK  status: ('A' for Active; 'I' for Inactive)
REMARK    1  A    between atoms: C_3  and  O_4
REMARK                            x       y       z     vdW  Elec       q    Type
REMARK                         _______ _______ _______ _____ _____    ______ ____
ROOT
ATOM      1  O   UNL     1     -56.072 -62.465  40.026  0.00  0.00    +0.000 OA
ATOM      2  C   UNL     1     -54.879 -62.754  41.971  0.00  0.00    +0.000 C 
ATOM      3  C   UNL     1     -55.249 -63.149  40.599  0.00  0.00    +0.000 C 
ENDROOT
BRANCH   3   4
ATOM      4  O   UNL     1     -54.639 -64.229  40.114  0.00  0.00    +0.000 OA
ATOM      5  H   UNL     1     -54.762 -64.130  39.152  0.00  0.00    +0.000 HD
ENDBRANCH   3   4
TORSDOF 1
ENDMDL
MODEL 5
REMARK VINA RESULT:      -2.7     10.644     11.159
REMARK  Name = CadmiumAcetate.pdbqt.pdb
REMARK  1 active torsions:
REMARK  status: ('A' for Active; 'I' for Inactive)
REMARK    1  A    between atoms: C_3  and  O_4
REMARK                            x       y       z     vdW  Elec       q    Type
REMARK                         _______ _______ _______ _____ _____    ______ ____
ROOT
ATOM      1  O   UNL     1     -49.262 -61.065  44.522  0.00  0.00    +0.000 OA
ATOM      2  C   UNL     1     -48.439 -60.190  46.483  0.00  0.00    +0.000 C 
ATOM      3  C   UNL     1     -49.372 -60.176  45.341  0.00  0.00    +0.000 C 
ENDROOT
BRANCH   3   4
ATOM      4  O   UNL     1     -50.256 -59.179  45.317  0.00  0.00    +0.000 OA
ATOM      5  H   UNL     1     -50.388 -58.989  46.264  0.00  0.00    +0.000 HD
ENDBRANCH   3   4
TORSDOF 1
ENDMDL
MODEL 6
REMARK VINA RESULT:      -2.6     32.451     32.897
REMARK  Name = CadmiumAcetate.pdbqt.pdb
REMARK  1 active torsions:
REMARK  status: ('A' for Active; 'I' for Inactive)
REMARK    1  A    between atoms: C_3  and  O_4
REMARK                            x       y       z     vdW  Elec       q    Type
REMARK                         _______ _______ _______ _____ _____    ______ ____
ROOT
ATOM      1  O   UNL     1     -31.781 -52.238  58.498  0.00  0.00    +0.000 OA
ATOM      2  C   UNL     1     -32.641 -52.772  56.434  0.00  0.00    +0.000 C 
ATOM      3  C   UNL     1     -32.012 -53.137  57.717  0.00  0.00    +0.000 C 
ENDROOT
BRANCH   3   4
ATOM      4  O   UNL     1     -31.755 -54.432  57.897  0.00  0.00    +0.000 OA
ATOM      5  H   UNL     1     -31.959 -54.813  57.022  0.00  0.00    +0.000 HD
ENDBRANCH   3   4
TORSDOF 1
ENDMDL
MODEL 7
REMARK VINA RESULT:      -2.6     29.471     29.921
REMARK  Name = CadmiumAcetate.pdbqt.pdb
REMARK  1 active torsions:
REMARK  status: ('A' for Active; 'I' for Inactive)
REMARK    1  A    between atoms: C_3  and  O_4
REMARK                            x       y       z     vdW  Elec       q    Type
REMARK                         _______ _______ _______ _____ _____    ______ ____
ROOT
ATOM      1  O   UNL     1     -35.510 -49.828  53.313  0.00  0.00    +0.000 OA
ATOM      2  C   UNL     1     -33.392 -49.033  52.902  0.00  0.00    +0.000 C 
ATOM      3  C   UNL     1     -34.834 -48.835  53.140  0.00  0.00    +0.000 C 
ENDROOT
BRANCH   3   4
ATOM      4  O   UNL     1     -35.260 -47.573  53.143  0.00  0.00    +0.000 OA
ATOM      5  H   UNL     1     -35.692 -47.497  54.013  0.00  0.00    +0.000 HD
ENDBRANCH   3   4
TORSDOF 1
ENDMDL
MODEL 8
REMARK VINA RESULT:      -2.6      5.205      5.339
REMARK  Name = CadmiumAcetate.pdbqt.pdb
REMARK  1 active torsions:
REMARK  status: ('A' for Active; 'I' for Inactive)
REMARK    1  A    between atoms: C_3  and  O_4
REMARK                            x       y       z     vdW  Elec       q    Type
REMARK                         _______ _______ _______ _____ _____    ______ ____
ROOT
ATOM      1  O   UNL     1     -63.669 -64.302  41.506  0.00  0.00    +0.000 OA
ATOM      2  C   UNL     1     -62.685 -63.615  39.545  0.00  0.00    +0.000 C 
ATOM      3  C   UNL     1     -63.811 -63.642  40.498  0.00  0.00    +0.000 C 
ENDROOT
BRANCH   3   4
ATOM      4  O   UNL     1     -64.884 -62.930  40.158  0.00  0.00    +0.000 OA
ATOM      5  H   UNL     1     -65.573 -63.290  40.746  0.00  0.00    +0.000 HD
ENDBRANCH   3   4
TORSDOF 1
ENDMDL
MODEL 9
REMARK VINA RESULT:      -2.5     17.616     17.997
REMARK  Name = CadmiumAcetate.pdbqt.pdb
REMARK  1 active torsions:
REMARK  status: ('A' for Active; 'I' for Inactive)
REMARK    1  A    between atoms: C_3  and  O_4
REMARK                            x       y       z     vdW  Elec       q    Type
REMARK                         _______ _______ _______ _____ _____    ______ ____
ROOT
ATOM      1  O   UNL     1     -48.362 -75.061  39.066  0.00  0.00    +0.000 OA
ATOM      2  C   UNL     1     -49.377 -76.164  40.810  0.00  0.00    +0.000 C 
ATOM      3  C   UNL     1     -49.034 -74.935  40.069  0.00  0.00    +0.000 C 
ENDROOT
BRANCH   3   4
ATOM      4  O   UNL     1     -49.500 -73.795  40.575  0.00  0.00    +0.000 OA
ATOM      5  H   UNL     1     -49.944 -74.090  41.392  0.00  0.00    +0.000 HD
ENDBRANCH   3   4
TORSDOF 1
ENDMDL
