MODEL 1
REMARK VINA RESULT:      -7.8      0.000      0.000
REMARK  Name = Calcitriol.pdbqt.pdb
REMARK  9 active torsions:
REMARK  status: ('A' for Active; 'I' for Inactive)
REMARK    1  A    between atoms: C_2  and  C_24
REMARK    2  A    between atoms: C_7  and  C_11
REMARK    3  A    between atoms: C_12  and  C_13
REMARK    4  A    between atoms: C_16  and  O_20
REMARK    5  A    between atoms: C_18  and  O_22
REMARK    6  A    between atoms: C_24  and  C_26
REMARK    7  A    between atoms: C_27  and  C_28
REMARK    8  A    between atoms: C_28  and  C_29
REMARK    9  A    between atoms: C_29  and  O_32
REMARK                            x       y       z     vdW  Elec       q    Type
REMARK                         _______ _______ _______ _____ _____    ______ ____
ROOT
ATOM      1  C   UNL     1     -45.894 -62.950  35.965  0.00  0.00    +0.000 C 
ATOM      2  C   UNL     1     -47.171 -62.536  35.241  0.00  0.00    +0.000 C 
ATOM      3  C   UNL     1     -46.299 -62.800  37.530  0.00  0.00    +0.000 C 
ATOM      4  C   UNL     1     -48.217 -62.334  36.189  0.00  0.00    +0.000 C 
ATOM      5  C   UNL     1     -47.700 -62.520  37.590  0.00  0.00    +0.000 C 
ATOM      6  C   UNL     1     -44.748 -62.053  35.740  0.00  0.00    +0.000 C 
ATOM      7  C   UNL     1     -45.368 -62.202  38.495  0.00  0.00    +0.000 C 
ATOM      8  C   UNL     1     -45.581 -64.455  35.726  0.00  0.00    +0.000 C 
ATOM      9  C   UNL     1     -43.738 -61.241  36.530  0.00  0.00    +0.000 C 
ATOM     10  C   UNL     1     -44.267 -61.510  37.924  0.00  0.00    +0.000 C 
ENDROOT
BRANCH   7  11
ATOM     11  C   UNL     1     -45.568 -62.155  39.775  0.00  0.00    +0.000 C 
ATOM     12  C   UNL     1     -45.790 -62.100  41.291  0.00  0.00    +0.000 C 
BRANCH  12  13
ATOM     13  C   UNL     1     -45.970 -62.049  42.576  0.00  0.00    +0.000 A 
ATOM     14  C   UNL     1     -45.418 -63.074  43.410  0.00  0.00    +0.000 A 
ATOM     15  C   UNL     1     -46.771 -61.031  43.328  0.00  0.00    +0.000 A 
ATOM     16  C   UNL     1     -45.474 -63.325  44.811  0.00  0.00    +0.000 A 
ATOM     17  C   UNL     1     -46.265 -62.295  45.393  0.00  0.00    +0.000 A 
ATOM     18  C   UNL     1     -46.921 -61.173  44.811  0.00  0.00    +0.000 A 
ATOM     19  C   UNL     1     -47.355 -59.985  42.716  0.00  0.00    +0.000 C 
BRANCH  16  20
ATOM     20  O   UNL     1     -44.422 -63.892  45.471  0.00  0.00    +0.000 OA
ATOM     21  H   UNL     1     -44.002 -63.258  46.075  0.00  0.00    +0.000 HD
ENDBRANCH  16  20
BRANCH  18  22
ATOM     22  O   UNL     1     -47.636 -60.266  45.556  0.00  0.00    +0.000 OA
ATOM     23  H   UNL     1     -47.245 -59.376  45.472  0.00  0.00    +0.000 HD
ENDBRANCH  18  22
ENDBRANCH  12  13
ENDBRANCH   7  11
BRANCH   2  24
ATOM     24  C   UNL     1     -47.345 -62.517  33.823  0.00  0.00    +0.000 C 
ATOM     25  C   UNL     1     -47.718 -61.273  33.057  0.00  0.00    +0.000 C 
BRANCH  24  26
ATOM     26  C   UNL     1     -47.358 -63.721  33.068  0.00  0.00    +0.000 C 
ATOM     27  C   UNL     1     -47.375 -65.030  32.267  0.00  0.00    +0.000 C 
BRANCH  27  28
ATOM     28  C   UNL     1     -47.391 -66.345  31.479  0.00  0.00    +0.000 C 
BRANCH  28  29
ATOM     29  C   UNL     1     -47.412 -67.601  30.728  0.00  0.00    +0.000 C 
ATOM     30  C   UNL     1     -48.689 -68.415  30.965  0.00  0.00    +0.000 C 
ATOM     31  C   UNL     1     -47.162 -67.411  29.228  0.00  0.00    +0.000 C 
BRANCH  29  32
ATOM     32  O   UNL     1     -46.356 -68.420  31.178  0.00  0.00    +0.000 OA
ATOM     33  H   UNL     1     -46.453 -68.269  32.130  0.00  0.00    +0.000 HD
ENDBRANCH  29  32
ENDBRANCH  28  29
ENDBRANCH  27  28
ENDBRANCH  24  26
ENDBRANCH   2  24
TORSDOF 9
ENDMDL
MODEL 2
REMARK VINA RESULT:      -7.7      2.274      3.689
REMARK  Name = Calcitriol.pdbqt.pdb
REMARK  9 active torsions:
REMARK  status: ('A' for Active; 'I' for Inactive)
REMARK    1  A    between atoms: C_2  and  C_24
REMARK    2  A    between atoms: C_7  and  C_11
REMARK    3  A    between atoms: C_12  and  C_13
REMARK    4  A    between atoms: C_16  and  O_20
REMARK    5  A    between atoms: C_18  and  O_22
REMARK    6  A    between atoms: C_24  and  C_26
REMARK    7  A    between atoms: C_27  and  C_28
REMARK    8  A    between atoms: C_28  and  C_29
REMARK    9  A    between atoms: C_29  and  O_32
REMARK                            x       y       z     vdW  Elec       q    Type
REMARK                         _______ _______ _______ _____ _____    ______ ____
ROOT
ATOM      1  C   UNL     1     -45.301 -65.057  38.559  0.00  0.00    +0.000 C 
ATOM      2  C   UNL     1     -45.106 -64.264  37.270  0.00  0.00    +0.000 C 
ATOM      3  C   UNL     1     -46.143 -64.030  39.493  0.00  0.00    +0.000 C 
ATOM      4  C   UNL     1     -45.839 -63.043  37.341  0.00  0.00    +0.000 C 
ATOM      5  C   UNL     1     -46.499 -62.904  38.686  0.00  0.00    +0.000 C 
ATOM      6  C   UNL     1     -44.056 -65.359  39.283  0.00  0.00    +0.000 C 
ATOM      7  C   UNL     1     -45.818 -63.867  40.915  0.00  0.00    +0.000 C 
ATOM      8  C   UNL     1     -46.214 -66.293  38.319  0.00  0.00    +0.000 C 
ATOM      9  C   UNL     1     -43.446 -65.191  40.663  0.00  0.00    +0.000 C 
ATOM     10  C   UNL     1     -44.570 -64.413  41.317  0.00  0.00    +0.000 C 
ENDROOT
BRANCH   7  11
ATOM     11  C   UNL     1     -46.514 -63.161  41.750  0.00  0.00    +0.000 C 
ATOM     12  C   UNL     1     -47.347 -62.336  42.739  0.00  0.00    +0.000 C 
BRANCH  12  13
ATOM     13  C   UNL     1     -48.055 -61.646  43.579  0.00  0.00    +0.000 A 
ATOM     14  C   UNL     1     -49.015 -60.702  43.090  0.00  0.00    +0.000 A 
ATOM     15  C   UNL     1     -47.951 -61.673  45.073  0.00  0.00    +0.000 A 
ATOM     16  C   UNL     1     -49.893 -59.782  43.733  0.00  0.00    +0.000 A 
ATOM     17  C   UNL     1     -49.683 -59.909  45.135  0.00  0.00    +0.000 A 
ATOM     18  C   UNL     1     -48.811 -60.753  45.881  0.00  0.00    +0.000 A 
ATOM     19  C   UNL     1     -47.113 -62.506  45.717  0.00  0.00    +0.000 C 
BRANCH  16  20
ATOM     20  O   UNL     1     -51.117 -59.485  43.207  0.00  0.00    +0.000 OA
ATOM     21  H   UNL     1     -51.832 -59.735  43.815  0.00  0.00    +0.000 HD
ENDBRANCH  16  20
BRANCH  18  22
ATOM     22  O   UNL     1     -48.766 -60.738  47.255  0.00  0.00    +0.000 OA
ATOM     23  H   UNL     1     -49.520 -61.238  47.623  0.00  0.00    +0.000 HD
ENDBRANCH  18  22
ENDBRANCH  12  13
ENDBRANCH   7  11
BRANCH   2  24
ATOM     24  C   UNL     1     -44.433 -64.741  36.103  0.00  0.00    +0.000 C 
ATOM     25  C   UNL     1     -42.952 -64.568  35.880  0.00  0.00    +0.000 C 
BRANCH  24  26
ATOM     26  C   UNL     1     -45.159 -65.247  34.991  0.00  0.00    +0.000 C 
ATOM     27  C   UNL     1     -45.958 -65.790  33.799  0.00  0.00    +0.000 C 
BRANCH  27  28
ATOM     28  C   UNL     1     -46.768 -66.330  32.614  0.00  0.00    +0.000 C 
BRANCH  28  29
ATOM     29  C   UNL     1     -47.540 -66.850  31.485  0.00  0.00    +0.000 C 
ATOM     30  C   UNL     1     -48.206 -68.197  31.790  0.00  0.00    +0.000 C 
ATOM     31  C   UNL     1     -48.567 -65.849  30.945  0.00  0.00    +0.000 C 
BRANCH  29  32
ATOM     32  O   UNL     1     -46.665 -67.100  30.408  0.00  0.00    +0.000 OA
ATOM     33  H   UNL     1     -45.865 -67.298  30.917  0.00  0.00    +0.000 HD
ENDBRANCH  29  32
ENDBRANCH  28  29
ENDBRANCH  27  28
ENDBRANCH  24  26
ENDBRANCH   2  24
TORSDOF 9
ENDMDL
MODEL 3
REMARK VINA RESULT:      -7.7      3.127      5.034
REMARK  Name = Calcitriol.pdbqt.pdb
REMARK  9 active torsions:
REMARK  status: ('A' for Active; 'I' for Inactive)
REMARK    1  A    between atoms: C_2  and  C_24
REMARK    2  A    between atoms: C_7  and  C_11
REMARK    3  A    between atoms: C_12  and  C_13
REMARK    4  A    between atoms: C_16  and  O_20
REMARK    5  A    between atoms: C_18  and  O_22
REMARK    6  A    between atoms: C_24  and  C_26
REMARK    7  A    between atoms: C_27  and  C_28
REMARK    8  A    between atoms: C_28  and  C_29
REMARK    9  A    between atoms: C_29  and  O_32
REMARK                            x       y       z     vdW  Elec       q    Type
REMARK                         _______ _______ _______ _____ _____    ______ ____
ROOT
ATOM      1  C   UNL     1     -44.117 -64.023  39.122  0.00  0.00    +0.000 C 
ATOM      2  C   UNL     1     -43.601 -65.396  39.539  0.00  0.00    +0.000 C 
ATOM      3  C   UNL     1     -44.917 -63.519  40.442  0.00  0.00    +0.000 C 
ATOM      4  C   UNL     1     -43.888 -65.618  40.919  0.00  0.00    +0.000 C 
ATOM      5  C   UNL     1     -44.667 -64.464  41.486  0.00  0.00    +0.000 C 
ATOM      6  C   UNL     1     -45.096 -64.048  38.023  0.00  0.00    +0.000 C 
ATOM      7  C   UNL     1     -46.218 -62.849  40.325  0.00  0.00    +0.000 C 
ATOM      8  C   UNL     1     -42.942 -63.028  38.905  0.00  0.00    +0.000 C 
ATOM      9  C   UNL     1     -46.498 -63.560  37.706  0.00  0.00    +0.000 C 
ATOM     10  C   UNL     1     -46.840 -62.955  39.053  0.00  0.00    +0.000 C 
ENDROOT
BRANCH   7  11
ATOM     11  C   UNL     1     -46.860 -62.315  41.316  0.00  0.00    +0.000 C 
ATOM     12  C   UNL     1     -47.623 -61.672  42.480  0.00  0.00    +0.000 C 
BRANCH  12  13
ATOM     13  C   UNL     1     -48.276 -61.124  43.460  0.00  0.00    +0.000 A 
ATOM     14  C   UNL     1     -49.330 -60.197  43.178  0.00  0.00    +0.000 A 
ATOM     15  C   UNL     1     -48.014 -61.306  44.923  0.00  0.00    +0.000 A 
ATOM     16  C   UNL     1     -50.183 -59.411  44.005  0.00  0.00    +0.000 A 
ATOM     17  C   UNL     1     -49.822 -59.674  45.356  0.00  0.00    +0.000 A 
ATOM     18  C   UNL     1     -48.833 -60.536  45.912  0.00  0.00    +0.000 A 
ATOM     19  C   UNL     1     -47.070 -62.148  45.382  0.00  0.00    +0.000 C 
BRANCH  16  20
ATOM     20  O   UNL     1     -51.470 -59.138  43.639  0.00  0.00    +0.000 OA
ATOM     21  H   UNL     1     -51.683 -58.199  43.772  0.00  0.00    +0.000 HD
ENDBRANCH  16  20
BRANCH  18  22
ATOM     22  O   UNL     1     -48.644 -60.667  47.267  0.00  0.00    +0.000 OA
ATOM     23  H   UNL     1     -47.797 -60.260  47.531  0.00  0.00    +0.000 HD
ENDBRANCH  18  22
ENDBRANCH  12  13
ENDBRANCH   7  11
BRANCH   2  24
ATOM     24  C   UNL     1     -42.804 -66.259  38.725  0.00  0.00    +0.000 C 
ATOM     25  C   UNL     1     -41.298 -66.281  38.780  0.00  0.00    +0.000 C 
BRANCH  24  26
ATOM     26  C   UNL     1     -43.386 -67.021  37.675  0.00  0.00    +0.000 C 
ATOM     27  C   UNL     1     -44.010 -67.857  36.551  0.00  0.00    +0.000 C 
BRANCH  27  28
ATOM     28  C   UNL     1     -44.632 -68.705  35.434  0.00  0.00    +0.000 C 
BRANCH  28  29
ATOM     29  C   UNL     1     -45.228 -69.510  34.368  0.00  0.00    +0.000 C 
ATOM     30  C   UNL     1     -46.233 -68.723  33.519  0.00  0.00    +0.000 C 
ATOM     31  C   UNL     1     -44.188 -70.196  33.476  0.00  0.00    +0.000 C 
BRANCH  29  32
ATOM     32  O   UNL     1     -45.969 -70.561  34.948  0.00  0.00    +0.000 OA
ATOM     33  H   UNL     1     -46.055 -70.199  35.842  0.00  0.00    +0.000 HD
ENDBRANCH  29  32
ENDBRANCH  28  29
ENDBRANCH  27  28
ENDBRANCH  24  26
ENDBRANCH   2  24
TORSDOF 9
ENDMDL
MODEL 4
REMARK VINA RESULT:      -7.6      9.480     13.246
REMARK  Name = Calcitriol.pdbqt.pdb
REMARK  9 active torsions:
REMARK  status: ('A' for Active; 'I' for Inactive)
REMARK    1  A    between atoms: C_2  and  C_24
REMARK    2  A    between atoms: C_7  and  C_11
REMARK    3  A    between atoms: C_12  and  C_13
REMARK    4  A    between atoms: C_16  and  O_20
REMARK    5  A    between atoms: C_18  and  O_22
REMARK    6  A    between atoms: C_24  and  C_26
REMARK    7  A    between atoms: C_27  and  C_28
REMARK    8  A    between atoms: C_28  and  C_29
REMARK    9  A    between atoms: C_29  and  O_32
REMARK                            x       y       z     vdW  Elec       q    Type
REMARK                         _______ _______ _______ _____ _____    ______ ____
ROOT
ATOM      1  C   UNL     1     -38.046 -57.197  35.054  0.00  0.00    +0.000 C 
ATOM      2  C   UNL     1     -37.101 -56.692  36.140  0.00  0.00    +0.000 C 
ATOM      3  C   UNL     1     -39.111 -55.980  34.904  0.00  0.00    +0.000 C 
ATOM      4  C   UNL     1     -37.428 -55.343  36.471  0.00  0.00    +0.000 C 
ATOM      5  C   UNL     1     -38.637 -54.891  35.701  0.00  0.00    +0.000 C 
ATOM      6  C   UNL     1     -38.823 -58.390  35.430  0.00  0.00    +0.000 C 
ATOM      7  C   UNL     1     -40.547 -56.249  34.769  0.00  0.00    +0.000 C 
ATOM      8  C   UNL     1     -37.311 -57.319  33.689  0.00  0.00    +0.000 C 
ATOM      9  C   UNL     1     -40.264 -58.862  35.498  0.00  0.00    +0.000 C 
ATOM     10  C   UNL     1     -40.947 -57.575  35.084  0.00  0.00    +0.000 C 
ENDROOT
BRANCH   7  11
ATOM     11  C   UNL     1     -41.443 -55.344  34.527  0.00  0.00    +0.000 C 
ATOM     12  C   UNL     1     -42.504 -54.279  34.227  0.00  0.00    +0.000 C 
BRANCH  12  13
ATOM     13  C   UNL     1     -43.407 -53.382  33.967  0.00  0.00    +0.000 A 
ATOM     14  C   UNL     1     -43.765 -52.425  34.970  0.00  0.00    +0.000 A 
ATOM     15  C   UNL     1     -44.201 -53.251  32.704  0.00  0.00    +0.000 A 
ATOM     16  C   UNL     1     -44.723 -51.371  35.014  0.00  0.00    +0.000 A 
ATOM     17  C   UNL     1     -45.404 -51.367  33.764  0.00  0.00    +0.000 A 
ATOM     18  C   UNL     1     -45.251 -52.188  32.610  0.00  0.00    +0.000 A 
ATOM     19  C   UNL     1     -43.997 -54.054  31.644  0.00  0.00    +0.000 C 
BRANCH  16  20
ATOM     20  O   UNL     1     -44.481 -50.223  35.711  0.00  0.00    +0.000 OA
ATOM     21  H   UNL     1     -45.280 -49.673  35.771  0.00  0.00    +0.000 HD
ENDBRANCH  16  20
BRANCH  18  22
ATOM     22  O   UNL     1     -46.006 -52.014  31.474  0.00  0.00    +0.000 OA
ATOM     23  H   UNL     1     -45.441 -51.716  30.736  0.00  0.00    +0.000 HD
ENDBRANCH  18  22
ENDBRANCH  12  13
ENDBRANCH   7  11
BRANCH   2  24
ATOM     24  C   UNL     1     -35.959 -57.395  36.631  0.00  0.00    +0.000 C 
ATOM     25  C   UNL     1     -34.634 -57.415  35.913  0.00  0.00    +0.000 C 
BRANCH  24  26
ATOM     26  C   UNL     1     -36.061 -58.278  37.741  0.00  0.00    +0.000 C 
ATOM     27  C   UNL     1     -36.188 -59.227  38.940  0.00  0.00    +0.000 C 
BRANCH  27  28
ATOM     28  C   UNL     1     -36.327 -60.171  40.141  0.00  0.00    +0.000 C 
BRANCH  28  29
ATOM     29  C   UNL     1     -36.456 -61.069  41.288  0.00  0.00    +0.000 C 
ATOM     30  C   UNL     1     -35.954 -62.487  40.993  0.00  0.00    +0.000 C 
ATOM     31  C   UNL     1     -35.804 -60.519  42.561  0.00  0.00    +0.000 C 
BRANCH  29  32
ATOM     32  O   UNL     1     -37.822 -61.214  41.605  0.00  0.00    +0.000 OA
ATOM     33  H   UNL     1     -37.724 -61.587  42.494  0.00  0.00    +0.000 HD
ENDBRANCH  29  32
ENDBRANCH  28  29
ENDBRANCH  27  28
ENDBRANCH  24  26
ENDBRANCH   2  24
TORSDOF 9
ENDMDL
MODEL 5
REMARK VINA RESULT:      -7.3      2.850      4.166
REMARK  Name = Calcitriol.pdbqt.pdb
REMARK  9 active torsions:
REMARK  status: ('A' for Active; 'I' for Inactive)
REMARK    1  A    between atoms: C_2  and  C_24
REMARK    2  A    between atoms: C_7  and  C_11
REMARK    3  A    between atoms: C_12  and  C_13
REMARK    4  A    between atoms: C_16  and  O_20
REMARK    5  A    between atoms: C_18  and  O_22
REMARK    6  A    between atoms: C_24  and  C_26
REMARK    7  A    between atoms: C_27  and  C_28
REMARK    8  A    between atoms: C_28  and  C_29
REMARK    9  A    between atoms: C_29  and  O_32
REMARK                            x       y       z     vdW  Elec       q    Type
REMARK                         _______ _______ _______ _____ _____    ______ ____
ROOT
ATOM      1  C   UNL     1     -45.775 -62.918  35.917  0.00  0.00    +0.000 C 
ATOM      2  C   UNL     1     -47.065 -62.518  35.207  0.00  0.00    +0.000 C 
ATOM      3  C   UNL     1     -46.171 -62.793  37.487  0.00  0.00    +0.000 C 
ATOM      4  C   UNL     1     -48.107 -62.345  36.166  0.00  0.00    +0.000 C 
ATOM      5  C   UNL     1     -47.576 -62.539  37.560  0.00  0.00    +0.000 C 
ATOM      6  C   UNL     1     -44.648 -61.998  35.695  0.00  0.00    +0.000 C 
ATOM      7  C   UNL     1     -45.243 -62.190  38.452  0.00  0.00    +0.000 C 
ATOM      8  C   UNL     1     -45.438 -64.413  35.659  0.00  0.00    +0.000 C 
ATOM      9  C   UNL     1     -43.645 -61.177  36.487  0.00  0.00    +0.000 C 
ATOM     10  C   UNL     1     -44.159 -61.472  37.881  0.00  0.00    +0.000 C 
ENDROOT
BRANCH   7  11
ATOM     11  C   UNL     1     -45.435 -62.162  39.733  0.00  0.00    +0.000 C 
ATOM     12  C   UNL     1     -45.673 -62.121  41.248  0.00  0.00    +0.000 C 
BRANCH  12  13
ATOM     13  C   UNL     1     -45.885 -62.085  42.528  0.00  0.00    +0.000 A 
ATOM     14  C   UNL     1     -45.340 -63.111  43.365  0.00  0.00    +0.000 A 
ATOM     15  C   UNL     1     -46.715 -61.084  43.271  0.00  0.00    +0.000 A 
ATOM     16  C   UNL     1     -45.426 -63.377  44.762  0.00  0.00    +0.000 A 
ATOM     17  C   UNL     1     -46.243 -62.362  45.336  0.00  0.00    +0.000 A 
ATOM     18  C   UNL     1     -46.898 -61.242  44.748  0.00  0.00    +0.000 A 
ATOM     19  C   UNL     1     -47.297 -60.039  42.656  0.00  0.00    +0.000 C 
BRANCH  16  20
ATOM     20  O   UNL     1     -44.384 -63.938  45.442  0.00  0.00    +0.000 OA
ATOM     21  H   UNL     1     -44.694 -64.614  46.068  0.00  0.00    +0.000 HD
ENDBRANCH  16  20
BRANCH  18  22
ATOM     22  O   UNL     1     -47.642 -60.351  45.485  0.00  0.00    +0.000 OA
ATOM     23  H   UNL     1     -47.088 -59.939  46.176  0.00  0.00    +0.000 HD
ENDBRANCH  18  22
ENDBRANCH  12  13
ENDBRANCH   7  11
BRANCH   2  24
ATOM     24  C   UNL     1     -47.250 -62.485  33.791  0.00  0.00    +0.000 C 
ATOM     25  C   UNL     1     -47.981 -63.563  33.032  0.00  0.00    +0.000 C 
BRANCH  24  26
ATOM     26  C   UNL     1     -46.588 -61.518  32.986  0.00  0.00    +0.000 C 
ATOM     27  C   UNL     1     -45.870 -60.487  32.106  0.00  0.00    +0.000 C 
BRANCH  27  28
ATOM     28  C   UNL     1     -45.149 -59.466  31.217  0.00  0.00    +0.000 C 
BRANCH  28  29
ATOM     29  C   UNL     1     -44.463 -58.494  30.367  0.00  0.00    +0.000 C 
ATOM     30  C   UNL     1     -42.947 -58.466  30.597  0.00  0.00    +0.000 C 
ATOM     31  C   UNL     1     -44.779 -58.667  28.877  0.00  0.00    +0.000 C 
BRANCH  29  32
ATOM     32  O   UNL     1     -44.915 -57.199  30.693  0.00  0.00    +0.000 OA
ATOM     33  H   UNL     1     -44.912 -57.285  31.658  0.00  0.00    +0.000 HD
ENDBRANCH  29  32
ENDBRANCH  28  29
ENDBRANCH  27  28
ENDBRANCH  24  26
ENDBRANCH   2  24
TORSDOF 9
ENDMDL
MODEL 6
REMARK VINA RESULT:      -7.1     24.022     26.412
REMARK  Name = Calcitriol.pdbqt.pdb
REMARK  9 active torsions:
REMARK  status: ('A' for Active; 'I' for Inactive)
REMARK    1  A    between atoms: C_2  and  C_24
REMARK    2  A    between atoms: C_7  and  C_11
REMARK    3  A    between atoms: C_12  and  C_13
REMARK    4  A    between atoms: C_16  and  O_20
REMARK    5  A    between atoms: C_18  and  O_22
REMARK    6  A    between atoms: C_24  and  C_26
REMARK    7  A    between atoms: C_27  and  C_28
REMARK    8  A    between atoms: C_28  and  C_29
REMARK    9  A    between atoms: C_29  and  O_32
REMARK                            x       y       z     vdW  Elec       q    Type
REMARK                         _______ _______ _______ _____ _____    ______ ____
ROOT
ATOM      1  C   UNL     1     -36.240 -42.874  49.843  0.00  0.00    +0.000 C 
ATOM      2  C   UNL     1     -37.720 -43.085  49.539  0.00  0.00    +0.000 C 
ATOM      3  C   UNL     1     -35.754 -44.347  50.324  0.00  0.00    +0.000 C 
ATOM      4  C   UNL     1     -38.040 -44.470  49.649  0.00  0.00    +0.000 C 
ATOM      5  C   UNL     1     -36.839 -45.253  50.102  0.00  0.00    +0.000 C 
ATOM      6  C   UNL     1     -35.973 -41.958  50.965  0.00  0.00    +0.000 C 
ATOM      7  C   UNL     1     -34.861 -44.507  51.478  0.00  0.00    +0.000 C 
ATOM      8  C   UNL     1     -35.446 -42.543  48.548  0.00  0.00    +0.000 C 
ATOM      9  C   UNL     1     -35.218 -41.924  52.281  0.00  0.00    +0.000 C 
ATOM     10  C   UNL     1     -34.716 -43.354  52.295  0.00  0.00    +0.000 C 
ENDROOT
BRANCH   7  11
ATOM     11  C   UNL     1     -34.337 -45.633  51.849  0.00  0.00    +0.000 C 
ATOM     12  C   UNL     1     -33.719 -46.961  52.302  0.00  0.00    +0.000 C 
BRANCH  12  13
ATOM     13  C   UNL     1     -33.201 -48.085  52.693  0.00  0.00    +0.000 A 
ATOM     14  C   UNL     1     -34.025 -49.252  52.785  0.00  0.00    +0.000 A 
ATOM     15  C   UNL     1     -31.789 -48.314  53.137  0.00  0.00    +0.000 A 
ATOM     16  C   UNL     1     -33.778 -50.589  53.212  0.00  0.00    +0.000 A 
ATOM     17  C   UNL     1     -32.413 -50.660  53.609  0.00  0.00    +0.000 A 
ATOM     18  C   UNL     1     -31.386 -49.672  53.619  0.00  0.00    +0.000 A 
ATOM     19  C   UNL     1     -30.863 -47.338  53.108  0.00  0.00    +0.000 C 
BRANCH  16  20
ATOM     20  O   UNL     1     -34.422 -51.646  52.638  0.00  0.00    +0.000 OA
ATOM     21  H   UNL     1     -34.419 -52.421  53.224  0.00  0.00    +0.000 HD
ENDBRANCH  16  20
BRANCH  18  22
ATOM     22  O   UNL     1     -30.104 -49.945  54.031  0.00  0.00    +0.000 OA
ATOM     23  H   UNL     1     -29.663 -50.539  53.393  0.00  0.00    +0.000 HD
ENDBRANCH  18  22
ENDBRANCH  12  13
ENDBRANCH   7  11
BRANCH   2  24
ATOM     24  C   UNL     1     -38.612 -42.080  49.052  0.00  0.00    +0.000 C 
ATOM     25  C   UNL     1     -38.379 -41.326  47.768  0.00  0.00    +0.000 C 
BRANCH  24  26
ATOM     26  C   UNL     1     -39.684 -41.600  49.853  0.00  0.00    +0.000 C 
ATOM     27  C   UNL     1     -40.851 -41.086  50.706  0.00  0.00    +0.000 C 
BRANCH  27  28
ATOM     28  C   UNL     1     -42.027 -40.576  51.548  0.00  0.00    +0.000 C 
BRANCH  28  29
ATOM     29  C   UNL     1     -43.152 -40.091  52.348  0.00  0.00    +0.000 C 
ATOM     30  C   UNL     1     -43.333 -38.571  52.259  0.00  0.00    +0.000 C 
ATOM     31  C   UNL     1     -44.469 -40.811  52.037  0.00  0.00    +0.000 C 
BRANCH  29  32
ATOM     32  O   UNL     1     -42.896 -40.359  53.708  0.00  0.00    +0.000 OA
ATOM     33  H   UNL     1     -41.961 -40.602  53.633  0.00  0.00    +0.000 HD
ENDBRANCH  29  32
ENDBRANCH  28  29
ENDBRANCH  27  28
ENDBRANCH  24  26
ENDBRANCH   2  24
TORSDOF 9
ENDMDL
MODEL 7
REMARK VINA RESULT:      -7.0     23.400     26.072
REMARK  Name = Calcitriol.pdbqt.pdb
REMARK  9 active torsions:
REMARK  status: ('A' for Active; 'I' for Inactive)
REMARK    1  A    between atoms: C_2  and  C_24
REMARK    2  A    between atoms: C_7  and  C_11
REMARK    3  A    between atoms: C_12  and  C_13
REMARK    4  A    between atoms: C_16  and  O_20
REMARK    5  A    between atoms: C_18  and  O_22
REMARK    6  A    between atoms: C_24  and  C_26
REMARK    7  A    between atoms: C_27  and  C_28
REMARK    8  A    between atoms: C_28  and  C_29
REMARK    9  A    between atoms: C_29  and  O_32
REMARK                            x       y       z     vdW  Elec       q    Type
REMARK                         _______ _______ _______ _____ _____    ______ ____
ROOT
ATOM      1  C   UNL     1     -33.775 -46.674  52.515  0.00  0.00    +0.000 C 
ATOM      2  C   UNL     1     -32.902 -47.466  51.545  0.00  0.00    +0.000 C 
ATOM      3  C   UNL     1     -34.911 -46.039  51.545  0.00  0.00    +0.000 C 
ATOM      4  C   UNL     1     -33.495 -47.455  50.248  0.00  0.00    +0.000 C 
ATOM      5  C   UNL     1     -34.738 -46.608  50.244  0.00  0.00    +0.000 C 
ATOM      6  C   UNL     1     -33.093 -45.541  53.161  0.00  0.00    +0.000 C 
ATOM      7  C   UNL     1     -35.347 -44.646  51.707  0.00  0.00    +0.000 C 
ATOM      8  C   UNL     1     -34.510 -47.622  53.503  0.00  0.00    +0.000 C 
ATOM      9  C   UNL     1     -33.263 -44.045  53.361  0.00  0.00    +0.000 C 
ATOM     10  C   UNL     1     -34.514 -43.844  52.530  0.00  0.00    +0.000 C 
ENDROOT
BRANCH   7  11
ATOM     11  C   UNL     1     -36.328 -44.105  51.055  0.00  0.00    +0.000 C 
ATOM     12  C   UNL     1     -37.493 -43.477  50.281  0.00  0.00    +0.000 C 
BRANCH  12  13
ATOM     13  C   UNL     1     -38.484 -42.952  49.626  0.00  0.00    +0.000 A 
ATOM     14  C   UNL     1     -39.286 -41.940  50.246  0.00  0.00    +0.000 A 
ATOM     15  C   UNL     1     -38.953 -43.332  48.256  0.00  0.00    +0.000 A 
ATOM     16  C   UNL     1     -40.440 -41.218  49.825  0.00  0.00    +0.000 A 
ATOM     17  C   UNL     1     -40.776 -41.682  48.522  0.00  0.00    +0.000 A 
ATOM     18  C   UNL     1     -40.162 -42.658  47.686  0.00  0.00    +0.000 A 
ATOM     19  C   UNL     1     -38.318 -44.256  47.512  0.00  0.00    +0.000 C 
BRANCH  16  20
ATOM     20  O   UNL     1     -40.645 -39.925  50.210  0.00  0.00    +0.000 OA
ATOM     21  H   UNL     1     -40.108 -39.311  49.683  0.00  0.00    +0.000 HD
ENDBRANCH  16  20
BRANCH  18  22
ATOM     22  O   UNL     1     -40.636 -42.959  46.431  0.00  0.00    +0.000 OA
ATOM     23  H   UNL     1     -41.544 -42.616  46.322  0.00  0.00    +0.000 HD
ENDBRANCH  18  22
ENDBRANCH  12  13
ENDBRANCH   7  11
BRANCH   2  24
ATOM     24  C   UNL     1     -31.759 -48.241  51.910  0.00  0.00    +0.000 C 
ATOM     25  C   UNL     1     -30.423 -48.108  51.224  0.00  0.00    +0.000 C 
BRANCH  24  26
ATOM     26  C   UNL     1     -31.867 -49.323  52.826  0.00  0.00    +0.000 C 
ATOM     27  C   UNL     1     -31.993 -50.499  53.803  0.00  0.00    +0.000 C 
BRANCH  27  28
ATOM     28  C   UNL     1     -32.128 -51.680  54.772  0.00  0.00    +0.000 C 
BRANCH  28  29
ATOM     29  C   UNL     1     -32.255 -52.810  55.692  0.00  0.00    +0.000 C 
ATOM     30  C   UNL     1     -32.027 -54.163  55.009  0.00  0.00    +0.000 C 
ATOM     31  C   UNL     1     -31.369 -52.677  56.936  0.00  0.00    +0.000 C 
BRANCH  29  32
ATOM     32  O   UNL     1     -33.576 -52.855  56.183  0.00  0.00    +0.000 OA
ATOM     33  H   UNL     1     -33.698 -53.816  56.178  0.00  0.00    +0.000 HD
ENDBRANCH  29  32
ENDBRANCH  28  29
ENDBRANCH  27  28
ENDBRANCH  24  26
ENDBRANCH   2  24
TORSDOF 9
ENDMDL
MODEL 8
REMARK VINA RESULT:      -6.9     23.814     28.136
REMARK  Name = Calcitriol.pdbqt.pdb
REMARK  9 active torsions:
REMARK  status: ('A' for Active; 'I' for Inactive)
REMARK    1  A    between atoms: C_2  and  C_24
REMARK    2  A    between atoms: C_7  and  C_11
REMARK    3  A    between atoms: C_12  and  C_13
REMARK    4  A    between atoms: C_16  and  O_20
REMARK    5  A    between atoms: C_18  and  O_22
REMARK    6  A    between atoms: C_24  and  C_26
REMARK    7  A    between atoms: C_27  and  C_28
REMARK    8  A    between atoms: C_28  and  C_29
REMARK    9  A    between atoms: C_29  and  O_32
REMARK                            x       y       z     vdW  Elec       q    Type
REMARK                         _______ _______ _______ _____ _____    ______ ____
ROOT
ATOM      1  C   UNL     1     -45.039 -38.472  50.258  0.00  0.00    +0.000 C 
ATOM      2  C   UNL     1     -46.192 -38.272  49.278  0.00  0.00    +0.000 C 
ATOM      3  C   UNL     1     -43.940 -39.270  49.368  0.00  0.00    +0.000 C 
ATOM      4  C   UNL     1     -45.801 -38.716  47.980  0.00  0.00    +0.000 C 
ATOM      5  C   UNL     1     -44.416 -39.301  48.020  0.00  0.00    +0.000 C 
ATOM      6  C   UNL     1     -45.358 -39.337  51.405  0.00  0.00    +0.000 C 
ATOM      7  C   UNL     1     -43.192 -40.400  49.932  0.00  0.00    +0.000 C 
ATOM      8  C   UNL     1     -44.397 -37.110  50.647  0.00  0.00    +0.000 C 
ATOM      9  C   UNL     1     -44.839 -40.584  52.098  0.00  0.00    +0.000 C 
ATOM     10  C   UNL     1     -43.705 -40.917  51.151  0.00  0.00    +0.000 C 
ENDROOT
BRANCH   7  11
ATOM     11  C   UNL     1     -42.219 -41.008  49.329  0.00  0.00    +0.000 C 
ATOM     12  C   UNL     1     -41.061 -41.729  48.628  0.00  0.00    +0.000 C 
BRANCH  12  13
ATOM     13  C   UNL     1     -40.078 -42.343  48.043  0.00  0.00    +0.000 A 
ATOM     14  C   UNL     1     -39.156 -43.110  48.825  0.00  0.00    +0.000 A 
ATOM     15  C   UNL     1     -39.737 -42.301  46.585  0.00  0.00    +0.000 A 
ATOM     16  C   UNL     1     -37.978 -43.844  48.500  0.00  0.00    +0.000 A 
ATOM     17  C   UNL     1     -37.771 -43.713  47.098  0.00  0.00    +0.000 A 
ATOM     18  C   UNL     1     -38.519 -43.024  46.100  0.00  0.00    +0.000 A 
ATOM     19  C   UNL     1     -40.495 -41.641  45.691  0.00  0.00    +0.000 C 
BRANCH  16  20
ATOM     20  O   UNL     1     -37.642 -44.980  49.179  0.00  0.00    +0.000 OA
ATOM     21  H   UNL     1     -38.004 -44.971  50.081  0.00  0.00    +0.000 HD
ENDBRANCH  16  20
BRANCH  18  22
ATOM     22  O   UNL     1     -38.160 -43.029  44.774  0.00  0.00    +0.000 OA
ATOM     23  H   UNL     1     -37.778 -42.165  44.524  0.00  0.00    +0.000 HD
ENDBRANCH  18  22
ENDBRANCH  12  13
ENDBRANCH   7  11
BRANCH   2  24
ATOM     24  C   UNL     1     -47.414 -37.592  49.571  0.00  0.00    +0.000 C 
ATOM     25  C   UNL     1     -48.210 -36.848  48.530  0.00  0.00    +0.000 C 
BRANCH  24  26
ATOM     26  C   UNL     1     -47.855 -37.420  50.911  0.00  0.00    +0.000 C 
ATOM     27  C   UNL     1     -48.338 -37.250  52.357  0.00  0.00    +0.000 C 
BRANCH  27  28
ATOM     28  C   UNL     1     -48.826 -37.092  53.803  0.00  0.00    +0.000 C 
BRANCH  28  29
ATOM     29  C   UNL     1     -49.295 -36.941  55.180  0.00  0.00    +0.000 C 
ATOM     30  C   UNL     1     -48.377 -36.052  56.027  0.00  0.00    +0.000 C 
ATOM     31  C   UNL     1     -50.748 -36.460  55.273  0.00  0.00    +0.000 C 
BRANCH  29  32
ATOM     32  O   UNL     1     -49.282 -38.202  55.811  0.00  0.00    +0.000 OA
ATOM     33  H   UNL     1     -50.143 -38.150  56.252  0.00  0.00    +0.000 HD
ENDBRANCH  29  32
ENDBRANCH  28  29
ENDBRANCH  27  28
ENDBRANCH  24  26
ENDBRANCH   2  24
TORSDOF 9
ENDMDL
MODEL 9
REMARK VINA RESULT:      -6.8      4.858     11.244
REMARK  Name = Calcitriol.pdbqt.pdb
REMARK  9 active torsions:
REMARK  status: ('A' for Active; 'I' for Inactive)
REMARK    1  A    between atoms: C_2  and  C_24
REMARK    2  A    between atoms: C_7  and  C_11
REMARK    3  A    between atoms: C_12  and  C_13
REMARK    4  A    between atoms: C_16  and  O_20
REMARK    5  A    between atoms: C_18  and  O_22
REMARK    6  A    between atoms: C_24  and  C_26
REMARK    7  A    between atoms: C_27  and  C_28
REMARK    8  A    between atoms: C_28  and  C_29
REMARK    9  A    between atoms: C_29  and  O_32
REMARK                            x       y       z     vdW  Elec       q    Type
REMARK                         _______ _______ _______ _____ _____    ______ ____
ROOT
ATOM      1  C   UNL     1     -45.678 -61.584  35.920  0.00  0.00    +0.000 C 
ATOM      2  C   UNL     1     -44.246 -61.058  35.923  0.00  0.00    +0.000 C 
ATOM      3  C   UNL     1     -45.652 -62.699  34.739  0.00  0.00    +0.000 C 
ATOM      4  C   UNL     1     -43.449 -61.828  35.025  0.00  0.00    +0.000 C 
ATOM      5  C   UNL     1     -44.294 -62.851  34.318  0.00  0.00    +0.000 C 
ATOM      6  C   UNL     1     -46.692 -60.589  35.536  0.00  0.00    +0.000 C 
ATOM      7  C   UNL     1     -46.757 -62.803  33.779  0.00  0.00    +0.000 C 
ATOM      8  C   UNL     1     -45.996 -62.341  37.241  0.00  0.00    +0.000 C 
ATOM      9  C   UNL     1     -47.822 -60.409  34.539  0.00  0.00    +0.000 C 
ATOM     10  C   UNL     1     -47.655 -61.703  33.768  0.00  0.00    +0.000 C 
ENDROOT
BRANCH   7  11
ATOM     11  C   UNL     1     -46.867 -63.737  32.886  0.00  0.00    +0.000 C 
ATOM     12  C   UNL     1     -46.993 -64.851  31.840  0.00  0.00    +0.000 C 
BRANCH  12  13
ATOM     13  C   UNL     1     -47.101 -65.801  30.962  0.00  0.00    +0.000 A 
ATOM     14  C   UNL     1     -47.246 -67.157  31.398  0.00  0.00    +0.000 A 
ATOM     15  C   UNL     1     -47.035 -65.655  29.473  0.00  0.00    +0.000 A 
ATOM     16  C   UNL     1     -47.340 -68.399  30.706  0.00  0.00    +0.000 A 
ATOM     17  C   UNL     1     -47.255 -68.114  29.314  0.00  0.00    +0.000 A 
ATOM     18  C   UNL     1     -47.115 -66.880  28.616  0.00  0.00    +0.000 A 
ATOM     19  C   UNL     1     -46.914 -64.456  28.876  0.00  0.00    +0.000 C 
BRANCH  16  20
ATOM     20  O   UNL     1     -48.099 -69.424  31.191  0.00  0.00    +0.000 OA
ATOM     21  H   UNL     1     -47.542 -70.147  31.526  0.00  0.00    +0.000 HD
ENDBRANCH  16  20
BRANCH  18  22
ATOM     22  O   UNL     1     -47.067 -66.809  27.244  0.00  0.00    +0.000 OA
ATOM     23  H   UNL     1     -47.919 -67.096  26.862  0.00  0.00    +0.000 HD
ENDBRANCH  18  22
ENDBRANCH  12  13
ENDBRANCH   7  11
BRANCH   2  24
ATOM     24  C   UNL     1     -43.737 -60.059  36.810  0.00  0.00    +0.000 C 
ATOM     25  C   UNL     1     -43.365 -60.345  38.242  0.00  0.00    +0.000 C 
BRANCH  24  26
ATOM     26  C   UNL     1     -43.728 -58.686  36.442  0.00  0.00    +0.000 C 
ATOM     27  C   UNL     1     -43.729 -57.201  36.057  0.00  0.00    +0.000 C 
BRANCH  27  28
ATOM     28  C   UNL     1     -43.742 -55.714  35.681  0.00  0.00    +0.000 C 
BRANCH  28  29
ATOM     29  C   UNL     1     -43.754 -54.296  35.326  0.00  0.00    +0.000 C 
ATOM     30  C   UNL     1     -42.435 -53.587  35.659  0.00  0.00    +0.000 C 
ATOM     31  C   UNL     1     -44.150 -54.042  33.867  0.00  0.00    +0.000 C 
BRANCH  29  32
ATOM     32  O   UNL     1     -44.737 -53.639  36.095  0.00  0.00    +0.000 OA
ATOM     33  H   UNL     1     -45.214 -53.202  35.374  0.00  0.00    +0.000 HD
ENDBRANCH  29  32
ENDBRANCH  28  29
ENDBRANCH  27  28
ENDBRANCH  24  26
ENDBRANCH   2  24
TORSDOF 9
ENDMDL
