MODEL 1
REMARK VINA RESULT:      -9.0      0.000      0.000
REMARK  Name = 
REMARK  17 active torsions:
REMARK  status: ('A' for Active; 'I' for Inactive)
REMARK    1  A    between atoms: O_1  and  C_14
REMARK    2  A    between atoms: O_2  and  C_32
REMARK    3  A    between atoms: O_2  and  C_36
REMARK    4  A    between atoms: O_6  and  C_39
REMARK    5  A    between atoms: O_7  and  C_41
REMARK    6  A    between atoms: O_7  and  C_43
REMARK    7  A    between atoms: O_9  and  C_47
REMARK    8  A    between atoms: O_9  and  C_49
REMARK    9  A    between atoms: O_10  and  C_45
REMARK   10  A    between atoms: O_12  and  C_51
REMARK   11  A    between atoms: O_13  and  C_53
REMARK   12  A    between atoms: C_17  and  C_29
REMARK   13  A    between atoms: C_18  and  C_30
REMARK   14  A    between atoms: C_22  and  C_33
REMARK   15  A    between atoms: C_40  and  C_42
REMARK   16  A    between atoms: C_46  and  C_48
REMARK   17  A    between atoms: C_52  and  C_54
REMARK                            x       y       z     vdW  Elec       q    Type
REMARK                         _______ _______ _______ _____ _____    ______ ____
ROOT
ATOM      1  O   UNL     1     -43.617 -68.889  38.493  0.00  0.00    +0.000 OA
ATOM      2  C   UNL     1     -44.627 -68.493  37.570  0.00  0.00    +0.000 C 
ATOM      3  C   UNL     1     -46.013 -68.426  38.217  0.00  0.00    +0.000 C 
ATOM      4  C   UNL     1     -45.929 -68.564  39.729  0.00  0.00    +0.000 C 
ATOM      5  C   UNL     1     -43.460 -67.956  39.569  0.00  0.00    +0.000 C 
ATOM      6  C   UNL     1     -44.773 -67.764  40.365  0.00  0.00    +0.000 C 
ATOM      7  C   UNL     1     -42.347 -68.501  40.464  0.00  0.00    +0.000 C 
ENDROOT
BRANCH   4   8
ATOM      8  O   UNL     1     -47.188 -68.326  40.349  0.00  0.00    +0.000 OA
ATOM      9  H   UNL     1     -47.691 -69.165  40.282  0.00  0.00    +0.000 HD
ENDBRANCH   4   8
BRANCH   2  10
ATOM     10  O   UNL     1     -44.643 -69.316  36.404  0.00  0.00    +0.000 OA
BRANCH  10  29
ATOM     11  C   UNL     1     -46.892 -66.023  29.722  0.00  0.00    +0.000 C 
ATOM     12  C   UNL     1     -46.434 -66.735  31.024  0.00  0.00    +0.000 C 
ATOM     13  C   UNL     1     -44.910 -67.014  31.073  0.00  0.00    +0.000 C 
ATOM     14  C   UNL     1     -46.045 -64.775  29.345  0.00  0.00    +0.000 C 
ATOM     15  C   UNL     1     -44.447 -67.735  32.405  0.00  0.00    +0.000 C 
ATOM     16  C   UNL     1     -45.353 -68.980  32.684  0.00  0.00    +0.000 C 
ATOM     17  C   UNL     1     -44.131 -65.719  30.767  0.00  0.00    +0.000 C 
ATOM     18  C   UNL     1     -44.535 -65.107  29.425  0.00  0.00    +0.000 C 
ATOM     19  C   UNL     1     -46.513 -64.522  27.876  0.00  0.00    +0.000 C 
ATOM     20  C   UNL     1     -47.226 -68.029  31.263  0.00  0.00    +0.000 C 
ATOM     21  C   UNL     1     -46.841 -66.897  28.457  0.00  0.00    +0.000 C 
ATOM     22  C   UNL     1     -46.856 -68.659  32.596  0.00  0.00    +0.000 C 
ATOM     23  C   UNL     1     -46.645 -65.937  27.277  0.00  0.00    +0.000 C 
ATOM     24  C   UNL     1     -44.480 -66.778  33.629  0.00  0.00    +0.000 C 
ATOM     25  C   UNL     1     -45.052 -69.644  34.043  0.00  0.00    +0.000 C 
ATOM     26  C   UNL     1     -46.355 -63.561  30.243  0.00  0.00    +0.000 C 
ATOM     27  C   UNL     1     -42.985 -68.224  32.198  0.00  0.00    +0.000 C 
ATOM     28  C   UNL     1     -44.180 -67.471  34.959  0.00  0.00    +0.000 C 
ATOM     29  C   UNL     1     -45.102 -68.661  35.216  0.00  0.00    +0.000 C 
BRANCH  19  32
ATOM     30  O   UNL     1     -44.127 -62.825  25.544  0.00  0.00    +0.000 OA
ATOM     31  O   UNL     1     -44.426 -60.582  25.938  0.00  0.00    +0.000 OA
ATOM     32  C   UNL     1     -45.710 -63.546  27.058  0.00  0.00    +0.000 C 
ATOM     33  C   UNL     1     -44.715 -64.017  26.063  0.00  0.00    +0.000 C 
ATOM     34  C   UNL     1     -45.685 -62.214  27.121  0.00  0.00    +0.000 C 
ATOM     35  C   UNL     1     -44.693 -61.750  26.153  0.00  0.00    +0.000 C 
ENDBRANCH  19  32
BRANCH  11  36
ATOM     36  O   UNL     1     -48.269 -65.634  29.872  0.00  0.00    +0.000 OA
ATOM     37  H   UNL     1     -48.831 -66.338  29.506  0.00  0.00    +0.000 HD
ENDBRANCH  11  36
ENDBRANCH  10  29
ENDBRANCH   2  10
BRANCH   6  38
ATOM     38  O   UNL     1     -44.970 -66.405  40.767  0.00  0.00    +0.000 OA
BRANCH  38  40
ATOM     39  O   UNL     1     -44.742 -64.967  38.893  0.00  0.00    +0.000 OA
ATOM     40  C   UNL     1     -45.565 -65.391  39.971  0.00  0.00    +0.000 C 
ATOM     41  C   UNL     1     -46.143 -64.203  40.735  0.00  0.00    +0.000 C 
ATOM     42  C   UNL     1     -46.066 -62.904  39.939  0.00  0.00    +0.000 C 
ATOM     43  C   UNL     1     -45.520 -64.313  37.872  0.00  0.00    +0.000 C 
ATOM     44  C   UNL     1     -46.255 -63.062  38.417  0.00  0.00    +0.000 C 
ATOM     45  C   UNL     1     -44.551 -63.939  36.753  0.00  0.00    +0.000 C 
BRANCH  42  46
ATOM     46  O   UNL     1     -46.940 -61.919  40.488  0.00  0.00    +0.000 OA
ATOM     47  H   UNL     1     -47.671 -62.377  40.939  0.00  0.00    +0.000 HD
ENDBRANCH  42  46
BRANCH  44  48
ATOM     48  O   UNL     1     -47.584 -62.956  37.892  0.00  0.00    +0.000 OA
BRANCH  48  50
ATOM     49  O   UNL     1     -47.811 -62.540  35.592  0.00  0.00    +0.000 OA
ATOM     50  C   UNL     1     -47.854 -61.976  36.898  0.00  0.00    +0.000 C 
ATOM     51  C   UNL     1     -46.757 -60.912  37.020  0.00  0.00    +0.000 C 
ATOM     52  C   UNL     1     -46.472 -60.219  35.690  0.00  0.00    +0.000 C 
ATOM     53  C   UNL     1     -48.240 -61.621  34.570  0.00  0.00    +0.000 C 
ATOM     54  C   UNL     1     -47.719 -60.191  34.804  0.00  0.00    +0.000 C 
ATOM     55  C   UNL     1     -47.730 -62.188  33.250  0.00  0.00    +0.000 C 
BRANCH  52  56
ATOM     56  O   UNL     1     -46.051 -58.874  35.951  0.00  0.00    +0.000 OA
ATOM     57  H   UNL     1     -45.079 -58.879  36.017  0.00  0.00    +0.000 HD
ENDBRANCH  52  56
BRANCH  54  58
ATOM     58  O   UNL     1     -48.732 -59.424  35.478  0.00  0.00    +0.000 OA
ATOM     59  H   UNL     1     -48.289 -59.024  36.255  0.00  0.00    +0.000 HD
ENDBRANCH  54  58
ENDBRANCH  48  50
ENDBRANCH  44  48
ENDBRANCH  38  40
ENDBRANCH   6  38
TORSDOF 12
ENDMDL
MODEL 2
REMARK VINA RESULT:      -8.8      1.995      6.273
REMARK  Name = 
REMARK  17 active torsions:
REMARK  status: ('A' for Active; 'I' for Inactive)
REMARK    1  A    between atoms: O_1  and  C_14
REMARK    2  A    between atoms: O_2  and  C_32
REMARK    3  A    between atoms: O_2  and  C_36
REMARK    4  A    between atoms: O_6  and  C_39
REMARK    5  A    between atoms: O_7  and  C_41
REMARK    6  A    between atoms: O_7  and  C_43
REMARK    7  A    between atoms: O_9  and  C_47
REMARK    8  A    between atoms: O_9  and  C_49
REMARK    9  A    between atoms: O_10  and  C_45
REMARK   10  A    between atoms: O_12  and  C_51
REMARK   11  A    between atoms: O_13  and  C_53
REMARK   12  A    between atoms: C_17  and  C_29
REMARK   13  A    between atoms: C_18  and  C_30
REMARK   14  A    between atoms: C_22  and  C_33
REMARK   15  A    between atoms: C_40  and  C_42
REMARK   16  A    between atoms: C_46  and  C_48
REMARK   17  A    between atoms: C_52  and  C_54
REMARK                            x       y       z     vdW  Elec       q    Type
REMARK                         _______ _______ _______ _____ _____    ______ ____
ROOT
ATOM      1  O   UNL     1     -46.691 -62.481  39.743  0.00  0.00    +0.000 OA
ATOM      2  C   UNL     1     -46.157 -62.454  38.422  0.00  0.00    +0.000 C 
ATOM      3  C   UNL     1     -44.670 -62.091  38.404  0.00  0.00    +0.000 C 
ATOM      4  C   UNL     1     -44.080 -62.088  39.806  0.00  0.00    +0.000 C 
ATOM      5  C   UNL     1     -46.074 -63.480  40.564  0.00  0.00    +0.000 C 
ATOM      6  C   UNL     1     -44.546 -63.269  40.681  0.00  0.00    +0.000 C 
ATOM      7  C   UNL     1     -46.749 -63.401  41.933  0.00  0.00    +0.000 C 
ENDROOT
BRANCH   4   8
ATOM      8  O   UNL     1     -42.666 -61.928  39.780  0.00  0.00    +0.000 OA
ATOM      9  H   UNL     1     -42.444 -61.584  38.889  0.00  0.00    +0.000 HD
ENDBRANCH   4   8
BRANCH   2  10
ATOM     10  O   UNL     1     -46.906 -61.600  37.557  0.00  0.00    +0.000 OA
BRANCH  10  29
ATOM     11  C   UNL     1     -45.582 -62.279  29.920  0.00  0.00    +0.000 C 
ATOM     12  C   UNL     1     -45.900 -62.111  31.431  0.00  0.00    +0.000 C 
ATOM     13  C   UNL     1     -47.078 -62.993  31.917  0.00  0.00    +0.000 C 
ATOM     14  C   UNL     1     -45.453 -63.757  29.455  0.00  0.00    +0.000 C 
ATOM     15  C   UNL     1     -47.394 -62.823  33.459  0.00  0.00    +0.000 C 
ATOM     16  C   UNL     1     -47.518 -61.304  33.816  0.00  0.00    +0.000 C 
ATOM     17  C   UNL     1     -46.846 -64.457  31.491  0.00  0.00    +0.000 C 
ATOM     18  C   UNL     1     -46.645 -64.593  29.981  0.00  0.00    +0.000 C 
ATOM     19  C   UNL     1     -45.490 -63.593  27.901  0.00  0.00    +0.000 C 
ATOM     20  C   UNL     1     -46.146 -60.638  31.791  0.00  0.00    +0.000 C 
ATOM     21  C   UNL     1     -46.639 -61.688  28.969  0.00  0.00    +0.000 C 
ATOM     22  C   UNL     1     -46.340 -60.467  33.289  0.00  0.00    +0.000 C 
ATOM     23  C   UNL     1     -46.548 -62.495  27.668  0.00  0.00    +0.000 C 
ATOM     24  C   UNL     1     -46.310 -63.485  34.355  0.00  0.00    +0.000 C 
ATOM     25  C   UNL     1     -47.680 -61.059  35.330  0.00  0.00    +0.000 C 
ATOM     26  C   UNL     1     -44.129 -64.402  29.913  0.00  0.00    +0.000 C 
ATOM     27  C   UNL     1     -48.760 -63.511  33.744  0.00  0.00    +0.000 C 
ATOM     28  C   UNL     1     -46.500 -63.219  35.848  0.00  0.00    +0.000 C 
ATOM     29  C   UNL     1     -46.585 -61.728  36.167  0.00  0.00    +0.000 C 
BRANCH  19  32
ATOM     30  O   UNL     1     -45.531 -66.227  25.243  0.00  0.00    +0.000 OA
ATOM     31  O   UNL     1     -46.731 -67.957  26.157  0.00  0.00    +0.000 OA
ATOM     32  C   UNL     1     -45.665 -64.844  27.083  0.00  0.00    +0.000 C 
ATOM     33  C   UNL     1     -45.122 -64.940  25.705  0.00  0.00    +0.000 C 
ATOM     34  C   UNL     1     -46.335 -65.958  27.379  0.00  0.00    +0.000 C 
ATOM     35  C   UNL     1     -46.242 -66.844  26.221  0.00  0.00    +0.000 C 
ENDBRANCH  19  32
BRANCH  11  36
ATOM     36  O   UNL     1     -44.360 -61.580  29.627  0.00  0.00    +0.000 OA
ATOM     37  H   UNL     1     -44.191 -61.638  28.671  0.00  0.00    +0.000 HD
ENDBRANCH  11  36
ENDBRANCH  10  29
ENDBRANCH   2  10
BRANCH   6  38
ATOM     38  O   UNL     1     -43.826 -64.506  40.669  0.00  0.00    +0.000 OA
BRANCH  38  40
ATOM     39  O   UNL     1     -44.046 -65.146  38.395  0.00  0.00    +0.000 OA
ATOM     40  C   UNL     1     -44.034 -65.569  39.751  0.00  0.00    +0.000 C 
ATOM     41  C   UNL     1     -45.208 -66.492  40.061  0.00  0.00    +0.000 C 
ATOM     42  C   UNL     1     -45.843 -67.072  38.800  0.00  0.00    +0.000 C 
ATOM     43  C   UNL     1     -43.793 -66.250  37.504  0.00  0.00    +0.000 C 
ATOM     44  C   UNL     1     -44.856 -67.368  37.653  0.00  0.00    +0.000 C 
ATOM     45  C   UNL     1     -43.788 -65.680  36.088  0.00  0.00    +0.000 C 
BRANCH  42  46
ATOM     46  O   UNL     1     -46.655 -68.202  39.113  0.00  0.00    +0.000 OA
ATOM     47  H   UNL     1     -46.213 -68.710  39.816  0.00  0.00    +0.000 HD
ENDBRANCH  42  46
BRANCH  44  48
ATOM     48  O   UNL     1     -44.266 -68.673  37.597  0.00  0.00    +0.000 OA
BRANCH  48  50
ATOM     49  O   UNL     1     -43.272 -69.160  35.526  0.00  0.00    +0.000 OA
ATOM     50  C   UNL     1     -44.370 -69.422  36.393  0.00  0.00    +0.000 C 
ATOM     51  C   UNL     1     -45.666 -68.977  35.708  0.00  0.00    +0.000 C 
ATOM     52  C   UNL     1     -45.596 -69.115  34.189  0.00  0.00    +0.000 C 
ATOM     53  C   UNL     1     -43.252 -70.020  34.371  0.00  0.00    +0.000 C 
ATOM     54  C   UNL     1     -44.655 -70.251  33.781  0.00  0.00    +0.000 C 
ATOM     55  C   UNL     1     -42.330 -69.349  33.360  0.00  0.00    +0.000 C 
BRANCH  52  56
ATOM     56  O   UNL     1     -46.910 -69.392  33.690  0.00  0.00    +0.000 OA
ATOM     57  H   UNL     1     -47.520 -68.754  34.102  0.00  0.00    +0.000 HD
ENDBRANCH  52  56
BRANCH  54  58
ATOM     58  O   UNL     1     -45.188 -71.483  34.300  0.00  0.00    +0.000 OA
ATOM     59  H   UNL     1     -45.766 -71.228  35.048  0.00  0.00    +0.000 HD
ENDBRANCH  54  58
ENDBRANCH  48  50
ENDBRANCH  44  48
ENDBRANCH  38  40
ENDBRANCH   6  38
TORSDOF 12
ENDMDL
MODEL 3
REMARK VINA RESULT:      -8.6     22.045     24.756
REMARK  Name = 
REMARK  17 active torsions:
REMARK  status: ('A' for Active; 'I' for Inactive)
REMARK    1  A    between atoms: O_1  and  C_14
REMARK    2  A    between atoms: O_2  and  C_32
REMARK    3  A    between atoms: O_2  and  C_36
REMARK    4  A    between atoms: O_6  and  C_39
REMARK    5  A    between atoms: O_7  and  C_41
REMARK    6  A    between atoms: O_7  and  C_43
REMARK    7  A    between atoms: O_9  and  C_47
REMARK    8  A    between atoms: O_9  and  C_49
REMARK    9  A    between atoms: O_10  and  C_45
REMARK   10  A    between atoms: O_12  and  C_51
REMARK   11  A    between atoms: O_13  and  C_53
REMARK   12  A    between atoms: C_17  and  C_29
REMARK   13  A    between atoms: C_18  and  C_30
REMARK   14  A    between atoms: C_22  and  C_33
REMARK   15  A    between atoms: C_40  and  C_42
REMARK   16  A    between atoms: C_46  and  C_48
REMARK   17  A    between atoms: C_52  and  C_54
REMARK                            x       y       z     vdW  Elec       q    Type
REMARK                         _______ _______ _______ _____ _____    ______ ____
ROOT
ATOM      1  O   UNL     1     -69.311 -69.476  43.429  0.00  0.00    +0.000 OA
ATOM      2  C   UNL     1     -68.987 -70.642  42.676  0.00  0.00    +0.000 C 
ATOM      3  C   UNL     1     -69.604 -71.910  43.273  0.00  0.00    +0.000 C 
ATOM      4  C   UNL     1     -70.601 -71.578  44.373  0.00  0.00    +0.000 C 
ATOM      5  C   UNL     1     -70.718 -69.208  43.447  0.00  0.00    +0.000 C 
ATOM      6  C   UNL     1     -71.524 -70.388  44.041  0.00  0.00    +0.000 C 
ATOM      7  C   UNL     1     -70.913 -67.936  44.272  0.00  0.00    +0.000 C 
ENDROOT
BRANCH   4   8
ATOM      8  O   UNL     1     -71.307 -72.736  44.807  0.00  0.00    +0.000 OA
ATOM      9  H   UNL     1     -71.914 -72.438  45.517  0.00  0.00    +0.000 HD
ENDBRANCH   4   8
BRANCH   2  10
ATOM     10  O   UNL     1     -67.579 -70.791  42.496  0.00  0.00    +0.000 OA
BRANCH  10  29
ATOM     11  C   UNL     1     -63.599 -64.437  40.415  0.00  0.00    +0.000 C 
ATOM     12  C   UNL     1     -64.386 -65.728  40.771  0.00  0.00    +0.000 C 
ATOM     13  C   UNL     1     -63.487 -66.983  40.903  0.00  0.00    +0.000 C 
ATOM     14  C   UNL     1     -62.349 -64.184  41.305  0.00  0.00    +0.000 C 
ATOM     15  C   UNL     1     -64.292 -68.296  41.272  0.00  0.00    +0.000 C 
ATOM     16  C   UNL     1     -65.516 -68.461  40.311  0.00  0.00    +0.000 C 
ATOM     17  C   UNL     1     -62.312 -66.688  41.859  0.00  0.00    +0.000 C 
ATOM     18  C   UNL     1     -61.498 -65.473  41.413  0.00  0.00    +0.000 C 
ATOM     19  C   UNL     1     -61.620 -63.065  40.495  0.00  0.00    +0.000 C 
ATOM     20  C   UNL     1     -65.524 -65.984  39.772  0.00  0.00    +0.000 C 
ATOM     21  C   UNL     1     -63.043 -64.396  38.981  0.00  0.00    +0.000 C 
ATOM     22  C   UNL     1     -66.361 -67.181  40.192  0.00  0.00    +0.000 C 
ATOM     23  C   UNL     1     -61.809 -63.486  39.023  0.00  0.00    +0.000 C 
ATOM     24  C   UNL     1     -64.781 -68.286  42.747  0.00  0.00    +0.000 C 
ATOM     25  C   UNL     1     -66.429 -69.640  40.706  0.00  0.00    +0.000 C 
ATOM     26  C   UNL     1     -62.724 -63.693  42.717  0.00  0.00    +0.000 C 
ATOM     27  C   UNL     1     -63.340 -69.510  41.073  0.00  0.00    +0.000 C 
ATOM     28  C   UNL     1     -65.685 -69.466  43.103  0.00  0.00    +0.000 C 
ATOM     29  C   UNL     1     -66.887 -69.581  42.167  0.00  0.00    +0.000 C 
BRANCH  19  32
ATOM     30  O   UNL     1     -58.478 -61.518  41.815  0.00  0.00    +0.000 OA
ATOM     31  O   UNL     1     -56.800 -62.920  41.115  0.00  0.00    +0.000 OA
ATOM     32  C   UNL     1     -60.207 -62.737  40.898  0.00  0.00    +0.000 C 
ATOM     33  C   UNL     1     -59.899 -61.514  41.681  0.00  0.00    +0.000 C 
ATOM     34  C   UNL     1     -59.075 -63.372  40.595  0.00  0.00    +0.000 C 
ATOM     35  C   UNL     1     -57.976 -62.611  41.185  0.00  0.00    +0.000 C 
ENDBRANCH  19  32
BRANCH  11  36
ATOM     36  O   UNL     1     -64.491 -63.313  40.519  0.00  0.00    +0.000 OA
ATOM     37  H   UNL     1     -65.405 -63.645  40.555  0.00  0.00    +0.000 HD
ENDBRANCH  11  36
ENDBRANCH  10  29
ENDBRANCH   2  10
BRANCH   6  38
ATOM     38  O   UNL     1     -72.760 -70.601  43.352  0.00  0.00    +0.000 OA
BRANCH  38  40
ATOM     39  O   UNL     1     -73.816 -69.572  41.493  0.00  0.00    +0.000 OA
ATOM     40  C   UNL     1     -72.929 -70.587  41.942  0.00  0.00    +0.000 C 
ATOM     41  C   UNL     1     -73.245 -71.934  41.299  0.00  0.00    +0.000 C 
ATOM     42  C   UNL     1     -74.115 -71.795  40.053  0.00  0.00    +0.000 C 
ATOM     43  C   UNL     1     -73.611 -69.285  40.096  0.00  0.00    +0.000 C 
ATOM     44  C   UNL     1     -73.844 -70.534  39.208  0.00  0.00    +0.000 C 
ATOM     45  C   UNL     1     -74.581 -68.163  39.733  0.00  0.00    +0.000 C 
BRANCH  42  46
ATOM     46  O   UNL     1     -74.070 -72.985  39.267  0.00  0.00    +0.000 OA
ATOM     47  H   UNL     1     -73.507 -73.633  39.726  0.00  0.00    +0.000 HD
ENDBRANCH  42  46
BRANCH  44  48
ATOM     48  O   UNL     1     -72.873 -70.626  38.158  0.00  0.00    +0.000 OA
BRANCH  48  50
ATOM     49  O   UNL     1     -74.729 -70.431  36.732  0.00  0.00    +0.000 OA
ATOM     50  C   UNL     1     -73.320 -70.616  36.808  0.00  0.00    +0.000 C 
ATOM     51  C   UNL     1     -72.962 -71.984  36.217  0.00  0.00    +0.000 C 
ATOM     52  C   UNL     1     -73.921 -72.403  35.105  0.00  0.00    +0.000 C 
ATOM     53  C   UNL     1     -75.198 -70.250  35.383  0.00  0.00    +0.000 C 
ATOM     54  C   UNL     1     -74.494 -71.183  34.381  0.00  0.00    +0.000 C 
ATOM     55  C   UNL     1     -76.700 -70.509  35.419  0.00  0.00    +0.000 C 
BRANCH  52  56
ATOM     56  O   UNL     1     -73.209 -73.216  34.163  0.00  0.00    +0.000 OA
ATOM     57  H   UNL     1     -72.959 -74.040  34.619  0.00  0.00    +0.000 HD
ENDBRANCH  52  56
BRANCH  54  58
ATOM     58  O   UNL     1     -73.404 -70.475  33.763  0.00  0.00    +0.000 OA
ATOM     59  H   UNL     1     -72.648 -70.559  34.381  0.00  0.00    +0.000 HD
ENDBRANCH  54  58
ENDBRANCH  48  50
ENDBRANCH  44  48
ENDBRANCH  38  40
ENDBRANCH   6  38
TORSDOF 12
ENDMDL
MODEL 4
REMARK VINA RESULT:      -8.3     17.431     23.222
REMARK  Name = 
REMARK  17 active torsions:
REMARK  status: ('A' for Active; 'I' for Inactive)
REMARK    1  A    between atoms: O_1  and  C_14
REMARK    2  A    between atoms: O_2  and  C_32
REMARK    3  A    between atoms: O_2  and  C_36
REMARK    4  A    between atoms: O_6  and  C_39
REMARK    5  A    between atoms: O_7  and  C_41
REMARK    6  A    between atoms: O_7  and  C_43
REMARK    7  A    between atoms: O_9  and  C_47
REMARK    8  A    between atoms: O_9  and  C_49
REMARK    9  A    between atoms: O_10  and  C_45
REMARK   10  A    between atoms: O_12  and  C_51
REMARK   11  A    between atoms: O_13  and  C_53
REMARK   12  A    between atoms: C_17  and  C_29
REMARK   13  A    between atoms: C_18  and  C_30
REMARK   14  A    between atoms: C_22  and  C_33
REMARK   15  A    between atoms: C_40  and  C_42
REMARK   16  A    between atoms: C_46  and  C_48
REMARK   17  A    between atoms: C_52  and  C_54
REMARK                            x       y       z     vdW  Elec       q    Type
REMARK                         _______ _______ _______ _____ _____    ______ ____
ROOT
ATOM      1  O   UNL     1     -57.352 -74.554  43.187  0.00  0.00    +0.000 OA
ATOM      2  C   UNL     1     -57.964 -74.634  44.472  0.00  0.00    +0.000 C 
ATOM      3  C   UNL     1     -58.059 -73.268  45.157  0.00  0.00    +0.000 C 
ATOM      4  C   UNL     1     -57.700 -72.140  44.201  0.00  0.00    +0.000 C 
ATOM      5  C   UNL     1     -58.105 -73.751  42.270  0.00  0.00    +0.000 C 
ATOM      6  C   UNL     1     -58.296 -72.306  42.789  0.00  0.00    +0.000 C 
ATOM      7  C   UNL     1     -57.343 -73.766  40.945  0.00  0.00    +0.000 C 
ENDROOT
BRANCH   4   8
ATOM      8  O   UNL     1     -57.957 -70.864  44.776  0.00  0.00    +0.000 OA
ATOM      9  H   UNL     1     -57.327 -70.241  44.358  0.00  0.00    +0.000 HD
ENDBRANCH   4   8
BRANCH   2  10
ATOM     10  O   UNL     1     -57.319 -75.589  45.316  0.00  0.00    +0.000 OA
BRANCH  10  29
ATOM     11  C   UNL     1     -59.603 -75.988  52.744  0.00  0.00    +0.000 C 
ATOM     12  C   UNL     1     -59.087 -75.919  51.280  0.00  0.00    +0.000 C 
ATOM     13  C   UNL     1     -58.686 -77.299  50.700  0.00  0.00    +0.000 C 
ATOM     14  C   UNL     1     -60.687 -77.076  52.988  0.00  0.00    +0.000 C 
ATOM     15  C   UNL     1     -58.166 -77.225  49.206  0.00  0.00    +0.000 C 
ATOM     16  C   UNL     1     -57.073 -76.113  49.074  0.00  0.00    +0.000 C 
ATOM     17  C   UNL     1     -59.835 -78.308  50.906  0.00  0.00    +0.000 C 
ATOM     18  C   UNL     1     -60.240 -78.426  52.376  0.00  0.00    +0.000 C 
ATOM     19  C   UNL     1     -60.724 -77.122  54.550  0.00  0.00    +0.000 C 
ATOM     20  C   UNL     1     -57.929 -74.919  51.141  0.00  0.00    +0.000 C 
ATOM     21  C   UNL     1     -58.523 -76.304  53.794  0.00  0.00    +0.000 C 
ATOM     22  C   UNL     1     -57.507 -74.770  49.688  0.00  0.00    +0.000 C 
ATOM     23  C   UNL     1     -59.245 -76.985  54.963  0.00  0.00    +0.000 C 
ATOM     24  C   UNL     1     -59.318 -76.950  48.200  0.00  0.00    +0.000 C 
ATOM     25  C   UNL     1     -56.628 -75.885  47.615  0.00  0.00    +0.000 C 
ATOM     26  C   UNL     1     -62.060 -76.676  52.412  0.00  0.00    +0.000 C 
ATOM     27  C   UNL     1     -57.521 -78.596  48.858  0.00  0.00    +0.000 C 
ATOM     28  C   UNL     1     -58.841 -76.726  46.765  0.00  0.00    +0.000 C 
ATOM     29  C   UNL     1     -57.799 -75.614  46.665  0.00  0.00    +0.000 C 
BRANCH  19  32
ATOM     30  O   UNL     1     -61.777 -80.327  56.171  0.00  0.00    +0.000 OA
ATOM     31  O   UNL     1     -64.071 -80.225  56.224  0.00  0.00    +0.000 OA
ATOM     32  C   UNL     1     -61.470 -78.266  55.184  0.00  0.00    +0.000 C 
ATOM     33  C   UNL     1     -60.749 -79.451  55.713  0.00  0.00    +0.000 C 
ATOM     34  C   UNL     1     -62.785 -78.450  55.308  0.00  0.00    +0.000 C 
ATOM     35  C   UNL     1     -62.986 -79.749  55.946  0.00  0.00    +0.000 C 
ENDBRANCH  19  32
BRANCH  11  36
ATOM     36  O   UNL     1     -60.132 -74.700  53.104  0.00  0.00    +0.000 OA
ATOM     37  H   UNL     1     -60.043 -74.587  54.066  0.00  0.00    +0.000 HD
ENDBRANCH  11  36
ENDBRANCH  10  29
ENDBRANCH   2  10
BRANCH   6  38
ATOM     38  O   UNL     1     -59.596 -71.790  42.487  0.00  0.00    +0.000 OA
BRANCH  38  40
ATOM     39  O   UNL     1     -60.999 -70.305  41.278  0.00  0.00    +0.000 OA
ATOM     40  C   UNL     1     -59.887 -70.440  42.154  0.00  0.00    +0.000 C 
ATOM     41  C   UNL     1     -58.701 -69.602  41.688  0.00  0.00    +0.000 C 
ATOM     42  C   UNL     1     -59.106 -68.525  40.685  0.00  0.00    +0.000 C 
ATOM     43  C   UNL     1     -61.543 -68.973  41.332  0.00  0.00    +0.000 C 
ATOM     44  C   UNL     1     -60.497 -67.904  40.925  0.00  0.00    +0.000 C 
ATOM     45  C   UNL     1     -62.746 -68.952  40.392  0.00  0.00    +0.000 C 
BRANCH  42  46
ATOM     46  O   UNL     1     -58.089 -67.531  40.568  0.00  0.00    +0.000 OA
ATOM     47  H   UNL     1     -57.732 -67.565  39.664  0.00  0.00    +0.000 HD
ENDBRANCH  42  46
BRANCH  44  48
ATOM     48  O   UNL     1     -60.577 -66.740  41.758  0.00  0.00    +0.000 OA
BRANCH  48  50
ATOM     49  O   UNL     1     -59.973 -64.471  41.780  0.00  0.00    +0.000 OA
ATOM     50  C   UNL     1     -60.764 -65.469  41.146  0.00  0.00    +0.000 C 
ATOM     51  C   UNL     1     -62.246 -65.116  41.311  0.00  0.00    +0.000 C 
ATOM     52  C   UNL     1     -62.478 -63.608  41.366  0.00  0.00    +0.000 C 
ATOM     53  C   UNL     1     -60.007 -63.208  41.089  0.00  0.00    +0.000 C 
ATOM     54  C   UNL     1     -61.412 -62.855  40.567  0.00  0.00    +0.000 C 
ATOM     55  C   UNL     1     -59.508 -62.167  42.085  0.00  0.00    +0.000 C 
BRANCH  52  56
ATOM     56  O   UNL     1     -63.769 -63.320  40.814  0.00  0.00    +0.000 OA
ATOM     57  H   UNL     1     -64.381 -64.010  41.125  0.00  0.00    +0.000 HD
ENDBRANCH  52  56
BRANCH  54  58
ATOM     58  O   UNL     1     -61.517 -63.256  39.189  0.00  0.00    +0.000 OA
ATOM     59  H   UNL     1     -62.063 -62.569  38.753  0.00  0.00    +0.000 HD
ENDBRANCH  54  58
ENDBRANCH  48  50
ENDBRANCH  44  48
ENDBRANCH  38  40
ENDBRANCH   6  38
TORSDOF 12
ENDMDL
MODEL 5
REMARK VINA RESULT:      -8.3      1.010      1.476
REMARK  Name = 
REMARK  17 active torsions:
REMARK  status: ('A' for Active; 'I' for Inactive)
REMARK    1  A    between atoms: O_1  and  C_14
REMARK    2  A    between atoms: O_2  and  C_32
REMARK    3  A    between atoms: O_2  and  C_36
REMARK    4  A    between atoms: O_6  and  C_39
REMARK    5  A    between atoms: O_7  and  C_41
REMARK    6  A    between atoms: O_7  and  C_43
REMARK    7  A    between atoms: O_9  and  C_47
REMARK    8  A    between atoms: O_9  and  C_49
REMARK    9  A    between atoms: O_10  and  C_45
REMARK   10  A    between atoms: O_12  and  C_51
REMARK   11  A    between atoms: O_13  and  C_53
REMARK   12  A    between atoms: C_17  and  C_29
REMARK   13  A    between atoms: C_18  and  C_30
REMARK   14  A    between atoms: C_22  and  C_33
REMARK   15  A    between atoms: C_40  and  C_42
REMARK   16  A    between atoms: C_46  and  C_48
REMARK   17  A    between atoms: C_52  and  C_54
REMARK                            x       y       z     vdW  Elec       q    Type
REMARK                         _______ _______ _______ _____ _____    ______ ____
ROOT
ATOM      1  O   UNL     1     -43.591 -68.905  38.510  0.00  0.00    +0.000 OA
ATOM      2  C   UNL     1     -44.679 -68.485  37.690  0.00  0.00    +0.000 C 
ATOM      3  C   UNL     1     -45.981 -68.337  38.483  0.00  0.00    +0.000 C 
ATOM      4  C   UNL     1     -45.735 -68.439  39.980  0.00  0.00    +0.000 C 
ATOM      5  C   UNL     1     -43.275 -67.952  39.532  0.00  0.00    +0.000 C 
ATOM      6  C   UNL     1     -44.483 -67.677  40.460  0.00  0.00    +0.000 C 
ATOM      7  C   UNL     1     -42.095 -68.524  40.316  0.00  0.00    +0.000 C 
ENDROOT
BRANCH   4   8
ATOM      8  O   UNL     1     -46.906 -68.125  40.726  0.00  0.00    +0.000 OA
ATOM      9  H   UNL     1     -47.452 -68.940  40.737  0.00  0.00    +0.000 HD
ENDBRANCH   4   8
BRANCH   2  10
ATOM     10  O   UNL     1     -44.859 -69.338  36.559  0.00  0.00    +0.000 OA
BRANCH  10  29
ATOM     11  C   UNL     1     -47.087 -65.971  29.907  0.00  0.00    +0.000 C 
ATOM     12  C   UNL     1     -46.630 -66.697  31.202  0.00  0.00    +0.000 C 
ATOM     13  C   UNL     1     -45.097 -66.910  31.283  0.00  0.00    +0.000 C 
ATOM     14  C   UNL     1     -46.287 -64.678  29.583  0.00  0.00    +0.000 C 
ATOM     15  C   UNL     1     -44.635 -67.645  32.608  0.00  0.00    +0.000 C 
ATOM     16  C   UNL     1     -45.492 -68.935  32.832  0.00  0.00    +0.000 C 
ATOM     17  C   UNL     1     -44.369 -65.574  31.030  0.00  0.00    +0.000 C 
ATOM     18  C   UNL     1     -44.766 -64.946  29.695  0.00  0.00    +0.000 C 
ATOM     19  C   UNL     1     -46.730 -64.407  28.109  0.00  0.00    +0.000 C 
ATOM     20  C   UNL     1     -47.370 -68.030  31.388  0.00  0.00    +0.000 C 
ATOM     21  C   UNL     1     -46.966 -66.809  28.622  0.00  0.00    +0.000 C 
ATOM     22  C   UNL     1     -47.005 -68.678  32.714  0.00  0.00    +0.000 C 
ATOM     23  C   UNL     1     -46.784 -65.810  27.472  0.00  0.00    +0.000 C 
ATOM     24  C   UNL     1     -44.741 -66.723  33.855  0.00  0.00    +0.000 C 
ATOM     25  C   UNL     1     -45.195 -69.621  34.181  0.00  0.00    +0.000 C 
ATOM     26  C   UNL     1     -46.673 -63.503  30.504  0.00  0.00    +0.000 C 
ATOM     27  C   UNL     1     -43.149 -68.063  32.426  0.00  0.00    +0.000 C 
ATOM     28  C   UNL     1     -44.444 -67.436  35.174  0.00  0.00    +0.000 C 
ATOM     29  C   UNL     1     -45.318 -68.672  35.377  0.00  0.00    +0.000 C 
BRANCH  19  32
ATOM     30  O   UNL     1     -44.361 -62.546  25.888  0.00  0.00    +0.000 OA
ATOM     31  O   UNL     1     -44.778 -60.330  26.322  0.00  0.00    +0.000 OA
ATOM     32  C   UNL     1     -45.951 -63.375  27.338  0.00  0.00    +0.000 C 
ATOM     33  C   UNL     1     -44.906 -63.776  26.363  0.00  0.00    +0.000 C 
ATOM     34  C   UNL     1     -45.991 -62.046  27.430  0.00  0.00    +0.000 C 
ATOM     35  C   UNL     1     -44.995 -61.513  26.503  0.00  0.00    +0.000 C 
ENDBRANCH  19  32
BRANCH  11  36
ATOM     36  O   UNL     1     -48.483 -65.648  30.031  0.00  0.00    +0.000 OA
ATOM     37  H   UNL     1     -48.587 -64.991  30.741  0.00  0.00    +0.000 HD
ENDBRANCH  11  36
ENDBRANCH  10  29
ENDBRANCH   2  10
BRANCH   6  38
ATOM     38  O   UNL     1     -44.574 -66.301  40.838  0.00  0.00    +0.000 OA
BRANCH  38  40
ATOM     39  O   UNL     1     -43.842 -64.486  39.495  0.00  0.00    +0.000 OA
ATOM     40  C   UNL     1     -44.949 -65.235  39.978  0.00  0.00    +0.000 C 
ATOM     41  C   UNL     1     -46.059 -64.325  40.495  0.00  0.00    +0.000 C 
ATOM     42  C   UNL     1     -45.917 -62.890  39.996  0.00  0.00    +0.000 C 
ATOM     43  C   UNL     1     -44.192 -63.748  38.308  0.00  0.00    +0.000 C 
ATOM     44  C   UNL     1     -45.351 -62.752  38.568  0.00  0.00    +0.000 C 
ATOM     45  C   UNL     1     -42.930 -63.019  37.857  0.00  0.00    +0.000 C 
BRANCH  42  46
ATOM     46  O   UNL     1     -47.139 -62.172  40.159  0.00  0.00    +0.000 OA
ATOM     47  H   UNL     1     -47.049 -61.311  39.714  0.00  0.00    +0.000 HD
ENDBRANCH  42  46
BRANCH  44  48
ATOM     48  O   UNL     1     -46.281 -62.724  37.478  0.00  0.00    +0.000 OA
BRANCH  48  50
ATOM     49  O   UNL     1     -45.664 -60.652  36.563  0.00  0.00    +0.000 OA
ATOM     50  C   UNL     1     -45.929 -62.023  36.292  0.00  0.00    +0.000 C 
ATOM     51  C   UNL     1     -47.132 -62.125  35.348  0.00  0.00    +0.000 C 
ATOM     52  C   UNL     1     -47.228 -60.929  34.402  0.00  0.00    +0.000 C 
ATOM     53  C   UNL     1     -45.145 -59.945  35.421  0.00  0.00    +0.000 C 
ATOM     54  C   UNL     1     -45.844 -60.345  34.109  0.00  0.00    +0.000 C 
ATOM     55  C   UNL     1     -45.333 -58.462  35.719  0.00  0.00    +0.000 C 
BRANCH  52  56
ATOM     56  O   UNL     1     -47.826 -61.361  33.174  0.00  0.00    +0.000 OA
ATOM     57  H   UNL     1     -47.300 -62.109  32.839  0.00  0.00    +0.000 HD
ENDBRANCH  52  56
BRANCH  54  58
ATOM     58  O   UNL     1     -45.062 -61.355  33.446  0.00  0.00    +0.000 OA
ATOM     59  H   UNL     1     -44.313 -60.880  33.030  0.00  0.00    +0.000 HD
ENDBRANCH  54  58
ENDBRANCH  48  50
ENDBRANCH  44  48
ENDBRANCH  38  40
ENDBRANCH   6  38
TORSDOF 12
ENDMDL
MODEL 6
REMARK VINA RESULT:      -8.2     21.236     24.111
REMARK  Name = 
REMARK  17 active torsions:
REMARK  status: ('A' for Active; 'I' for Inactive)
REMARK    1  A    between atoms: O_1  and  C_14
REMARK    2  A    between atoms: O_2  and  C_32
REMARK    3  A    between atoms: O_2  and  C_36
REMARK    4  A    between atoms: O_6  and  C_39
REMARK    5  A    between atoms: O_7  and  C_41
REMARK    6  A    between atoms: O_7  and  C_43
REMARK    7  A    between atoms: O_9  and  C_47
REMARK    8  A    between atoms: O_9  and  C_49
REMARK    9  A    between atoms: O_10  and  C_45
REMARK   10  A    between atoms: O_12  and  C_51
REMARK   11  A    between atoms: O_13  and  C_53
REMARK   12  A    between atoms: C_17  and  C_29
REMARK   13  A    between atoms: C_18  and  C_30
REMARK   14  A    between atoms: C_22  and  C_33
REMARK   15  A    between atoms: C_40  and  C_42
REMARK   16  A    between atoms: C_46  and  C_48
REMARK   17  A    between atoms: C_52  and  C_54
REMARK                            x       y       z     vdW  Elec       q    Type
REMARK                         _______ _______ _______ _____ _____    ______ ____
ROOT
ATOM      1  O   UNL     1     -69.398 -69.484  43.448  0.00  0.00    +0.000 OA
ATOM      2  C   UNL     1     -69.009 -70.589  42.637  0.00  0.00    +0.000 C 
ATOM      3  C   UNL     1     -69.668 -71.898  43.082  0.00  0.00    +0.000 C 
ATOM      4  C   UNL     1     -70.752 -71.650  44.119  0.00  0.00    +0.000 C 
ATOM      5  C   UNL     1     -70.804 -69.215  43.373  0.00  0.00    +0.000 C 
ATOM      6  C   UNL     1     -71.650 -70.436  43.806  0.00  0.00    +0.000 C 
ATOM      7  C   UNL     1     -71.070 -68.011  44.275  0.00  0.00    +0.000 C 
ENDROOT
BRANCH   4   8
ATOM      8  O   UNL     1     -71.486 -72.836  44.403  0.00  0.00    +0.000 OA
ATOM      9  H   UNL     1     -71.670 -72.822  45.366  0.00  0.00    +0.000 HD
ENDBRANCH   4   8
BRANCH   2  10
ATOM     10  O   UNL     1     -67.590 -70.726  42.561  0.00  0.00    +0.000 OA
BRANCH  10  29
ATOM     11  C   UNL     1     -63.565 -64.403  40.474  0.00  0.00    +0.000 C 
ATOM     12  C   UNL     1     -64.361 -65.688  40.832  0.00  0.00    +0.000 C 
ATOM     13  C   UNL     1     -63.469 -66.948  40.972  0.00  0.00    +0.000 C 
ATOM     14  C   UNL     1     -62.317 -64.154  41.368  0.00  0.00    +0.000 C 
ATOM     15  C   UNL     1     -64.283 -68.255  41.342  0.00  0.00    +0.000 C 
ATOM     16  C   UNL     1     -65.504 -68.417  40.377  0.00  0.00    +0.000 C 
ATOM     17  C   UNL     1     -62.298 -66.656  41.932  0.00  0.00    +0.000 C 
ATOM     18  C   UNL     1     -61.474 -65.448  41.485  0.00  0.00    +0.000 C 
ATOM     19  C   UNL     1     -61.578 -63.042  40.557  0.00  0.00    +0.000 C 
ATOM     20  C   UNL     1     -65.496 -65.941  39.828  0.00  0.00    +0.000 C 
ATOM     21  C   UNL     1     -63.002 -64.370  39.042  0.00  0.00    +0.000 C 
ATOM     22  C   UNL     1     -66.342 -67.132  40.249  0.00  0.00    +0.000 C 
ATOM     23  C   UNL     1     -61.763 -63.468  39.087  0.00  0.00    +0.000 C 
ATOM     24  C   UNL     1     -64.779 -68.237  42.815  0.00  0.00    +0.000 C 
ATOM     25  C   UNL     1     -66.426 -69.588  40.772  0.00  0.00    +0.000 C 
ATOM     26  C   UNL     1     -62.695 -63.655  42.778  0.00  0.00    +0.000 C 
ATOM     27  C   UNL     1     -63.338 -69.475  41.153  0.00  0.00    +0.000 C 
ATOM     28  C   UNL     1     -65.692 -69.410  43.171  0.00  0.00    +0.000 C 
ATOM     29  C   UNL     1     -66.890 -69.522  42.230  0.00  0.00    +0.000 C 
BRANCH  19  32
ATOM     30  O   UNL     1     -58.440 -61.530  41.925  0.00  0.00    +0.000 OA
ATOM     31  O   UNL     1     -56.756 -62.886  41.153  0.00  0.00    +0.000 OA
ATOM     32  C   UNL     1     -60.165 -62.721  40.966  0.00  0.00    +0.000 C 
ATOM     33  C   UNL     1     -59.861 -61.532  41.801  0.00  0.00    +0.000 C 
ATOM     34  C   UNL     1     -59.030 -63.332  40.627  0.00  0.00    +0.000 C 
ATOM     35  C   UNL     1     -57.933 -62.590  41.244  0.00  0.00    +0.000 C 
ENDBRANCH  19  32
BRANCH  11  36
ATOM     36  O   UNL     1     -64.451 -63.274  40.570  0.00  0.00    +0.000 OA
ATOM     37  H   UNL     1     -65.367 -63.592  40.500  0.00  0.00    +0.000 HD
ENDBRANCH  11  36
ENDBRANCH  10  29
ENDBRANCH   2  10
BRANCH   6  38
ATOM     38  O   UNL     1     -72.825 -70.593  43.005  0.00  0.00    +0.000 OA
BRANCH  38  40
ATOM     39  O   UNL     1     -73.020 -69.840  40.763  0.00  0.00    +0.000 OA
ATOM     40  C   UNL     1     -72.841 -70.951  41.630  0.00  0.00    +0.000 C 
ATOM     41  C   UNL     1     -73.763 -72.108  41.258  0.00  0.00    +0.000 C 
ATOM     42  C   UNL     1     -74.321 -71.976  39.843  0.00  0.00    +0.000 C 
ATOM     43  C   UNL     1     -72.577 -70.148  39.427  0.00  0.00    +0.000 C 
ATOM     44  C   UNL     1     -73.356 -71.343  38.821  0.00  0.00    +0.000 C 
ATOM     45  C   UNL     1     -72.775 -68.883  38.596  0.00  0.00    +0.000 C 
BRANCH  42  46
ATOM     46  O   UNL     1     -74.844 -73.222  39.386  0.00  0.00    +0.000 OA
ATOM     47  H   UNL     1     -74.530 -73.923  39.983  0.00  0.00    +0.000 HD
ENDBRANCH  42  46
BRANCH  44  48
ATOM     48  O   UNL     1     -72.495 -72.218  38.081  0.00  0.00    +0.000 OA
BRANCH  48  50
ATOM     49  O   UNL     1     -70.295 -72.293  37.264  0.00  0.00    +0.000 OA
ATOM     50  C   UNL     1     -71.117 -72.278  38.425  0.00  0.00    +0.000 C 
ATOM     51  C   UNL     1     -70.914 -73.585  39.200  0.00  0.00    +0.000 C 
ATOM     52  C   UNL     1     -69.501 -74.140  39.038  0.00  0.00    +0.000 C 
ATOM     53  C   UNL     1     -68.892 -72.187  37.568  0.00  0.00    +0.000 C 
ATOM     54  C   UNL     1     -68.490 -73.017  38.802  0.00  0.00    +0.000 C 
ATOM     55  C   UNL     1     -68.152 -72.655  36.320  0.00  0.00    +0.000 C 
BRANCH  52  56
ATOM     56  O   UNL     1     -69.145 -74.850  40.231  0.00  0.00    +0.000 OA
ATOM     57  H   UNL     1     -68.347 -75.372  40.033  0.00  0.00    +0.000 HD
ENDBRANCH  52  56
BRANCH  54  58
ATOM     58  O   UNL     1     -68.486 -72.165  39.962  0.00  0.00    +0.000 OA
ATOM     59  H   UNL     1     -69.301 -71.626  39.898  0.00  0.00    +0.000 HD
ENDBRANCH  54  58
ENDBRANCH  48  50
ENDBRANCH  44  48
ENDBRANCH  38  40
ENDBRANCH   6  38
TORSDOF 12
ENDMDL
MODEL 7
REMARK VINA RESULT:      -8.2     20.555     26.375
REMARK  Name = 
REMARK  17 active torsions:
REMARK  status: ('A' for Active; 'I' for Inactive)
REMARK    1  A    between atoms: O_1  and  C_14
REMARK    2  A    between atoms: O_2  and  C_32
REMARK    3  A    between atoms: O_2  and  C_36
REMARK    4  A    between atoms: O_6  and  C_39
REMARK    5  A    between atoms: O_7  and  C_41
REMARK    6  A    between atoms: O_7  and  C_43
REMARK    7  A    between atoms: O_9  and  C_47
REMARK    8  A    between atoms: O_9  and  C_49
REMARK    9  A    between atoms: O_10  and  C_45
REMARK   10  A    between atoms: O_12  and  C_51
REMARK   11  A    between atoms: O_13  and  C_53
REMARK   12  A    between atoms: C_17  and  C_29
REMARK   13  A    between atoms: C_18  and  C_30
REMARK   14  A    between atoms: C_22  and  C_33
REMARK   15  A    between atoms: C_40  and  C_42
REMARK   16  A    between atoms: C_46  and  C_48
REMARK   17  A    between atoms: C_52  and  C_54
REMARK                            x       y       z     vdW  Elec       q    Type
REMARK                         _______ _______ _______ _____ _____    ______ ____
ROOT
ATOM      1  O   UNL     1     -29.386 -57.170  47.351  0.00  0.00    +0.000 OA
ATOM      2  C   UNL     1     -29.405 -57.145  48.776  0.00  0.00    +0.000 C 
ATOM      3  C   UNL     1     -30.828 -57.166  49.340  0.00  0.00    +0.000 C 
ATOM      4  C   UNL     1     -31.853 -57.451  48.253  0.00  0.00    +0.000 C 
ATOM      5  C   UNL     1     -29.961 -58.369  46.816  0.00  0.00    +0.000 C 
ATOM      6  C   UNL     1     -31.428 -58.560  47.270  0.00  0.00    +0.000 C 
ATOM      7  C   UNL     1     -29.863 -58.262  45.294  0.00  0.00    +0.000 C 
ENDROOT
BRANCH   4   8
ATOM      8  O   UNL     1     -33.153 -57.648  48.798  0.00  0.00    +0.000 OA
ATOM      9  H   UNL     1     -33.675 -58.106  48.106  0.00  0.00    +0.000 HD
ENDBRANCH   4   8
BRANCH   2  10
ATOM     10  O   UNL     1     -28.658 -56.049  49.303  0.00  0.00    +0.000 OA
BRANCH  10  29
ATOM     11  C   UNL     1     -30.356 -53.730  56.534  0.00  0.00    +0.000 C 
ATOM     12  C   UNL     1     -30.036 -54.136  55.070  0.00  0.00    +0.000 C 
ATOM     13  C   UNL     1     -28.766 -53.452  54.502  0.00  0.00    +0.000 C 
ATOM     14  C   UNL     1     -29.144 -53.825  57.503  0.00  0.00    +0.000 C 
ATOM     15  C   UNL     1     -28.440 -53.872  53.011  0.00  0.00    +0.000 C 
ATOM     16  C   UNL     1     -29.719 -53.727  52.121  0.00  0.00    +0.000 C 
ATOM     17  C   UNL     1     -27.585 -53.652  55.474  0.00  0.00    +0.000 C 
ATOM     18  C   UNL     1     -27.903 -53.141  56.880  0.00  0.00    +0.000 C 
ATOM     19  C   UNL     1     -29.684 -53.045  58.744  0.00  0.00    +0.000 C 
ATOM     20  C   UNL     1     -31.238 -53.890  54.145  0.00  0.00    +0.000 C 
ATOM     21  C   UNL     1     -30.852 -52.283  56.709  0.00  0.00    +0.000 C 
ATOM     22  C   UNL     1     -30.958 -54.397  52.739  0.00  0.00    +0.000 C 
ATOM     23  C   UNL     1     -30.464 -51.864  58.132  0.00  0.00    +0.000 C 
ATOM     24  C   UNL     1     -27.901 -55.327  52.919  0.00  0.00    +0.000 C 
ATOM     25  C   UNL     1     -29.512 -54.259  50.688  0.00  0.00    +0.000 C 
ATOM     26  C   UNL     1     -28.800 -55.283  57.871  0.00  0.00    +0.000 C 
ATOM     27  C   UNL     1     -27.349 -52.905  52.471  0.00  0.00    +0.000 C 
ATOM     28  C   UNL     1     -27.711 -55.823  51.485  0.00  0.00    +0.000 C 
ATOM     29  C   UNL     1     -28.985 -55.697  50.652  0.00  0.00    +0.000 C 
BRANCH  19  32
ATOM     30  O   UNL     1     -27.619 -52.763  61.853  0.00  0.00    +0.000 OA
ATOM     31  O   UNL     1     -26.246 -50.961  61.477  0.00  0.00    +0.000 OA
ATOM     32  C   UNL     1     -28.687 -52.679  59.811  0.00  0.00    +0.000 C 
ATOM     33  C   UNL     1     -28.626 -53.427  61.092  0.00  0.00    +0.000 C 
ATOM     34  C   UNL     1     -27.814 -51.672  59.839  0.00  0.00    +0.000 C 
ATOM     35  C   UNL     1     -27.123 -51.728  61.126  0.00  0.00    +0.000 C 
ENDBRANCH  19  32
BRANCH  11  36
ATOM     36  O   UNL     1     -31.420 -54.567  57.019  0.00  0.00    +0.000 OA
ATOM     37  H   UNL     1     -31.578 -55.274  56.371  0.00  0.00    +0.000 HD
ENDBRANCH  11  36
ENDBRANCH  10  29
ENDBRANCH   2  10
BRANCH   6  38
ATOM     38  O   UNL     1     -31.735 -59.930  47.547  0.00  0.00    +0.000 OA
BRANCH  38  40
ATOM     39  O   UNL     1     -33.520 -61.434  47.121  0.00  0.00    +0.000 OA
ATOM     40  C   UNL     1     -32.325 -60.841  46.632  0.00  0.00    +0.000 C 
ATOM     41  C   UNL     1     -31.384 -61.885  46.036  0.00  0.00    +0.000 C 
ATOM     42  C   UNL     1     -32.095 -63.197  45.720  0.00  0.00    +0.000 C 
ATOM     43  C   UNL     1     -34.316 -61.963  46.043  0.00  0.00    +0.000 C 
ATOM     44  C   UNL     1     -33.553 -63.048  45.240  0.00  0.00    +0.000 C 
ATOM     45  C   UNL     1     -35.584 -62.535  46.673  0.00  0.00    +0.000 C 
BRANCH  42  46
ATOM     46  O   UNL     1     -31.317 -63.994  44.829  0.00  0.00    +0.000 OA
ATOM     47  H   UNL     1     -30.517 -63.494  44.591  0.00  0.00    +0.000 HD
ENDBRANCH  42  46
BRANCH  44  48
ATOM     48  O   UNL     1     -33.786 -62.927  43.831  0.00  0.00    +0.000 OA
BRANCH  48  50
ATOM     49  O   UNL     1     -35.370 -62.163  42.275  0.00  0.00    +0.000 OA
ATOM     50  C   UNL     1     -34.509 -61.801  43.349  0.00  0.00    +0.000 C 
ATOM     51  C   UNL     1     -33.470 -60.796  42.840  0.00  0.00    +0.000 C 
ATOM     52  C   UNL     1     -34.015 -59.918  41.716  0.00  0.00    +0.000 C 
ATOM     53  C   UNL     1     -36.239 -61.090  41.868  0.00  0.00    +0.000 C 
ATOM     54  C   UNL     1     -35.528 -59.725  41.851  0.00  0.00    +0.000 C 
ATOM     55  C   UNL     1     -36.753 -61.464  40.483  0.00  0.00    +0.000 C 
BRANCH  52  56
ATOM     56  O   UNL     1     -33.372 -58.639  41.777  0.00  0.00    +0.000 OA
ATOM     57  H   UNL     1     -33.547 -58.183  40.934  0.00  0.00    +0.000 HD
ENDBRANCH  52  56
BRANCH  54  58
ATOM     58  O   UNL     1     -35.784 -59.044  43.092  0.00  0.00    +0.000 OA
ATOM     59  H   UNL     1     -36.287 -58.237  42.854  0.00  0.00    +0.000 HD
ENDBRANCH  54  58
ENDBRANCH  48  50
ENDBRANCH  44  48
ENDBRANCH  38  40
ENDBRANCH   6  38
TORSDOF 12
ENDMDL
MODEL 8
REMARK VINA RESULT:      -8.1     20.584     23.315
REMARK  Name = 
REMARK  17 active torsions:
REMARK  status: ('A' for Active; 'I' for Inactive)
REMARK    1  A    between atoms: O_1  and  C_14
REMARK    2  A    between atoms: O_2  and  C_32
REMARK    3  A    between atoms: O_2  and  C_36
REMARK    4  A    between atoms: O_6  and  C_39
REMARK    5  A    between atoms: O_7  and  C_41
REMARK    6  A    between atoms: O_7  and  C_43
REMARK    7  A    between atoms: O_9  and  C_47
REMARK    8  A    between atoms: O_9  and  C_49
REMARK    9  A    between atoms: O_10  and  C_45
REMARK   10  A    between atoms: O_12  and  C_51
REMARK   11  A    between atoms: O_13  and  C_53
REMARK   12  A    between atoms: C_17  and  C_29
REMARK   13  A    between atoms: C_18  and  C_30
REMARK   14  A    between atoms: C_22  and  C_33
REMARK   15  A    between atoms: C_40  and  C_42
REMARK   16  A    between atoms: C_46  and  C_48
REMARK   17  A    between atoms: C_52  and  C_54
REMARK                            x       y       z     vdW  Elec       q    Type
REMARK                         _______ _______ _______ _____ _____    ______ ____
ROOT
ATOM      1  O   UNL     1     -66.737 -70.586  41.832  0.00  0.00    +0.000 OA
ATOM      2  C   UNL     1     -66.288 -71.577  40.912  0.00  0.00    +0.000 C 
ATOM      3  C   UNL     1     -66.365 -72.990  41.495  0.00  0.00    +0.000 C 
ATOM      4  C   UNL     1     -67.122 -73.007  42.814  0.00  0.00    +0.000 C 
ATOM      5  C   UNL     1     -68.116 -70.748  42.184  0.00  0.00    +0.000 C 
ATOM      6  C   UNL     1     -68.393 -72.134  42.815  0.00  0.00    +0.000 C 
ATOM      7  C   UNL     1     -68.457 -69.620  43.158  0.00  0.00    +0.000 C 
ENDROOT
BRANCH   4   8
ATOM      8  O   UNL     1     -67.351 -74.336  43.270  0.00  0.00    +0.000 OA
ATOM      9  H   UNL     1     -68.126 -74.293  43.869  0.00  0.00    +0.000 HD
ENDBRANCH   4   8
BRANCH   2  10
ATOM     10  O   UNL     1     -64.980 -71.295  40.415  0.00  0.00    +0.000 OA
BRANCH  10  29
ATOM     11  C   UNL     1     -62.482 -63.943  40.910  0.00  0.00    +0.000 C 
ATOM     12  C   UNL     1     -62.976 -65.406  40.748  0.00  0.00    +0.000 C 
ATOM     13  C   UNL     1     -61.857 -66.393  40.328  0.00  0.00    +0.000 C 
ATOM     14  C   UNL     1     -61.199 -63.794  41.776  0.00  0.00    +0.000 C 
ATOM     15  C   UNL     1     -62.364 -67.885  40.169  0.00  0.00    +0.000 C 
ATOM     16  C   UNL     1     -63.646 -67.923  39.272  0.00  0.00    +0.000 C 
ATOM     17  C   UNL     1     -60.648 -66.248  41.275  0.00  0.00    +0.000 C 
ATOM     18  C   UNL     1     -60.125 -64.813  41.324  0.00  0.00    +0.000 C 
ATOM     19  C   UNL     1     -60.785 -62.322  41.457  0.00  0.00    +0.000 C 
ATOM     20  C   UNL     1     -64.162 -65.492  39.775  0.00  0.00    +0.000 C 
ATOM     21  C   UNL     1     -62.118 -63.235  39.593  0.00  0.00    +0.000 C 
ATOM     22  C   UNL     1     -64.715 -66.907  39.711  0.00  0.00    +0.000 C 
ATOM     23  C   UNL     1     -61.071 -62.172  39.949  0.00  0.00    +0.000 C 
ATOM     24  C   UNL     1     -62.666 -68.549  41.542  0.00  0.00    +0.000 C 
ATOM     25  C   UNL     1     -64.279 -69.327  39.195  0.00  0.00    +0.000 C 
ATOM     26  C   UNL     1     -61.483 -63.977  43.281  0.00  0.00    +0.000 C 
ATOM     27  C   UNL     1     -61.242 -68.697  39.462  0.00  0.00    +0.000 C 
ATOM     28  C   UNL     1     -63.295 -69.938  41.428  0.00  0.00    +0.000 C 
ATOM     29  C   UNL     1     -64.561 -69.935  40.573  0.00  0.00    +0.000 C 
BRANCH  19  32
ATOM     30  O   UNL     1     -57.826 -60.874  43.233  0.00  0.00    +0.000 OA
ATOM     31  O   UNL     1     -56.054 -61.265  41.826  0.00  0.00    +0.000 OA
ATOM     32  C   UNL     1     -59.415 -61.883  41.902  0.00  0.00    +0.000 C 
ATOM     33  C   UNL     1     -59.220 -61.171  43.190  0.00  0.00    +0.000 C 
ATOM     34  C   UNL     1     -58.251 -61.970  41.258  0.00  0.00    +0.000 C 
ATOM     35  C   UNL     1     -57.236 -61.345  42.104  0.00  0.00    +0.000 C 
ENDBRANCH  19  32
BRANCH  11  36
ATOM     36  O   UNL     1     -63.541 -63.163  41.491  0.00  0.00    +0.000 OA
ATOM     37  H   UNL     1     -64.074 -62.779  40.774  0.00  0.00    +0.000 HD
ENDBRANCH  11  36
ENDBRANCH  10  29
ENDBRANCH   2  10
BRANCH   6  38
ATOM     38  O   UNL     1     -69.647 -72.680  42.394  0.00  0.00    +0.000 OA
BRANCH  38  40
ATOM     39  O   UNL     1     -69.755 -71.941  40.141  0.00  0.00    +0.000 OA
ATOM     40  C   UNL     1     -70.463 -72.160  41.354  0.00  0.00    +0.000 C 
ATOM     41  C   UNL     1     -71.323 -70.956  41.727  0.00  0.00    +0.000 C 
ATOM     42  C   UNL     1     -71.556 -70.019  40.546  0.00  0.00    +0.000 C 
ATOM     43  C   UNL     1     -70.658 -71.869  39.020  0.00  0.00    +0.000 C 
ATOM     44  C   UNL     1     -71.682 -70.717  39.176  0.00  0.00    +0.000 C 
ATOM     45  C   UNL     1     -69.796 -71.675  37.775  0.00  0.00    +0.000 C 
BRANCH  42  46
ATOM     46  O   UNL     1     -72.651 -69.141  40.802  0.00  0.00    +0.000 OA
ATOM     47  H   UNL     1     -73.140 -69.479  41.573  0.00  0.00    +0.000 HD
ENDBRANCH  42  46
BRANCH  44  48
ATOM     48  O   UNL     1     -72.991 -71.107  38.742  0.00  0.00    +0.000 OA
BRANCH  48  50
ATOM     49  O   UNL     1     -75.055 -70.496  37.804  0.00  0.00    +0.000 OA
ATOM     50  C   UNL     1     -73.643 -70.332  37.744  0.00  0.00    +0.000 C 
ATOM     51  C   UNL     1     -73.137 -70.842  36.390  0.00  0.00    +0.000 C 
ATOM     52  C   UNL     1     -74.168 -70.656  35.279  0.00  0.00    +0.000 C 
ATOM     53  C   UNL     1     -75.761 -69.603  36.922  0.00  0.00    +0.000 C 
ATOM     54  C   UNL     1     -75.066 -69.448  35.557  0.00  0.00    +0.000 C 
ATOM     55  C   UNL     1     -77.163 -70.182  36.768  0.00  0.00    +0.000 C 
BRANCH  52  56
ATOM     56  O   UNL     1     -73.478 -70.452  34.040  0.00  0.00    +0.000 OA
ATOM     57  H   UNL     1     -74.151 -70.287  33.354  0.00  0.00    +0.000 HD
ENDBRANCH  52  56
BRANCH  54  58
ATOM     58  O   UNL     1     -74.241 -68.270  35.579  0.00  0.00    +0.000 OA
ATOM     59  H   UNL     1     -73.701 -68.309  34.762  0.00  0.00    +0.000 HD
ENDBRANCH  54  58
ENDBRANCH  48  50
ENDBRANCH  44  48
ENDBRANCH  38  40
ENDBRANCH   6  38
TORSDOF 12
ENDMDL
MODEL 9
REMARK VINA RESULT:      -8.1      1.945      5.846
REMARK  Name = 
REMARK  17 active torsions:
REMARK  status: ('A' for Active; 'I' for Inactive)
REMARK    1  A    between atoms: O_1  and  C_14
REMARK    2  A    between atoms: O_2  and  C_32
REMARK    3  A    between atoms: O_2  and  C_36
REMARK    4  A    between atoms: O_6  and  C_39
REMARK    5  A    between atoms: O_7  and  C_41
REMARK    6  A    between atoms: O_7  and  C_43
REMARK    7  A    between atoms: O_9  and  C_47
REMARK    8  A    between atoms: O_9  and  C_49
REMARK    9  A    between atoms: O_10  and  C_45
REMARK   10  A    between atoms: O_12  and  C_51
REMARK   11  A    between atoms: O_13  and  C_53
REMARK   12  A    between atoms: C_17  and  C_29
REMARK   13  A    between atoms: C_18  and  C_30
REMARK   14  A    between atoms: C_22  and  C_33
REMARK   15  A    between atoms: C_40  and  C_42
REMARK   16  A    between atoms: C_46  and  C_48
REMARK   17  A    between atoms: C_52  and  C_54
REMARK                            x       y       z     vdW  Elec       q    Type
REMARK                         _______ _______ _______ _____ _____    ______ ____
ROOT
ATOM      1  O   UNL     1     -46.695 -62.046  38.653  0.00  0.00    +0.000 OA
ATOM      2  C   UNL     1     -46.105 -62.111  37.358  0.00  0.00    +0.000 C 
ATOM      3  C   UNL     1     -44.624 -61.722  37.373  0.00  0.00    +0.000 C 
ATOM      4  C   UNL     1     -44.096 -61.600  38.794  0.00  0.00    +0.000 C 
ATOM      5  C   UNL     1     -46.099 -62.967  39.575  0.00  0.00    +0.000 C 
ATOM      6  C   UNL     1     -44.580 -62.720  39.738  0.00  0.00    +0.000 C 
ATOM      7  C   UNL     1     -46.832 -62.797  40.905  0.00  0.00    +0.000 C 
ENDROOT
BRANCH   4   8
ATOM      8  O   UNL     1     -42.685 -61.416  38.814  0.00  0.00    +0.000 OA
ATOM      9  H   UNL     1     -42.305 -62.235  39.196  0.00  0.00    +0.000 HD
ENDBRANCH   4   8
BRANCH   2  10
ATOM     10  O   UNL     1     -46.830 -61.340  36.399  0.00  0.00    +0.000 OA
BRANCH  10  29
ATOM     11  C   UNL     1     -46.677 -64.632  29.350  0.00  0.00    +0.000 C 
ATOM     12  C   UNL     1     -46.679 -64.027  30.780  0.00  0.00    +0.000 C 
ATOM     13  C   UNL     1     -45.277 -63.577  31.264  0.00  0.00    +0.000 C 
ATOM     14  C   UNL     1     -45.930 -63.770  28.293  0.00  0.00    +0.000 C 
ATOM     15  C   UNL     1     -45.285 -62.956  32.720  0.00  0.00    +0.000 C 
ATOM     16  C   UNL     1     -46.047 -63.905  33.704  0.00  0.00    +0.000 C 
ATOM     17  C   UNL     1     -44.626 -62.664  30.205  0.00  0.00    +0.000 C 
ATOM     18  C   UNL     1     -44.545 -63.338  28.835  0.00  0.00    +0.000 C 
ATOM     19  C   UNL     1     -45.807 -64.781  27.108  0.00  0.00    +0.000 C 
ATOM     20  C   UNL     1     -47.315 -64.990  31.795  0.00  0.00    +0.000 C 
ATOM     21  C   UNL     1     -46.009 -66.014  29.235  0.00  0.00    +0.000 C 
ATOM     22  C   UNL     1     -47.420 -64.346  33.168  0.00  0.00    +0.000 C 
ATOM     23  C   UNL     1     -45.495 -66.126  27.795  0.00  0.00    +0.000 C 
ATOM     24  C   UNL     1     -45.932 -61.543  32.750  0.00  0.00    +0.000 C 
ATOM     25  C   UNL     1     -46.221 -63.293  35.109  0.00  0.00    +0.000 C 
ATOM     26  C   UNL     1     -46.734 -62.522  27.878  0.00  0.00    +0.000 C 
ATOM     27  C   UNL     1     -43.809 -62.835  33.194  0.00  0.00    +0.000 C 
ATOM     28  C   UNL     1     -46.091 -60.969  34.157  0.00  0.00    +0.000 C 
ATOM     29  C   UNL     1     -46.866 -61.904  35.083  0.00  0.00    +0.000 C 
BRANCH  19  32
ATOM     30  O   UNL     1     -43.008 -64.463  24.644  0.00  0.00    +0.000 OA
ATOM     31  O   UNL     1     -43.586 -62.667  23.335  0.00  0.00    +0.000 OA
ATOM     32  C   UNL     1     -44.889 -64.403  25.977  0.00  0.00    +0.000 C 
ATOM     33  C   UNL     1     -43.618 -65.135  25.744  0.00  0.00    +0.000 C 
ATOM     34  C   UNL     1     -44.991 -63.396  25.108  0.00  0.00    +0.000 C 
ATOM     35  C   UNL     1     -43.807 -63.437  24.251  0.00  0.00    +0.000 C 
ENDBRANCH  19  32
BRANCH  11  36
ATOM     36  O   UNL     1     -48.039 -64.822  28.931  0.00  0.00    +0.000 OA
ATOM     37  H   UNL     1     -48.609 -64.825  29.719  0.00  0.00    +0.000 HD
ENDBRANCH  11  36
ENDBRANCH  10  29
ENDBRANCH   2  10
BRANCH   6  38
ATOM     38  O   UNL     1     -43.841 -63.940  39.852  0.00  0.00    +0.000 OA
BRANCH  38  40
ATOM     39  O   UNL     1     -43.808 -64.844  37.658  0.00  0.00    +0.000 OA
ATOM     40  C   UNL     1     -44.024 -65.091  39.041  0.00  0.00    +0.000 C 
ATOM     41  C   UNL     1     -45.316 -65.869  39.277  0.00  0.00    +0.000 C 
ATOM     42  C   UNL     1     -45.825 -66.550  38.010  0.00  0.00    +0.000 C 
ATOM     43  C   UNL     1     -43.545 -66.069  36.947  0.00  0.00    +0.000 C 
ATOM     44  C   UNL     1     -44.724 -67.069  37.063  0.00  0.00    +0.000 C 
ATOM     45  C   UNL     1     -43.290 -65.685  35.492  0.00  0.00    +0.000 C 
BRANCH  42  46
ATOM     46  O   UNL     1     -46.779 -67.562  38.326  0.00  0.00    +0.000 OA
ATOM     47  H   UNL     1     -46.381 -68.429  38.132  0.00  0.00    +0.000 HD
ENDBRANCH  42  46
BRANCH  44  48
ATOM     48  O   UNL     1     -44.263 -68.414  37.245  0.00  0.00    +0.000 OA
BRANCH  48  50
ATOM     49  O   UNL     1     -43.105 -69.384  35.447  0.00  0.00    +0.000 OA
ATOM     50  C   UNL     1     -44.339 -69.320  36.151  0.00  0.00    +0.000 C 
ATOM     51  C   UNL     1     -45.424 -68.783  35.211  0.00  0.00    +0.000 C 
ATOM     52  C   UNL     1     -45.174 -69.173  33.756  0.00  0.00    +0.000 C 
ATOM     53  C   UNL     1     -43.088 -70.409  34.437  0.00  0.00    +0.000 C 
ATOM     54  C   UNL     1     -44.416 -70.499  33.662  0.00  0.00    +0.000 C 
ATOM     55  C   UNL     1     -41.927 -70.070  33.508  0.00  0.00    +0.000 C 
BRANCH  52  56
ATOM     56  O   UNL     1     -46.437 -69.306  33.091  0.00  0.00    +0.000 OA
ATOM     57  H   UNL     1     -46.695 -70.244  33.139  0.00  0.00    +0.000 HD
ENDBRANCH  52  56
BRANCH  54  58
ATOM     58  O   UNL     1     -45.235 -71.527  34.248  0.00  0.00    +0.000 OA
ATOM     59  H   UNL     1     -44.989 -71.555  35.195  0.00  0.00    +0.000 HD
ENDBRANCH  54  58
ENDBRANCH  48  50
ENDBRANCH  44  48
ENDBRANCH  38  40
ENDBRANCH   6  38
TORSDOF 12
ENDMDL
