MODEL 1
REMARK VINA RESULT:      -7.8      0.000      0.000
REMARK  Name = Cdk12_Inhibitor.pdbqt.pdb
REMARK  6 active torsions:
REMARK  status: ('A' for Active; 'I' for Inactive)
REMARK    1  A    between atoms: N_1  and  C_23
REMARK    2  A    between atoms: N_9  and  C_11
REMARK    3  A    between atoms: C_14  and  S_17
REMARK    4  A    between atoms: S_17  and  N_20
REMARK    5  A    between atoms: C_23  and  N_25
REMARK    6  A    between atoms: N_25  and  C_27
REMARK                            x       y       z     vdW  Elec       q    Type
REMARK                         _______ _______ _______ _____ _____    ______ ____
ROOT
ATOM      1  N   UNL     1     -62.468 -65.993  40.351  0.00  0.00    +0.000 N 
ATOM      2  N   UNL     1     -61.727 -66.992  40.897  0.00  0.00    +0.000 NA
ATOM      3  N   UNL     1     -62.658 -67.698  38.952  0.00  0.00    +0.000 NA
ATOM      4  N   UNL     1     -63.974 -65.804  38.432  0.00  0.00    +0.000 N 
ATOM      5  C   UNL     1     -61.842 -67.976  40.009  0.00  0.00    +0.000 A 
ATOM      6  C   UNL     1     -63.078 -66.483  39.193  0.00  0.00    +0.000 A 
ATOM      7  H   UNL     1     -64.739 -65.348  38.931  0.00  0.00    +0.000 HD
ATOM      8  H   UNL     1     -64.364 -66.380  37.685  0.00  0.00    +0.000 HD
ATOM      9  N   UNL     1     -61.280 -69.197  40.025  0.00  0.00    +0.000 N 
ATOM     10  H   UNL     1     -61.507 -69.791  39.238  0.00  0.00    +0.000 HD
ENDROOT
BRANCH   9  11
ATOM     11  C   UNL     1     -60.399 -69.780  40.953  0.00  0.00    +0.000 A 
ATOM     12  C   UNL     1     -59.083 -69.307  41.032  0.00  0.00    +0.000 A 
ATOM     13  C   UNL     1     -58.168 -69.861  41.924  0.00  0.00    +0.000 A 
ATOM     14  C   UNL     1     -58.572 -70.912  42.736  0.00  0.00    +0.000 A 
ATOM     15  C   UNL     1     -59.874 -71.394  42.699  0.00  0.00    +0.000 A 
ATOM     16  C   UNL     1     -60.775 -70.830  41.800  0.00  0.00    +0.000 A 
BRANCH  14  17
ATOM     17  S   UNL     1     -57.452 -71.573  43.904  0.00  0.00    +0.000 S 
ATOM     18  O   UNL     1     -57.971 -71.359  45.235  0.00  0.00    +0.000 OA
ATOM     19  O   UNL     1     -57.000 -72.868  43.456  0.00  0.00    +0.000 OA
BRANCH  17  20
ATOM     20  N   UNL     1     -56.134 -70.543  43.760  0.00  0.00    +0.000 NA
ATOM     21  H   UNL     1     -56.069 -69.950  44.588  0.00  0.00    +0.000 HD
ATOM     22  H   UNL     1     -55.291 -71.088  43.576  0.00  0.00    +0.000 HD
ENDBRANCH  17  20
ENDBRANCH  14  17
ENDBRANCH   9  11
BRANCH   1  23
ATOM     23  C   UNL     1     -62.509 -64.703  40.957  0.00  0.00    +0.000 C 
ATOM     24  S   UNL     1     -63.727 -63.562  40.710  0.00  0.00    +0.000 S 
BRANCH  23  25
ATOM     25  N   UNL     1     -61.463 -64.586  41.880  0.00  0.00    +0.000 N 
ATOM     26  H   UNL     1     -61.442 -65.292  42.624  0.00  0.00    +0.000 HD
BRANCH  25  27
ATOM     27  C   UNL     1     -60.568 -63.506  42.104  0.00  0.00    +0.000 A 
ATOM     28  C   UNL     1     -59.502 -63.364  41.207  0.00  0.00    +0.000 A 
ATOM     29  F   UNL     1     -59.367 -64.246  40.204  0.00  0.00    +0.000 F 
ATOM     30  C   UNL     1     -58.571 -62.337  41.329  0.00  0.00    +0.000 A 
ATOM     31  C   UNL     1     -58.711 -61.407  42.354  0.00  0.00    +0.000 A 
ATOM     32  C   UNL     1     -59.798 -61.487  43.218  0.00  0.00    +0.000 A 
ATOM     33  C   UNL     1     -60.722 -62.524  43.086  0.00  0.00    +0.000 A 
ATOM     34  F   UNL     1     -61.841 -62.454  43.821  0.00  0.00    +0.000 F 
ENDBRANCH  25  27
ENDBRANCH  23  25
ENDBRANCH   1  23
TORSDOF 6
ENDMDL
MODEL 2
REMARK VINA RESULT:      -7.6      2.965      4.604
REMARK  Name = Cdk12_Inhibitor.pdbqt.pdb
REMARK  6 active torsions:
REMARK  status: ('A' for Active; 'I' for Inactive)
REMARK    1  A    between atoms: N_1  and  C_23
REMARK    2  A    between atoms: N_9  and  C_11
REMARK    3  A    between atoms: C_14  and  S_17
REMARK    4  A    between atoms: S_17  and  N_20
REMARK    5  A    between atoms: C_23  and  N_25
REMARK    6  A    between atoms: N_25  and  C_27
REMARK                            x       y       z     vdW  Elec       q    Type
REMARK                         _______ _______ _______ _____ _____    ______ ____
ROOT
ATOM      1  N   UNL     1     -61.995 -65.324  39.256  0.00  0.00    +0.000 N 
ATOM      2  N   UNL     1     -61.254 -66.422  39.555  0.00  0.00    +0.000 NA
ATOM      3  N   UNL     1     -60.155 -64.550  40.211  0.00  0.00    +0.000 NA
ATOM      4  N   UNL     1     -61.633 -62.907  39.372  0.00  0.00    +0.000 N 
ATOM      5  C   UNL     1     -60.182 -65.912  40.154  0.00  0.00    +0.000 A 
ATOM      6  C   UNL     1     -61.260 -64.189  39.612  0.00  0.00    +0.000 A 
ATOM      7  H   UNL     1     -61.953 -62.697  38.426  0.00  0.00    +0.000 HD
ATOM      8  H   UNL     1     -60.908 -62.237  39.631  0.00  0.00    +0.000 HD
ATOM      9  N   UNL     1     -59.130 -66.554  40.690  0.00  0.00    +0.000 N 
ATOM     10  H   UNL     1     -58.421 -65.960  41.100  0.00  0.00    +0.000 HD
ENDROOT
BRANCH   9  11
ATOM     11  C   UNL     1     -58.864 -67.930  40.800  0.00  0.00    +0.000 A 
ATOM     12  C   UNL     1     -57.725 -68.455  40.175  0.00  0.00    +0.000 A 
ATOM     13  C   UNL     1     -57.426 -69.814  40.241  0.00  0.00    +0.000 A 
ATOM     14  C   UNL     1     -58.287 -70.660  40.927  0.00  0.00    +0.000 A 
ATOM     15  C   UNL     1     -59.415 -70.172  41.575  0.00  0.00    +0.000 A 
ATOM     16  C   UNL     1     -59.700 -68.811  41.497  0.00  0.00    +0.000 A 
BRANCH  14  17
ATOM     17  S   UNL     1     -57.889 -72.355  41.072  0.00  0.00    +0.000 S 
ATOM     18  O   UNL     1     -59.094 -73.141  40.932  0.00  0.00    +0.000 OA
ATOM     19  O   UNL     1     -56.697 -72.636  40.309  0.00  0.00    +0.000 OA
BRANCH  17  20
ATOM     20  N   UNL     1     -57.450 -72.484  42.688  0.00  0.00    +0.000 NA
ATOM     21  H   UNL     1     -56.434 -72.489  42.769  0.00  0.00    +0.000 HD
ATOM     22  H   UNL     1     -57.903 -71.745  43.226  0.00  0.00    +0.000 HD
ENDBRANCH  17  20
ENDBRANCH  14  17
ENDBRANCH   9  11
BRANCH   1  23
ATOM     23  C   UNL     1     -63.299 -65.456  38.693  0.00  0.00    +0.000 C 
ATOM     24  S   UNL     1     -63.617 -65.865  37.088  0.00  0.00    +0.000 S 
BRANCH  23  25
ATOM     25  N   UNL     1     -64.260 -65.326  39.703  0.00  0.00    +0.000 N 
ATOM     26  H   UNL     1     -64.594 -64.373  39.883  0.00  0.00    +0.000 HD
BRANCH  25  27
ATOM     27  C   UNL     1     -64.668 -66.261  40.691  0.00  0.00    +0.000 A 
ATOM     28  C   UNL     1     -65.637 -67.201  40.319  0.00  0.00    +0.000 A 
ATOM     29  F   UNL     1     -66.138 -67.168  39.074  0.00  0.00    +0.000 F 
ATOM     30  C   UNL     1     -66.103 -68.167  41.206  0.00  0.00    +0.000 A 
ATOM     31  C   UNL     1     -65.578 -68.222  42.493  0.00  0.00    +0.000 A 
ATOM     32  C   UNL     1     -64.567 -67.342  42.867  0.00  0.00    +0.000 A 
ATOM     33  C   UNL     1     -64.112 -66.377  41.967  0.00  0.00    +0.000 A 
ATOM     34  F   UNL     1     -63.021 -65.678  42.310  0.00  0.00    +0.000 F 
ENDBRANCH  25  27
ENDBRANCH  23  25
ENDBRANCH   1  23
TORSDOF 6
ENDMDL
MODEL 3
REMARK VINA RESULT:      -7.2      3.507      5.328
REMARK  Name = Cdk12_Inhibitor.pdbqt.pdb
REMARK  6 active torsions:
REMARK  status: ('A' for Active; 'I' for Inactive)
REMARK    1  A    between atoms: N_1  and  C_23
REMARK    2  A    between atoms: N_9  and  C_11
REMARK    3  A    between atoms: C_14  and  S_17
REMARK    4  A    between atoms: S_17  and  N_20
REMARK    5  A    between atoms: C_23  and  N_25
REMARK    6  A    between atoms: N_25  and  C_27
REMARK                            x       y       z     vdW  Elec       q    Type
REMARK                         _______ _______ _______ _____ _____    ______ ____
ROOT
ATOM      1  N   UNL     1     -63.189 -65.822  39.054  0.00  0.00    +0.000 N 
ATOM      2  N   UNL     1     -62.167 -66.669  39.343  0.00  0.00    +0.000 NA
ATOM      3  N   UNL     1     -62.166 -64.935  40.806  0.00  0.00    +0.000 NA
ATOM      4  N   UNL     1     -63.912 -63.636  39.884  0.00  0.00    +0.000 N 
ATOM      5  C   UNL     1     -61.607 -66.117  40.415  0.00  0.00    +0.000 A 
ATOM      6  C   UNL     1     -63.118 -64.735  39.932  0.00  0.00    +0.000 A 
ATOM      7  H   UNL     1     -64.026 -63.198  38.968  0.00  0.00    +0.000 HD
ATOM      8  H   UNL     1     -63.631 -62.923  40.557  0.00  0.00    +0.000 HD
ATOM      9  N   UNL     1     -60.568 -66.556  41.146  0.00  0.00    +0.000 N 
ATOM     10  H   UNL     1     -60.309 -65.971  41.929  0.00  0.00    +0.000 HD
ENDROOT
BRANCH   9  11
ATOM     11  C   UNL     1     -59.793 -67.722  41.013  0.00  0.00    +0.000 A 
ATOM     12  C   UNL     1     -60.332 -68.949  41.421  0.00  0.00    +0.000 A 
ATOM     13  C   UNL     1     -59.599 -70.128  41.324  0.00  0.00    +0.000 A 
ATOM     14  C   UNL     1     -58.303 -70.077  40.828  0.00  0.00    +0.000 A 
ATOM     15  C   UNL     1     -57.743 -68.882  40.395  0.00  0.00    +0.000 A 
ATOM     16  C   UNL     1     -58.489 -67.711  40.501  0.00  0.00    +0.000 A 
BRANCH  14  17
ATOM     17  S   UNL     1     -57.397 -71.559  40.641  0.00  0.00    +0.000 S 
ATOM     18  O   UNL     1     -56.135 -71.268  40.000  0.00  0.00    +0.000 OA
ATOM     19  O   UNL     1     -57.479 -72.329  41.858  0.00  0.00    +0.000 OA
BRANCH  17  20
ATOM     20  N   UNL     1     -58.303 -72.392  39.498  0.00  0.00    +0.000 NA
ATOM     21  H   UNL     1     -58.411 -71.820  38.661  0.00  0.00    +0.000 HD
ATOM     22  H   UNL     1     -57.878 -73.304  39.322  0.00  0.00    +0.000 HD
ENDBRANCH  17  20
ENDBRANCH  14  17
ENDBRANCH   9  11
BRANCH   1  23
ATOM     23  C   UNL     1     -64.117 -66.127  38.016  0.00  0.00    +0.000 C 
ATOM     24  S   UNL     1     -63.840 -65.872  36.372  0.00  0.00    +0.000 S 
BRANCH  23  25
ATOM     25  N   UNL     1     -65.226 -66.788  38.559  0.00  0.00    +0.000 N 
ATOM     26  H   UNL     1     -66.111 -66.665  38.055  0.00  0.00    +0.000 HD
BRANCH  25  27
ATOM     27  C   UNL     1     -65.383 -67.399  39.831  0.00  0.00    +0.000 A 
ATOM     28  C   UNL     1     -66.117 -66.694  40.792  0.00  0.00    +0.000 A 
ATOM     29  F   UNL     1     -66.620 -65.489  40.479  0.00  0.00    +0.000 F 
ATOM     30  C   UNL     1     -66.338 -67.204  42.068  0.00  0.00    +0.000 A 
ATOM     31  C   UNL     1     -65.837 -68.458  42.398  0.00  0.00    +0.000 A 
ATOM     32  C   UNL     1     -65.160 -69.208  41.441  0.00  0.00    +0.000 A 
ATOM     33  C   UNL     1     -64.944 -68.682  40.166  0.00  0.00    +0.000 A 
ATOM     34  F   UNL     1     -64.451 -69.508  39.232  0.00  0.00    +0.000 F 
ENDBRANCH  25  27
ENDBRANCH  23  25
ENDBRANCH   1  23
TORSDOF 6
ENDMDL
MODEL 4
REMARK VINA RESULT:      -7.0     26.499     27.161
REMARK  Name = Cdk12_Inhibitor.pdbqt.pdb
REMARK  6 active torsions:
REMARK  status: ('A' for Active; 'I' for Inactive)
REMARK    1  A    between atoms: N_1  and  C_23
REMARK    2  A    between atoms: N_9  and  C_11
REMARK    3  A    between atoms: C_14  and  S_17
REMARK    4  A    between atoms: S_17  and  N_20
REMARK    5  A    between atoms: C_23  and  N_25
REMARK    6  A    between atoms: N_25  and  C_27
REMARK                            x       y       z     vdW  Elec       q    Type
REMARK                         _______ _______ _______ _____ _____    ______ ____
ROOT
ATOM      1  N   UNL     1     -55.790 -40.714  38.852  0.00  0.00    +0.000 N 
ATOM      2  N   UNL     1     -54.460 -40.867  39.085  0.00  0.00    +0.000 NA
ATOM      3  N   UNL     1     -55.645 -41.618  40.868  0.00  0.00    +0.000 NA
ATOM      4  N   UNL     1     -57.825 -41.025  40.173  0.00  0.00    +0.000 N 
ATOM      5  C   UNL     1     -54.425 -41.441  40.284  0.00  0.00    +0.000 A 
ATOM      6  C   UNL     1     -56.484 -41.125  39.994  0.00  0.00    +0.000 A 
ATOM      7  H   UNL     1     -58.248 -40.123  39.948  0.00  0.00    +0.000 HD
ATOM      8  H   UNL     1     -58.113 -41.297  41.114  0.00  0.00    +0.000 HD
ATOM      9  N   UNL     1     -53.359 -41.851  40.993  0.00  0.00    +0.000 N 
ATOM     10  H   UNL     1     -53.568 -42.267  41.892  0.00  0.00    +0.000 HD
ENDROOT
BRANCH   9  11
ATOM     11  C   UNL     1     -51.990 -41.819  40.675  0.00  0.00    +0.000 A 
ATOM     12  C   UNL     1     -51.051 -41.770  41.714  0.00  0.00    +0.000 A 
ATOM     13  C   UNL     1     -49.684 -41.722  41.451  0.00  0.00    +0.000 A 
ATOM     14  C   UNL     1     -49.253 -41.706  40.131  0.00  0.00    +0.000 A 
ATOM     15  C   UNL     1     -50.154 -41.773  39.076  0.00  0.00    +0.000 A 
ATOM     16  C   UNL     1     -51.517 -41.818  39.357  0.00  0.00    +0.000 A 
BRANCH  14  17
ATOM     17  S   UNL     1     -47.539 -41.711  39.789  0.00  0.00    +0.000 S 
ATOM     18  O   UNL     1     -47.118 -43.058  39.480  0.00  0.00    +0.000 OA
ATOM     19  O   UNL     1     -47.217 -40.592  38.936  0.00  0.00    +0.000 OA
BRANCH  17  20
ATOM     20  N   UNL     1     -46.872 -41.361  41.290  0.00  0.00    +0.000 NA
ATOM     21  H   UNL     1     -46.915 -42.187  41.886  0.00  0.00    +0.000 HD
ATOM     22  H   UNL     1     -45.929 -40.989  41.168  0.00  0.00    +0.000 HD
ENDBRANCH  17  20
ENDBRANCH  14  17
ENDBRANCH   9  11
BRANCH   1  23
ATOM     23  C   UNL     1     -56.257 -40.224  37.598  0.00  0.00    +0.000 C 
ATOM     24  S   UNL     1     -56.175 -38.614  37.102  0.00  0.00    +0.000 S 
BRANCH  23  25
ATOM     25  N   UNL     1     -56.668 -41.299  36.799  0.00  0.00    +0.000 N 
ATOM     26  H   UNL     1     -57.043 -42.111  37.301  0.00  0.00    +0.000 HD
BRANCH  25  27
ATOM     27  C   UNL     1     -56.420 -41.551  35.424  0.00  0.00    +0.000 A 
ATOM     28  C   UNL     1     -57.529 -41.574  34.569  0.00  0.00    +0.000 A 
ATOM     29  F   UNL     1     -58.755 -41.375  35.080  0.00  0.00    +0.000 F 
ATOM     30  C   UNL     1     -57.399 -41.806  33.203  0.00  0.00    +0.000 A 
ATOM     31  C   UNL     1     -56.133 -41.997  32.660  0.00  0.00    +0.000 A 
ATOM     32  C   UNL     1     -55.009 -41.913  33.476  0.00  0.00    +0.000 A 
ATOM     33  C   UNL     1     -55.155 -41.684  34.845  0.00  0.00    +0.000 A 
ATOM     34  F   UNL     1     -54.045 -41.433  35.552  0.00  0.00    +0.000 F 
ENDBRANCH  25  27
ENDBRANCH  23  25
ENDBRANCH   1  23
TORSDOF 6
ENDMDL
MODEL 5
REMARK VINA RESULT:      -7.0      2.430      2.806
REMARK  Name = Cdk12_Inhibitor.pdbqt.pdb
REMARK  6 active torsions:
REMARK  status: ('A' for Active; 'I' for Inactive)
REMARK    1  A    between atoms: N_1  and  C_23
REMARK    2  A    between atoms: N_9  and  C_11
REMARK    3  A    between atoms: C_14  and  S_17
REMARK    4  A    between atoms: S_17  and  N_20
REMARK    5  A    between atoms: C_23  and  N_25
REMARK    6  A    between atoms: N_25  and  C_27
REMARK                            x       y       z     vdW  Elec       q    Type
REMARK                         _______ _______ _______ _____ _____    ______ ____
ROOT
ATOM      1  N   UNL     1     -63.744 -67.411  41.897  0.00  0.00    +0.000 N 
ATOM      2  N   UNL     1     -62.909 -68.361  42.394  0.00  0.00    +0.000 NA
ATOM      3  N   UNL     1     -65.056 -68.879  42.908  0.00  0.00    +0.000 NA
ATOM      4  N   UNL     1     -66.142 -66.956  42.065  0.00  0.00    +0.000 N 
ATOM      5  C   UNL     1     -63.740 -69.233  42.958  0.00  0.00    +0.000 A 
ATOM      6  C   UNL     1     -65.048 -67.727  42.289  0.00  0.00    +0.000 A 
ATOM      7  H   UNL     1     -66.055 -65.966  42.299  0.00  0.00    +0.000 HD
ATOM      8  H   UNL     1     -66.979 -67.328  42.515  0.00  0.00    +0.000 HD
ATOM      9  N   UNL     1     -63.455 -70.393  43.574  0.00  0.00    +0.000 N 
ATOM     10  H   UNL     1     -64.253 -70.902  43.932  0.00  0.00    +0.000 HD
ENDROOT
BRANCH   9  11
ATOM     11  C   UNL     1     -62.221 -71.032  43.782  0.00  0.00    +0.000 A 
ATOM     12  C   UNL     1     -61.366 -71.232  42.689  0.00  0.00    +0.000 A 
ATOM     13  C   UNL     1     -60.139 -71.874  42.840  0.00  0.00    +0.000 A 
ATOM     14  C   UNL     1     -59.771 -72.336  44.097  0.00  0.00    +0.000 A 
ATOM     15  C   UNL     1     -60.585 -72.138  45.205  0.00  0.00    +0.000 A 
ATOM     16  C   UNL     1     -61.808 -71.497  45.037  0.00  0.00    +0.000 A 
BRANCH  14  17
ATOM     17  S   UNL     1     -58.207 -73.085  44.311  0.00  0.00    +0.000 S 
ATOM     18  O   UNL     1     -58.295 -74.483  43.954  0.00  0.00    +0.000 OA
ATOM     19  O   UNL     1     -57.183 -72.220  43.779  0.00  0.00    +0.000 OA
BRANCH  17  20
ATOM     20  N   UNL     1     -58.022 -73.057  45.981  0.00  0.00    +0.000 NA
ATOM     21  H   UNL     1     -57.312 -72.370  46.236  0.00  0.00    +0.000 HD
ATOM     22  H   UNL     1     -58.928 -72.898  46.423  0.00  0.00    +0.000 HD
ENDBRANCH  17  20
ENDBRANCH  14  17
ENDBRANCH   9  11
BRANCH   1  23
ATOM     23  C   UNL     1     -63.238 -66.337  41.108  0.00  0.00    +0.000 C 
ATOM     24  S   UNL     1     -64.150 -65.434  40.014  0.00  0.00    +0.000 S 
BRANCH  23  25
ATOM     25  N   UNL     1     -61.914 -66.068  41.478  0.00  0.00    +0.000 N 
ATOM     26  H   UNL     1     -61.327 -66.887  41.666  0.00  0.00    +0.000 HD
BRANCH  25  27
ATOM     27  C   UNL     1     -61.317 -64.843  41.877  0.00  0.00    +0.000 A 
ATOM     28  C   UNL     1     -60.356 -64.292  41.021  0.00  0.00    +0.000 A 
ATOM     29  F   UNL     1     -60.036 -64.941  39.890  0.00  0.00    +0.000 F 
ATOM     30  C   UNL     1     -59.714 -63.092  41.312  0.00  0.00    +0.000 A 
ATOM     31  C   UNL     1     -60.049 -62.402  42.472  0.00  0.00    +0.000 A 
ATOM     32  C   UNL     1     -61.048 -62.894  43.306  0.00  0.00    +0.000 A 
ATOM     33  C   UNL     1     -61.681 -64.100  43.003  0.00  0.00    +0.000 A 
ATOM     34  F   UNL     1     -62.753 -64.437  43.733  0.00  0.00    +0.000 F 
ENDBRANCH  25  27
ENDBRANCH  23  25
ENDBRANCH   1  23
TORSDOF 6
ENDMDL
MODEL 6
REMARK VINA RESULT:      -6.9     24.516     26.798
REMARK  Name = Cdk12_Inhibitor.pdbqt.pdb
REMARK  6 active torsions:
REMARK  status: ('A' for Active; 'I' for Inactive)
REMARK    1  A    between atoms: N_1  and  C_23
REMARK    2  A    between atoms: N_9  and  C_11
REMARK    3  A    between atoms: C_14  and  S_17
REMARK    4  A    between atoms: S_17  and  N_20
REMARK    5  A    between atoms: C_23  and  N_25
REMARK    6  A    between atoms: N_25  and  C_27
REMARK                            x       y       z     vdW  Elec       q    Type
REMARK                         _______ _______ _______ _____ _____    ______ ____
ROOT
ATOM      1  N   UNL     1     -57.462 -39.742  38.481  0.00  0.00    +0.000 N 
ATOM      2  N   UNL     1     -58.699 -40.304  38.480  0.00  0.00    +0.000 NA
ATOM      3  N   UNL     1     -58.280 -39.372  40.505  0.00  0.00    +0.000 NA
ATOM      4  N   UNL     1     -56.041 -38.691  40.173  0.00  0.00    +0.000 N 
ATOM      5  C   UNL     1     -59.160 -40.028  39.696  0.00  0.00    +0.000 A 
ATOM      6  C   UNL     1     -57.213 -39.237  39.761  0.00  0.00    +0.000 A 
ATOM      7  H   UNL     1     -55.193 -39.217  39.954  0.00  0.00    +0.000 HD
ATOM      8  H   UNL     1     -56.043 -38.472  41.170  0.00  0.00    +0.000 HD
ATOM      9  N   UNL     1     -60.359 -40.320  40.230  0.00  0.00    +0.000 N 
ATOM     10  H   UNL     1     -60.498 -40.009  41.183  0.00  0.00    +0.000 HD
ENDROOT
BRANCH   9  11
ATOM     11  C   UNL     1     -61.471 -40.969  39.665  0.00  0.00    +0.000 A 
ATOM     12  C   UNL     1     -62.250 -40.289  38.720  0.00  0.00    +0.000 A 
ATOM     13  C   UNL     1     -63.369 -40.883  38.143  0.00  0.00    +0.000 A 
ATOM     14  C   UNL     1     -63.724 -42.168  38.530  0.00  0.00    +0.000 A 
ATOM     15  C   UNL     1     -62.964 -42.880  39.450  0.00  0.00    +0.000 A 
ATOM     16  C   UNL     1     -61.849 -42.271  40.018  0.00  0.00    +0.000 A 
BRANCH  14  17
ATOM     17  S   UNL     1     -65.089 -42.948  37.767  0.00  0.00    +0.000 S 
ATOM     18  O   UNL     1     -66.164 -43.072  38.725  0.00  0.00    +0.000 OA
ATOM     19  O   UNL     1     -65.291 -42.385  36.455  0.00  0.00    +0.000 OA
BRANCH  17  20
ATOM     20  N   UNL     1     -64.519 -44.509  37.523  0.00  0.00    +0.000 NA
ATOM     21  H   UNL     1     -64.886 -44.876  36.645  0.00  0.00    +0.000 HD
ATOM     22  H   UNL     1     -63.500 -44.515  37.579  0.00  0.00    +0.000 HD
ENDBRANCH  17  20
ENDBRANCH  14  17
ENDBRANCH   9  11
BRANCH   1  23
ATOM     23  C   UNL     1     -56.669 -39.723  37.297  0.00  0.00    +0.000 C 
ATOM     24  S   UNL     1     -56.170 -38.326  36.494  0.00  0.00    +0.000 S 
BRANCH  23  25
ATOM     25  N   UNL     1     -56.261 -41.026  36.986  0.00  0.00    +0.000 N 
ATOM     26  H   UNL     1     -57.012 -41.689  36.766  0.00  0.00    +0.000 HD
BRANCH  25  27
ATOM     27  C   UNL     1     -54.997 -41.647  37.168  0.00  0.00    +0.000 A 
ATOM     28  C   UNL     1     -54.142 -41.691  36.060  0.00  0.00    +0.000 A 
ATOM     29  F   UNL     1     -54.553 -41.166  34.894  0.00  0.00    +0.000 F 
ATOM     30  C   UNL     1     -52.878 -42.269  36.129  0.00  0.00    +0.000 A 
ATOM     31  C   UNL     1     -52.436 -42.801  37.336  0.00  0.00    +0.000 A 
ATOM     32  C   UNL     1     -53.239 -42.711  38.468  0.00  0.00    +0.000 A 
ATOM     33  C   UNL     1     -54.506 -42.131  38.383  0.00  0.00    +0.000 A 
ATOM     34  F   UNL     1     -55.162 -41.907  39.530  0.00  0.00    +0.000 F 
ENDBRANCH  25  27
ENDBRANCH  23  25
ENDBRANCH   1  23
TORSDOF 6
ENDMDL
MODEL 7
REMARK VINA RESULT:      -6.9     24.486     26.977
REMARK  Name = Cdk12_Inhibitor.pdbqt.pdb
REMARK  6 active torsions:
REMARK  status: ('A' for Active; 'I' for Inactive)
REMARK    1  A    between atoms: N_1  and  C_23
REMARK    2  A    between atoms: N_9  and  C_11
REMARK    3  A    between atoms: C_14  and  S_17
REMARK    4  A    between atoms: S_17  and  N_20
REMARK    5  A    between atoms: C_23  and  N_25
REMARK    6  A    between atoms: N_25  and  C_27
REMARK                            x       y       z     vdW  Elec       q    Type
REMARK                         _______ _______ _______ _____ _____    ______ ____
ROOT
ATOM      1  N   UNL     1     -57.429 -39.755  38.447  0.00  0.00    +0.000 N 
ATOM      2  N   UNL     1     -58.673 -40.300  38.437  0.00  0.00    +0.000 NA
ATOM      3  N   UNL     1     -58.182 -39.539  40.517  0.00  0.00    +0.000 NA
ATOM      4  N   UNL     1     -55.943 -38.863  40.174  0.00  0.00    +0.000 N 
ATOM      5  C   UNL     1     -59.095 -40.117  39.685  0.00  0.00    +0.000 A 
ATOM      6  C   UNL     1     -57.135 -39.358  39.754  0.00  0.00    +0.000 A 
ATOM      7  H   UNL     1     -55.111 -39.380  39.888  0.00  0.00    +0.000 HD
ATOM      8  H   UNL     1     -55.914 -38.725  41.185  0.00  0.00    +0.000 HD
ATOM      9  N   UNL     1     -60.282 -40.435  40.229  0.00  0.00    +0.000 N 
ATOM     10  H   UNL     1     -60.389 -40.201  41.208  0.00  0.00    +0.000 HD
ENDROOT
BRANCH   9  11
ATOM     11  C   UNL     1     -61.420 -41.023  39.648  0.00  0.00    +0.000 A 
ATOM     12  C   UNL     1     -61.788 -42.319  40.032  0.00  0.00    +0.000 A 
ATOM     13  C   UNL     1     -62.898 -42.950  39.476  0.00  0.00    +0.000 A 
ATOM     14  C   UNL     1     -63.639 -42.281  38.510  0.00  0.00    +0.000 A 
ATOM     15  C   UNL     1     -63.315 -40.988  38.120  0.00  0.00    +0.000 A 
ATOM     16  C   UNL     1     -62.201 -40.373  38.685  0.00  0.00    +0.000 A 
BRANCH  14  17
ATOM     17  S   UNL     1     -65.070 -43.036  37.851  0.00  0.00    +0.000 S 
ATOM     18  O   UNL     1     -66.067 -43.157  38.890  0.00  0.00    +0.000 OA
ATOM     19  O   UNL     1     -65.369 -42.457  36.564  0.00  0.00    +0.000 OA
BRANCH  17  20
ATOM     20  N   UNL     1     -64.542 -44.601  37.547  0.00  0.00    +0.000 NA
ATOM     21  H   UNL     1     -65.133 -45.032  36.836  0.00  0.00    +0.000 HD
ATOM     22  H   UNL     1     -63.550 -44.588  37.306  0.00  0.00    +0.000 HD
ENDBRANCH  17  20
ENDBRANCH  14  17
ENDBRANCH   9  11
BRANCH   1  23
ATOM     23  C   UNL     1     -56.670 -39.652  37.244  0.00  0.00    +0.000 C 
ATOM     24  S   UNL     1     -56.002 -38.222  36.647  0.00  0.00    +0.000 S 
BRANCH  23  25
ATOM     25  N   UNL     1     -56.455 -40.930  36.715  0.00  0.00    +0.000 N 
ATOM     26  H   UNL     1     -56.150 -41.646  37.383  0.00  0.00    +0.000 HD
BRANCH  25  27
ATOM     27  C   UNL     1     -56.350 -41.343  35.360  0.00  0.00    +0.000 A 
ATOM     28  C   UNL     1     -57.545 -41.562  34.665  0.00  0.00    +0.000 A 
ATOM     29  F   UNL     1     -58.715 -41.389  35.300  0.00  0.00    +0.000 F 
ATOM     30  C   UNL     1     -57.557 -41.962  33.331  0.00  0.00    +0.000 A 
ATOM     31  C   UNL     1     -56.351 -42.128  32.658  0.00  0.00    +0.000 A 
ATOM     32  C   UNL     1     -55.152 -41.854  33.306  0.00  0.00    +0.000 A 
ATOM     33  C   UNL     1     -55.155 -41.457  34.644  0.00  0.00    +0.000 A 
ATOM     34  F   UNL     1     -53.996 -41.032  35.167  0.00  0.00    +0.000 F 
ENDBRANCH  25  27
ENDBRANCH  23  25
ENDBRANCH   1  23
TORSDOF 6
ENDMDL
MODEL 8
REMARK VINA RESULT:      -6.7      3.808      4.785
REMARK  Name = Cdk12_Inhibitor.pdbqt.pdb
REMARK  6 active torsions:
REMARK  status: ('A' for Active; 'I' for Inactive)
REMARK    1  A    between atoms: N_1  and  C_23
REMARK    2  A    between atoms: N_9  and  C_11
REMARK    3  A    between atoms: C_14  and  S_17
REMARK    4  A    between atoms: S_17  and  N_20
REMARK    5  A    between atoms: C_23  and  N_25
REMARK    6  A    between atoms: N_25  and  C_27
REMARK                            x       y       z     vdW  Elec       q    Type
REMARK                         _______ _______ _______ _____ _____    ______ ____
ROOT
ATOM      1  N   UNL     1     -64.960 -68.206  42.690  0.00  0.00    +0.000 N 
ATOM      2  N   UNL     1     -63.877 -68.935  43.065  0.00  0.00    +0.000 NA
ATOM      3  N   UNL     1     -65.665 -70.302  42.784  0.00  0.00    +0.000 NA
ATOM      4  N   UNL     1     -67.333 -68.688  42.336  0.00  0.00    +0.000 N 
ATOM      5  C   UNL     1     -64.338 -70.182  43.074  0.00  0.00    +0.000 A 
ATOM      6  C   UNL     1     -66.056 -69.069  42.591  0.00  0.00    +0.000 A 
ATOM      7  H   UNL     1     -67.692 -67.907  42.887  0.00  0.00    +0.000 HD
ATOM      8  H   UNL     1     -67.990 -69.466  42.399  0.00  0.00    +0.000 HD
ATOM      9  N   UNL     1     -63.679 -71.323  43.342  0.00  0.00    +0.000 N 
ATOM     10  H   UNL     1     -64.234 -72.168  43.288  0.00  0.00    +0.000 HD
ENDROOT
BRANCH   9  11
ATOM     11  C   UNL     1     -62.327 -71.538  43.662  0.00  0.00    +0.000 A 
ATOM     12  C   UNL     1     -61.360 -71.398  42.658  0.00  0.00    +0.000 A 
ATOM     13  C   UNL     1     -60.009 -71.615  42.921  0.00  0.00    +0.000 A 
ATOM     14  C   UNL     1     -59.625 -71.993  44.201  0.00  0.00    +0.000 A 
ATOM     15  C   UNL     1     -60.554 -72.122  45.225  0.00  0.00    +0.000 A 
ATOM     16  C   UNL     1     -61.900 -71.903  44.945  0.00  0.00    +0.000 A 
BRANCH  14  17
ATOM     17  S   UNL     1     -57.928 -72.205  44.559  0.00  0.00    +0.000 S 
ATOM     18  O   UNL     1     -57.338 -73.081  43.573  0.00  0.00    +0.000 OA
ATOM     19  O   UNL     1     -57.346 -70.930  44.900  0.00  0.00    +0.000 OA
BRANCH  17  20
ATOM     20  N   UNL     1     -57.971 -73.094  45.984  0.00  0.00    +0.000 NA
ATOM     21  H   UNL     1     -57.336 -73.889  45.913  0.00  0.00    +0.000 HD
ATOM     22  H   UNL     1     -57.777 -72.480  46.777  0.00  0.00    +0.000 HD
ENDBRANCH  17  20
ENDBRANCH  14  17
ENDBRANCH   9  11
BRANCH   1  23
ATOM     23  C   UNL     1     -64.848 -66.805  42.452  0.00  0.00    +0.000 C 
ATOM     24  S   UNL     1     -64.146 -65.700  43.517  0.00  0.00    +0.000 S 
BRANCH  23  25
ATOM     25  N   UNL     1     -65.286 -66.514  41.154  0.00  0.00    +0.000 N 
ATOM     26  H   UNL     1     -66.287 -66.649  40.979  0.00  0.00    +0.000 HD
BRANCH  25  27
ATOM     27  C   UNL     1     -64.530 -66.300  39.971  0.00  0.00    +0.000 A 
ATOM     28  C   UNL     1     -64.356 -67.396  39.118  0.00  0.00    +0.000 A 
ATOM     29  F   UNL     1     -64.887 -68.582  39.456  0.00  0.00    +0.000 F 
ATOM     30  C   UNL     1     -63.640 -67.296  37.929  0.00  0.00    +0.000 A 
ATOM     31  C   UNL     1     -63.099 -66.069  37.559  0.00  0.00    +0.000 A 
ATOM     32  C   UNL     1     -63.314 -64.949  38.356  0.00  0.00    +0.000 A 
ATOM     33  C   UNL     1     -64.032 -65.066  39.547  0.00  0.00    +0.000 A 
ATOM     34  F   UNL     1     -64.364 -63.933  40.182  0.00  0.00    +0.000 F 
ENDBRANCH  25  27
ENDBRANCH  23  25
ENDBRANCH   1  23
TORSDOF 6
ENDMDL
MODEL 9
REMARK VINA RESULT:      -6.6     13.442     15.661
REMARK  Name = Cdk12_Inhibitor.pdbqt.pdb
REMARK  6 active torsions:
REMARK  status: ('A' for Active; 'I' for Inactive)
REMARK    1  A    between atoms: N_1  and  C_23
REMARK    2  A    between atoms: N_9  and  C_11
REMARK    3  A    between atoms: C_14  and  S_17
REMARK    4  A    between atoms: S_17  and  N_20
REMARK    5  A    between atoms: C_23  and  N_25
REMARK    6  A    between atoms: N_25  and  C_27
REMARK                            x       y       z     vdW  Elec       q    Type
REMARK                         _______ _______ _______ _____ _____    ______ ____
ROOT
ATOM      1  N   UNL     1     -65.398 -72.878  28.760  0.00  0.00    +0.000 N 
ATOM      2  N   UNL     1     -64.397 -72.454  27.945  0.00  0.00    +0.000 NA
ATOM      3  N   UNL     1     -66.392 -72.247  26.886  0.00  0.00    +0.000 NA
ATOM      4  N   UNL     1     -67.805 -73.230  28.505  0.00  0.00    +0.000 N 
ATOM      5  C   UNL     1     -65.042 -72.055  26.853  0.00  0.00    +0.000 A 
ATOM      6  C   UNL     1     -66.601 -72.798  28.053  0.00  0.00    +0.000 A 
ATOM      7  H   UNL     1     -67.829 -74.166  28.912  0.00  0.00    +0.000 HD
ATOM      8  H   UNL     1     -68.535 -73.162  27.794  0.00  0.00    +0.000 HD
ATOM      9  N   UNL     1     -64.543 -71.510  25.731  0.00  0.00    +0.000 N 
ATOM     10  H   UNL     1     -65.224 -71.279  25.019  0.00  0.00    +0.000 HD
ENDROOT
BRANCH   9  11
ATOM     11  C   UNL     1     -63.219 -71.180  25.391  0.00  0.00    +0.000 A 
ATOM     12  C   UNL     1     -62.532 -71.982  24.469  0.00  0.00    +0.000 A 
ATOM     13  C   UNL     1     -61.215 -71.705  24.112  0.00  0.00    +0.000 A 
ATOM     14  C   UNL     1     -60.571 -70.623  24.697  0.00  0.00    +0.000 A 
ATOM     15  C   UNL     1     -61.227 -69.795  25.600  0.00  0.00    +0.000 A 
ATOM     16  C   UNL     1     -62.543 -70.087  25.948  0.00  0.00    +0.000 A 
BRANCH  14  17
ATOM     17  S   UNL     1     -58.941 -70.229  24.209  0.00  0.00    +0.000 S 
ATOM     18  O   UNL     1     -58.783 -68.792  24.189  0.00  0.00    +0.000 OA
ATOM     19  O   UNL     1     -58.012 -71.093  24.895  0.00  0.00    +0.000 OA
BRANCH  17  20
ATOM     20  N   UNL     1     -58.922 -70.708  22.599  0.00  0.00    +0.000 NA
ATOM     21  H   UNL     1     -58.163 -70.236  22.108  0.00  0.00    +0.000 HD
ATOM     22  H   UNL     1     -58.878 -71.726  22.545  0.00  0.00    +0.000 HD
ENDBRANCH  17  20
ENDBRANCH  14  17
ENDBRANCH   9  11
BRANCH   1  23
ATOM     23  C   UNL     1     -65.124 -73.289  30.098  0.00  0.00    +0.000 C 
ATOM     24  S   UNL     1     -64.268 -74.679  30.522  0.00  0.00    +0.000 S 
BRANCH  23  25
ATOM     25  N   UNL     1     -65.555 -72.298  30.989  0.00  0.00    +0.000 N 
ATOM     26  H   UNL     1     -66.570 -72.213  31.105  0.00  0.00    +0.000 HD
BRANCH  25  27
ATOM     27  C   UNL     1     -64.829 -71.226  31.571  0.00  0.00    +0.000 A 
ATOM     28  C   UNL     1     -64.262 -71.448  32.832  0.00  0.00    +0.000 A 
ATOM     29  F   UNL     1     -64.439 -72.637  33.430  0.00  0.00    +0.000 F 
ATOM     30  C   UNL     1     -63.525 -70.468  33.490  0.00  0.00    +0.000 A 
ATOM     31  C   UNL     1     -63.321 -69.238  32.873  0.00  0.00    +0.000 A 
ATOM     32  C   UNL     1     -63.817 -69.014  31.593  0.00  0.00    +0.000 A 
ATOM     33  C   UNL     1     -64.557 -70.006  30.947  0.00  0.00    +0.000 A 
ATOM     34  F   UNL     1     -64.855 -69.812  29.654  0.00  0.00    +0.000 F 
ENDBRANCH  25  27
ENDBRANCH  23  25
ENDBRANCH   1  23
TORSDOF 6
ENDMDL
