MODEL 1
REMARK VINA RESULT:      -7.3      0.000      0.000
REMARK  Name = CHEMBL35349.pdbqt.pdb
REMARK  2 active torsions:
REMARK  status: ('A' for Active; 'I' for Inactive)
REMARK    1  A    between atoms: C_2  and  C_11
REMARK    2  A    between atoms: C_5  and  O_21
REMARK                            x       y       z     vdW  Elec       q    Type
REMARK                         _______ _______ _______ _____ _____    ______ ____
ROOT
ATOM      1  N   UNL     1     -46.250 -62.425  45.060  0.00  0.00    +0.000 N 
ATOM      2  C   UNL     1     -46.569 -62.151  42.867  0.00  0.00    +0.000 A 
ATOM      3  C   UNL     1     -47.505 -61.331  43.589  0.00  0.00    +0.000 A 
ATOM      4  C   UNL     1     -47.279 -61.526  44.950  0.00  0.00    +0.000 A 
ATOM      5  C   UNL     1     -45.810 -62.812  43.822  0.00  0.00    +0.000 A 
ATOM      6  C   UNL     1     -48.527 -60.440  43.206  0.00  0.00    +0.000 A 
ATOM      7  C   UNL     1     -48.016 -60.882  45.950  0.00  0.00    +0.000 A 
ATOM      8  C   UNL     1     -49.275 -59.785  44.186  0.00  0.00    +0.000 A 
ATOM      9  C   UNL     1     -49.019 -60.005  45.535  0.00  0.00    +0.000 A 
ATOM     10  H   UNL     1     -45.860 -62.764  45.927  0.00  0.00    +0.000 HD
ENDROOT
BRANCH   2  11
ATOM     11  C   UNL     1     -46.444 -62.263  41.431  0.00  0.00    +0.000 C 
ATOM     12  N   UNL     1     -47.481 -62.380  40.643  0.00  0.00    +0.000 NA
ATOM     13  C   UNL     1     -46.977 -62.463  39.330  0.00  0.00    +0.000 A 
ATOM     14  C   UNL     1     -45.588 -62.401  39.252  0.00  0.00    +0.000 A 
ATOM     15  C   UNL     1     -47.716 -62.596  38.169  0.00  0.00    +0.000 A 
ATOM     16  C   UNL     1     -45.148 -62.265  40.626  0.00  0.00    +0.000 C 
ATOM     17  C   UNL     1     -44.873 -62.462  38.076  0.00  0.00    +0.000 A 
ATOM     18  O   UNL     1     -44.025 -62.173  41.066  0.00  0.00    +0.000 OA
ATOM     19  C   UNL     1     -45.624 -62.596  36.909  0.00  0.00    +0.000 A 
ATOM     20  C   UNL     1     -47.027 -62.663  36.954  0.00  0.00    +0.000 A 
ENDBRANCH   2  11
BRANCH   5  21
ATOM     21  O   UNL     1     -44.811 -63.685  43.772  0.00  0.00    +0.000 OA
ATOM     22  H   UNL     1     -44.309 -63.675  44.618  0.00  0.00    +0.000 HD
ENDBRANCH   5  21
TORSDOF 2
ENDMDL
MODEL 2
REMARK VINA RESULT:      -7.0      2.193      3.279
REMARK  Name = CHEMBL35349.pdbqt.pdb
REMARK  2 active torsions:
REMARK  status: ('A' for Active; 'I' for Inactive)
REMARK    1  A    between atoms: C_2  and  C_11
REMARK    2  A    between atoms: C_5  and  O_21
REMARK                            x       y       z     vdW  Elec       q    Type
REMARK                         _______ _______ _______ _____ _____    ______ ____
ROOT
ATOM      1  N   UNL     1     -49.712 -60.243  44.725  0.00  0.00    +0.000 N 
ATOM      2  C   UNL     1     -48.392 -61.090  43.137  0.00  0.00    +0.000 A 
ATOM      3  C   UNL     1     -49.126 -59.977  42.600  0.00  0.00    +0.000 A 
ATOM      4  C   UNL     1     -49.938 -59.473  43.614  0.00  0.00    +0.000 A 
ATOM      5  C   UNL     1     -48.789 -61.219  44.460  0.00  0.00    +0.000 A 
ATOM      6  C   UNL     1     -49.174 -59.350  41.338  0.00  0.00    +0.000 A 
ATOM      7  C   UNL     1     -50.795 -58.381  43.441  0.00  0.00    +0.000 A 
ATOM      8  C   UNL     1     -50.021 -58.257  41.142  0.00  0.00    +0.000 A 
ATOM      9  C   UNL     1     -50.816 -57.784  42.179  0.00  0.00    +0.000 A 
ATOM     10  H   UNL     1     -50.158 -60.120  45.623  0.00  0.00    +0.000 HD
ENDROOT
BRANCH   2  11
ATOM     11  C   UNL     1     -47.431 -61.913  42.437  0.00  0.00    +0.000 C 
ATOM     12  N   UNL     1     -47.550 -62.206  41.168  0.00  0.00    +0.000 NA
ATOM     13  C   UNL     1     -46.443 -63.014  40.840  0.00  0.00    +0.000 A 
ATOM     14  C   UNL     1     -45.583 -63.256  41.908  0.00  0.00    +0.000 A 
ATOM     15  C   UNL     1     -46.157 -63.558  39.601  0.00  0.00    +0.000 A 
ATOM     16  C   UNL     1     -46.175 -62.550  43.026  0.00  0.00    +0.000 C 
ATOM     17  C   UNL     1     -44.438 -64.017  41.824  0.00  0.00    +0.000 A 
ATOM     18  O   UNL     1     -45.791 -62.464  44.169  0.00  0.00    +0.000 OA
ATOM     19  C   UNL     1     -44.155 -64.564  40.574  0.00  0.00    +0.000 A 
ATOM     20  C   UNL     1     -45.003 -64.338  39.476  0.00  0.00    +0.000 A 
ENDBRANCH   2  11
BRANCH   5  21
ATOM     21  O   UNL     1     -48.468 -62.045  45.449  0.00  0.00    +0.000 OA
ATOM     22  H   UNL     1     -47.851 -62.740  45.124  0.00  0.00    +0.000 HD
ENDBRANCH   5  21
TORSDOF 2
ENDMDL
MODEL 3
REMARK VINA RESULT:      -6.7      9.626     11.892
REMARK  Name = CHEMBL35349.pdbqt.pdb
REMARK  2 active torsions:
REMARK  status: ('A' for Active; 'I' for Inactive)
REMARK    1  A    between atoms: C_2  and  C_11
REMARK    2  A    between atoms: C_5  and  O_21
REMARK                            x       y       z     vdW  Elec       q    Type
REMARK                         _______ _______ _______ _____ _____    ______ ____
ROOT
ATOM      1  N   UNL     1     -40.274 -56.688  34.008  0.00  0.00    +0.000 N 
ATOM      2  C   UNL     1     -42.031 -55.352  34.347  0.00  0.00    +0.000 A 
ATOM      3  C   UNL     1     -42.174 -56.538  35.149  0.00  0.00    +0.000 A 
ATOM      4  C   UNL     1     -41.064 -57.347  34.913  0.00  0.00    +0.000 A 
ATOM      5  C   UNL     1     -40.836 -55.490  33.655  0.00  0.00    +0.000 A 
ATOM      6  C   UNL     1     -43.150 -56.997  36.055  0.00  0.00    +0.000 A 
ATOM      7  C   UNL     1     -40.875 -58.588  35.531  0.00  0.00    +0.000 A 
ATOM      8  C   UNL     1     -42.981 -58.232  36.685  0.00  0.00    +0.000 A 
ATOM      9  C   UNL     1     -41.860 -59.011  36.423  0.00  0.00    +0.000 A 
ATOM     10  H   UNL     1     -39.397 -57.027  33.641  0.00  0.00    +0.000 HD
ENDROOT
BRANCH   2  11
ATOM     11  C   UNL     1     -42.949 -54.238  34.277  0.00  0.00    +0.000 C 
ATOM     12  N   UNL     1     -43.938 -54.197  33.422  0.00  0.00    +0.000 NA
ATOM     13  C   UNL     1     -44.607 -52.976  33.645  0.00  0.00    +0.000 A 
ATOM     14  C   UNL     1     -44.051 -52.204  34.662  0.00  0.00    +0.000 A 
ATOM     15  C   UNL     1     -45.719 -52.510  32.968  0.00  0.00    +0.000 A 
ATOM     16  C   UNL     1     -42.927 -52.981  35.142  0.00  0.00    +0.000 C 
ATOM     17  C   UNL     1     -44.535 -50.976  35.056  0.00  0.00    +0.000 A 
ATOM     18  O   UNL     1     -42.136 -52.724  36.020  0.00  0.00    +0.000 OA
ATOM     19  C   UNL     1     -45.655 -50.510  34.369  0.00  0.00    +0.000 A 
ATOM     20  C   UNL     1     -46.240 -51.266  33.338  0.00  0.00    +0.000 A 
ENDBRANCH   2  11
BRANCH   5  21
ATOM     21  O   UNL     1     -40.179 -54.738  32.780  0.00  0.00    +0.000 OA
ATOM     22  H   UNL     1     -40.791 -54.089  32.363  0.00  0.00    +0.000 HD
ENDBRANCH   5  21
TORSDOF 2
ENDMDL
MODEL 4
REMARK VINA RESULT:      -6.5     10.832     12.875
REMARK  Name = CHEMBL35349.pdbqt.pdb
REMARK  2 active torsions:
REMARK  status: ('A' for Active; 'I' for Inactive)
REMARK    1  A    between atoms: C_2  and  C_11
REMARK    2  A    between atoms: C_5  and  O_21
REMARK                            x       y       z     vdW  Elec       q    Type
REMARK                         _______ _______ _______ _____ _____    ______ ____
ROOT
ATOM      1  N   UNL     1     -41.150 -55.138  33.793  0.00  0.00    +0.000 N 
ATOM      2  C   UNL     1     -43.002 -53.895  33.886  0.00  0.00    +0.000 A 
ATOM      3  C   UNL     1     -43.116 -54.987  34.814  0.00  0.00    +0.000 A 
ATOM      4  C   UNL     1     -41.947 -55.741  34.730  0.00  0.00    +0.000 A 
ATOM      5  C   UNL     1     -41.764 -54.030  33.274  0.00  0.00    +0.000 A 
ATOM      6  C   UNL     1     -44.112 -55.404  35.719  0.00  0.00    +0.000 A 
ATOM      7  C   UNL     1     -41.716 -56.887  35.499  0.00  0.00    +0.000 A 
ATOM      8  C   UNL     1     -43.903 -56.545  36.498  0.00  0.00    +0.000 A 
ATOM      9  C   UNL     1     -42.723 -57.270  36.386  0.00  0.00    +0.000 A 
ATOM     10  H   UNL     1     -40.233 -55.456  33.512  0.00  0.00    +0.000 HD
ENDROOT
BRANCH   2  11
ATOM     11  C   UNL     1     -43.982 -52.861  33.639  0.00  0.00    +0.000 C 
ATOM     12  N   UNL     1     -44.291 -51.959  34.534  0.00  0.00    +0.000 NA
ATOM     13  C   UNL     1     -45.268 -51.131  33.945  0.00  0.00    +0.000 A 
ATOM     14  C   UNL     1     -45.607 -51.494  32.644  0.00  0.00    +0.000 A 
ATOM     15  C   UNL     1     -45.886 -50.042  34.530  0.00  0.00    +0.000 A 
ATOM     16  C   UNL     1     -44.785 -52.652  32.358  0.00  0.00    +0.000 C 
ATOM     17  C   UNL     1     -46.536 -50.832  31.872  0.00  0.00    +0.000 A 
ATOM     18  O   UNL     1     -44.725 -53.321  31.353  0.00  0.00    +0.000 OA
ATOM     19  C   UNL     1     -47.157 -49.735  32.466  0.00  0.00    +0.000 A 
ATOM     20  C   UNL     1     -46.837 -49.343  33.778  0.00  0.00    +0.000 A 
ENDBRANCH   2  11
BRANCH   5  21
ATOM     21  O   UNL     1     -41.106 -53.340  32.350  0.00  0.00    +0.000 OA
ATOM     22  H   UNL     1     -41.035 -53.866  31.520  0.00  0.00    +0.000 HD
ENDBRANCH   5  21
TORSDOF 2
ENDMDL
MODEL 5
REMARK VINA RESULT:      -6.2     11.386     13.514
REMARK  Name = CHEMBL35349.pdbqt.pdb
REMARK  2 active torsions:
REMARK  status: ('A' for Active; 'I' for Inactive)
REMARK    1  A    between atoms: C_2  and  C_11
REMARK    2  A    between atoms: C_5  and  O_21
REMARK                            x       y       z     vdW  Elec       q    Type
REMARK                         _______ _______ _______ _____ _____    ______ ____
ROOT
ATOM      1  N   UNL     1     -44.953 -51.008  30.632  0.00  0.00    +0.000 N 
ATOM      2  C   UNL     1     -44.483 -52.299  32.392  0.00  0.00    +0.000 A 
ATOM      3  C   UNL     1     -45.321 -51.208  32.813  0.00  0.00    +0.000 A 
ATOM      4  C   UNL     1     -45.594 -50.425  31.694  0.00  0.00    +0.000 A 
ATOM      5  C   UNL     1     -44.281 -52.133  31.030  0.00  0.00    +0.000 A 
ATOM      6  C   UNL     1     -45.872 -50.816  34.049  0.00  0.00    +0.000 A 
ATOM      7  C   UNL     1     -46.385 -49.272  31.739  0.00  0.00    +0.000 A 
ATOM      8  C   UNL     1     -46.666 -49.669  34.118  0.00  0.00    +0.000 A 
ATOM      9  C   UNL     1     -46.916 -48.913  32.979  0.00  0.00    +0.000 A 
ATOM     10  H   UNL     1     -44.966 -50.667  29.682  0.00  0.00    +0.000 HD
ENDROOT
BRANCH   2  11
ATOM     11  C   UNL     1     -43.957 -53.358  33.223  0.00  0.00    +0.000 C 
ATOM     12  N   UNL     1     -44.643 -53.888  34.203  0.00  0.00    +0.000 NA
ATOM     13  C   UNL     1     -43.818 -54.875  34.779  0.00  0.00    +0.000 A 
ATOM     14  C   UNL     1     -42.571 -54.996  34.170  0.00  0.00    +0.000 A 
ATOM     15  C   UNL     1     -44.134 -55.693  35.848  0.00  0.00    +0.000 A 
ATOM     16  C   UNL     1     -42.581 -54.009  33.110  0.00  0.00    +0.000 C 
ATOM     17  C   UNL     1     -41.601 -55.892  34.562  0.00  0.00    +0.000 A 
ATOM     18  O   UNL     1     -41.720 -53.737  32.306  0.00  0.00    +0.000 OA
ATOM     19  C   UNL     1     -41.924 -56.713  35.640  0.00  0.00    +0.000 A 
ATOM     20  C   UNL     1     -43.174 -56.616  36.276  0.00  0.00    +0.000 A 
ENDBRANCH   2  11
BRANCH   5  21
ATOM     21  O   UNL     1     -43.611 -52.807  30.102  0.00  0.00    +0.000 OA
ATOM     22  H   UNL     1     -43.314 -53.674  30.461  0.00  0.00    +0.000 HD
ENDBRANCH   5  21
TORSDOF 2
ENDMDL
MODEL 6
REMARK VINA RESULT:      -6.2     11.746     13.117
REMARK  Name = CHEMBL35349.pdbqt.pdb
REMARK  2 active torsions:
REMARK  status: ('A' for Active; 'I' for Inactive)
REMARK    1  A    between atoms: C_2  and  C_11
REMARK    2  A    between atoms: C_5  and  O_21
REMARK                            x       y       z     vdW  Elec       q    Type
REMARK                         _______ _______ _______ _____ _____    ______ ____
ROOT
ATOM      1  N   UNL     1     -44.555 -50.814  35.238  0.00  0.00    +0.000 N 
ATOM      2  C   UNL     1     -44.238 -52.370  33.668  0.00  0.00    +0.000 A 
ATOM      3  C   UNL     1     -45.249 -51.447  33.225  0.00  0.00    +0.000 A 
ATOM      4  C   UNL     1     -45.421 -50.493  34.226  0.00  0.00    +0.000 A 
ATOM      5  C   UNL     1     -43.836 -51.937  34.923  0.00  0.00    +0.000 A 
ATOM      6  C   UNL     1     -46.035 -51.338  32.061  0.00  0.00    +0.000 A 
ATOM      7  C   UNL     1     -46.333 -49.436  34.130  0.00  0.00    +0.000 A 
ATOM      8  C   UNL     1     -46.952 -50.292  31.942  0.00  0.00    +0.000 A 
ATOM      9  C   UNL     1     -47.095 -49.358  32.963  0.00  0.00    +0.000 A 
ATOM     10  H   UNL     1     -44.449 -50.303  36.102  0.00  0.00    +0.000 HD
ENDROOT
BRANCH   2  11
ATOM     11  C   UNL     1     -43.740 -53.520  32.948  0.00  0.00    +0.000 C 
ATOM     12  N   UNL     1     -43.395 -53.463  31.687  0.00  0.00    +0.000 NA
ATOM     13  C   UNL     1     -42.964 -54.758  31.334  0.00  0.00    +0.000 A 
ATOM     14  C   UNL     1     -43.027 -55.679  32.375  0.00  0.00    +0.000 A 
ATOM     15  C   UNL     1     -42.506 -55.164  30.094  0.00  0.00    +0.000 A 
ATOM     16  C   UNL     1     -43.541 -54.927  33.502  0.00  0.00    +0.000 C 
ATOM     17  C   UNL     1     -42.659 -57.002  32.264  0.00  0.00    +0.000 A 
ATOM     18  O   UNL     1     -43.769 -55.297  34.631  0.00  0.00    +0.000 OA
ATOM     19  C   UNL     1     -42.199 -57.407  31.012  0.00  0.00    +0.000 A 
ATOM     20  C   UNL     1     -42.123 -56.501  29.940  0.00  0.00    +0.000 A 
ENDBRANCH   2  11
BRANCH   5  21
ATOM     21  O   UNL     1     -42.952 -52.369  35.815  0.00  0.00    +0.000 OA
ATOM     22  H   UNL     1     -43.141 -51.977  36.697  0.00  0.00    +0.000 HD
ENDBRANCH   5  21
TORSDOF 2
ENDMDL
MODEL 7
REMARK VINA RESULT:      -6.1     11.546     13.862
REMARK  Name = CHEMBL35349.pdbqt.pdb
REMARK  2 active torsions:
REMARK  status: ('A' for Active; 'I' for Inactive)
REMARK    1  A    between atoms: C_2  and  C_11
REMARK    2  A    between atoms: C_5  and  O_21
REMARK                            x       y       z     vdW  Elec       q    Type
REMARK                         _______ _______ _______ _____ _____    ______ ____
ROOT
ATOM      1  N   UNL     1     -42.963 -50.219  31.208  0.00  0.00    +0.000 N 
ATOM      2  C   UNL     1     -43.504 -51.901  32.574  0.00  0.00    +0.000 A 
ATOM      3  C   UNL     1     -44.702 -51.222  32.159  0.00  0.00    +0.000 A 
ATOM      4  C   UNL     1     -44.329 -50.181  31.311  0.00  0.00    +0.000 A 
ATOM      5  C   UNL     1     -42.449 -51.243  31.959  0.00  0.00    +0.000 A 
ATOM      6  C   UNL     1     -46.073 -51.399  32.430  0.00  0.00    +0.000 A 
ATOM      7  C   UNL     1     -45.248 -49.308  30.718  0.00  0.00    +0.000 A 
ATOM      8  C   UNL     1     -47.008 -50.540  31.849  0.00  0.00    +0.000 A 
ATOM      9  C   UNL     1     -46.597 -49.513  31.008  0.00  0.00    +0.000 A 
ATOM     10  H   UNL     1     -42.399 -49.586  30.660  0.00  0.00    +0.000 HD
ENDROOT
BRANCH   2  11
ATOM     11  C   UNL     1     -43.416 -53.043  33.456  0.00  0.00    +0.000 C 
ATOM     12  N   UNL     1     -42.627 -54.057  33.215  0.00  0.00    +0.000 NA
ATOM     13  C   UNL     1     -42.808 -54.965  34.278  0.00  0.00    +0.000 A 
ATOM     14  C   UNL     1     -43.729 -54.541  35.233  0.00  0.00    +0.000 A 
ATOM     15  C   UNL     1     -42.173 -56.182  34.440  0.00  0.00    +0.000 A 
ATOM     16  C   UNL     1     -44.188 -53.253  34.756  0.00  0.00    +0.000 C 
ATOM     17  C   UNL     1     -44.067 -55.262  36.357  0.00  0.00    +0.000 A 
ATOM     18  O   UNL     1     -44.993 -52.496  35.246  0.00  0.00    +0.000 OA
ATOM     19  C   UNL     1     -43.425 -56.489  36.515  0.00  0.00    +0.000 A 
ATOM     20  C   UNL     1     -42.490 -56.944  35.569  0.00  0.00    +0.000 A 
ENDBRANCH   2  11
BRANCH   5  21
ATOM     21  O   UNL     1     -41.130 -51.403  31.956  0.00  0.00    +0.000 OA
ATOM     22  H   UNL     1     -40.726 -50.896  32.696  0.00  0.00    +0.000 HD
ENDBRANCH   5  21
TORSDOF 2
ENDMDL
MODEL 8
REMARK VINA RESULT:      -6.1      3.392      6.554
REMARK  Name = CHEMBL35349.pdbqt.pdb
REMARK  2 active torsions:
REMARK  status: ('A' for Active; 'I' for Inactive)
REMARK    1  A    between atoms: C_2  and  C_11
REMARK    2  A    between atoms: C_5  and  O_21
REMARK                            x       y       z     vdW  Elec       q    Type
REMARK                         _______ _______ _______ _____ _____    ______ ____
ROOT
ATOM      1  N   UNL     1     -42.664 -64.922  39.221  0.00  0.00    +0.000 N 
ATOM      2  C   UNL     1     -44.036 -64.193  40.825  0.00  0.00    +0.000 A 
ATOM      3  C   UNL     1     -43.485 -65.464  41.212  0.00  0.00    +0.000 A 
ATOM      4  C   UNL     1     -42.637 -65.889  40.191  0.00  0.00    +0.000 A 
ATOM      5  C   UNL     1     -43.497 -63.896  39.581  0.00  0.00    +0.000 A 
ATOM      6  C   UNL     1     -43.633 -66.293  42.341  0.00  0.00    +0.000 A 
ATOM      7  C   UNL     1     -41.928 -67.094  40.235  0.00  0.00    +0.000 A 
ATOM      8  C   UNL     1     -42.935 -67.501  42.407  0.00  0.00    +0.000 A 
ATOM      9  C   UNL     1     -42.097 -67.890  41.368  0.00  0.00    +0.000 A 
ATOM     10  H   UNL     1     -42.147 -64.948  38.354  0.00  0.00    +0.000 HD
ENDROOT
BRANCH   2  11
ATOM     11  C   UNL     1     -44.965 -63.385  41.581  0.00  0.00    +0.000 C 
ATOM     12  N   UNL     1     -44.930 -63.312  42.887  0.00  0.00    +0.000 NA
ATOM     13  C   UNL     1     -45.972 -62.442  43.265  0.00  0.00    +0.000 A 
ATOM     14  C   UNL     1     -46.703 -61.935  42.194  0.00  0.00    +0.000 A 
ATOM     15  C   UNL     1     -46.309 -62.070  44.554  0.00  0.00    +0.000 A 
ATOM     16  C   UNL     1     -46.090 -62.520  41.019  0.00  0.00    +0.000 C 
ATOM     17  C   UNL     1     -47.766 -61.067  42.322  0.00  0.00    +0.000 A 
ATOM     18  O   UNL     1     -46.377 -62.380  39.853  0.00  0.00    +0.000 OA
ATOM     19  C   UNL     1     -48.102 -60.696  43.622  0.00  0.00    +0.000 A 
ATOM     20  C   UNL     1     -47.383 -61.191  44.725  0.00  0.00    +0.000 A 
ENDBRANCH   2  11
BRANCH   5  21
ATOM     21  O   UNL     1     -43.624 -62.882  38.733  0.00  0.00    +0.000 OA
ATOM     22  H   UNL     1     -42.738 -62.583  38.427  0.00  0.00    +0.000 HD
ENDBRANCH   5  21
TORSDOF 2
ENDMDL
MODEL 9
REMARK VINA RESULT:      -5.9     23.904     26.383
REMARK  Name = CHEMBL35349.pdbqt.pdb
REMARK  2 active torsions:
REMARK  status: ('A' for Active; 'I' for Inactive)
REMARK    1  A    between atoms: C_2  and  C_11
REMARK    2  A    between atoms: C_5  and  O_21
REMARK                            x       y       z     vdW  Elec       q    Type
REMARK                         _______ _______ _______ _____ _____    ______ ____
ROOT
ATOM      1  N   UNL     1     -34.426 -64.497  68.387  0.00  0.00    +0.000 N 
ATOM      2  C   UNL     1     -34.485 -64.486  66.155  0.00  0.00    +0.000 A 
ATOM      3  C   UNL     1     -35.663 -63.837  66.664  0.00  0.00    +0.000 A 
ATOM      4  C   UNL     1     -35.594 -63.862  68.056  0.00  0.00    +0.000 A 
ATOM      5  C   UNL     1     -33.746 -64.880  67.261  0.00  0.00    +0.000 A 
ATOM      6  C   UNL     1     -36.784 -63.230  66.065  0.00  0.00    +0.000 A 
ATOM      7  C   UNL     1     -36.581 -63.315  68.883  0.00  0.00    +0.000 A 
ATOM      8  C   UNL     1     -37.782 -62.676  66.871  0.00  0.00    +0.000 A 
ATOM      9  C   UNL     1     -37.677 -62.721  68.256  0.00  0.00    +0.000 A 
ATOM     10  H   UNL     1     -34.098 -64.668  69.326  0.00  0.00    +0.000 HD
ENDROOT
BRANCH   2  11
ATOM     11  C   UNL     1     -34.139 -64.688  64.766  0.00  0.00    +0.000 C 
ATOM     12  N   UNL     1     -34.779 -65.533  63.999  0.00  0.00    +0.000 NA
ATOM     13  C   UNL     1     -34.171 -65.459  62.730  0.00  0.00    +0.000 A 
ATOM     14  C   UNL     1     -33.116 -64.553  62.660  0.00  0.00    +0.000 A 
ATOM     15  C   UNL     1     -34.523 -66.180  61.604  0.00  0.00    +0.000 A 
ATOM     16  C   UNL     1     -33.026 -63.988  63.991  0.00  0.00    +0.000 C 
ATOM     17  C   UNL     1     -32.374 -64.313  61.525  0.00  0.00    +0.000 A 
ATOM     18  O   UNL     1     -32.261 -63.157  64.422  0.00  0.00    +0.000 OA
ATOM     19  C   UNL     1     -32.732 -65.042  60.393  0.00  0.00    +0.000 A 
ATOM     20  C   UNL     1     -33.793 -65.965  60.430  0.00  0.00    +0.000 A 
ENDBRANCH   2  11
BRANCH   5  21
ATOM     21  O   UNL     1     -32.589 -65.511  67.428  0.00  0.00    +0.000 OA
ATOM     22  H   UNL     1     -31.841 -64.882  67.309  0.00  0.00    +0.000 HD
ENDBRANCH   5  21
TORSDOF 2
ENDMDL
