MODEL 1
REMARK VINA RESULT:      -8.4      0.000      0.000
REMARK  Name = Chlortetracycline.pdbqt.pdb
REMARK  7 active torsions:
REMARK  status: ('A' for Active; 'I' for Inactive)
REMARK    1  A    between atoms: C_7  and  O_30
REMARK    2  A    between atoms: C_8  and  N_32
REMARK    3  A    between atoms: C_9  and  O_37
REMARK    4  A    between atoms: C_12  and  O_28
REMARK    5  A    between atoms: C_15  and  O_35
REMARK    6  A    between atoms: C_16  and  C_23
REMARK    7  A    between atoms: C_20  and  O_39
REMARK                            x       y       z     vdW  Elec       q    Type
REMARK                         _______ _______ _______ _____ _____    ______ ____
ROOT
ATOM      1 CL   UNL     1     -30.338 -44.491  52.597  0.00  0.00    +0.000 Cl
ATOM      2  O   UNL     1     -33.191 -51.782  52.681  0.00  0.00    +0.000 OA
ATOM      3  O   UNL     1     -29.565 -51.116  57.620  0.00  0.00    +0.000 OA
ATOM      4  C   UNL     1     -29.807 -51.351  54.193  0.00  0.00    +0.000 C 
ATOM      5  C   UNL     1     -30.827 -49.072  53.340  0.00  0.00    +0.000 C 
ATOM      6  C   UNL     1     -29.874 -49.993  53.819  0.00  0.00    +0.000 C 
ATOM      7  C   UNL     1     -31.105 -52.087  53.961  0.00  0.00    +0.000 C 
ATOM      8  C   UNL     1     -29.063 -51.728  55.382  0.00  0.00    +0.000 C 
ATOM      9  C   UNL     1     -30.581 -47.665  52.870  0.00  0.00    +0.000 C 
ATOM     10  C   UNL     1     -32.112 -49.700  53.119  0.00  0.00    +0.000 C 
ATOM     11  C   UNL     1     -32.218 -51.220  53.203  0.00  0.00    +0.000 C 
ATOM     12  C   UNL     1     -31.740 -52.609  55.254  0.00  0.00    +0.000 C 
ATOM     13  C   UNL     1     -31.844 -46.822  52.784  0.00  0.00    +0.000 A 
ATOM     14  C   UNL     1     -29.890 -51.741  56.621  0.00  0.00    +0.000 C 
ATOM     15  C   UNL     1     -33.192 -48.958  52.812  0.00  0.00    +0.000 C 
ATOM     16  C   UNL     1     -31.208 -52.439  56.487  0.00  0.00    +0.000 C 
ATOM     17  C   UNL     1     -33.121 -47.464  52.789  0.00  0.00    +0.000 A 
ATOM     18  C   UNL     1     -29.848 -47.728  51.515  0.00  0.00    +0.000 C 
ATOM     19  C   UNL     1     -31.799 -45.411  52.690  0.00  0.00    +0.000 A 
ATOM     20  C   UNL     1     -34.277 -46.653  52.774  0.00  0.00    +0.000 A 
ATOM     21  C   UNL     1     -32.963 -44.649  52.643  0.00  0.00    +0.000 A 
ATOM     22  C   UNL     1     -34.199 -45.265  52.700  0.00  0.00    +0.000 A 
ENDROOT
BRANCH  16  23
ATOM     23  C   UNL     1     -31.827 -53.006  57.719  0.00  0.00    +0.000 C 
ATOM     24  O   UNL     1     -32.347 -52.296  58.570  0.00  0.00    +0.000 OA
ATOM     25  N   UNL     1     -31.775 -54.356  57.872  0.00  0.00    +0.000 N 
ATOM     26  H   UNL     1     -31.114 -54.905  57.331  0.00  0.00    +0.000 HD
ATOM     27  H   UNL     1     -32.086 -54.728  58.759  0.00  0.00    +0.000 HD
ENDBRANCH  16  23
BRANCH   8  28
ATOM     28  N   UNL     1     -27.897 -52.567  55.307  0.00  0.00    +0.000 NA
ATOM     29  C   UNL     1     -28.097 -53.908  55.838  0.00  0.00    +0.000 C 
ATOM     30  C   UNL     1     -27.349 -52.692  53.972  0.00  0.00    +0.000 C 
ENDBRANCH   8  28
BRANCH  12  31
ATOM     31  O   UNL     1     -32.903 -53.364  55.081  0.00  0.00    +0.000 OA
ATOM     32  H   UNL     1     -33.621 -52.762  54.778  0.00  0.00    +0.000 HD
ENDBRANCH  12  31
BRANCH   7  33
ATOM     33  O   UNL     1     -30.820 -53.261  53.199  0.00  0.00    +0.000 OA
ATOM     34  H   UNL     1     -30.634 -52.989  52.282  0.00  0.00    +0.000 HD
ENDBRANCH   7  33
BRANCH  15  35
ATOM     35  O   UNL     1     -34.412 -49.508  52.483  0.00  0.00    +0.000 OA
ATOM     36  H   UNL     1     -34.450 -49.706  51.524  0.00  0.00    +0.000 HD
ENDBRANCH  15  35
BRANCH   9  37
ATOM     37  O   UNL     1     -29.670 -47.100  53.793  0.00  0.00    +0.000 OA
ATOM     38  H   UNL     1     -29.120 -46.552  53.204  0.00  0.00    +0.000 HD
ENDBRANCH   9  37
BRANCH  20  39
ATOM     39  O   UNL     1     -35.531 -47.193  52.879  0.00  0.00    +0.000 OA
ATOM     40  H   UNL     1     -35.788 -47.235  53.816  0.00  0.00    +0.000 HD
ENDBRANCH  20  39
TORSDOF 7
ENDMDL
MODEL 2
REMARK VINA RESULT:      -7.4      3.418      5.257
REMARK  Name = Chlortetracycline.pdbqt.pdb
REMARK  7 active torsions:
REMARK  status: ('A' for Active; 'I' for Inactive)
REMARK    1  A    between atoms: C_7  and  O_30
REMARK    2  A    between atoms: C_8  and  N_32
REMARK    3  A    between atoms: C_9  and  O_37
REMARK    4  A    between atoms: C_12  and  O_28
REMARK    5  A    between atoms: C_15  and  O_35
REMARK    6  A    between atoms: C_16  and  C_23
REMARK    7  A    between atoms: C_20  and  O_39
REMARK                            x       y       z     vdW  Elec       q    Type
REMARK                         _______ _______ _______ _____ _____    ______ ____
ROOT
ATOM      1 CL   UNL     1     -27.028 -43.739  54.709  0.00  0.00    +0.000 Cl
ATOM      2  O   UNL     1     -33.988 -45.365  51.514  0.00  0.00    +0.000 OA
ATOM      3  O   UNL     1     -31.570 -50.650  53.562  0.00  0.00    +0.000 OA
ATOM      4  C   UNL     1     -31.430 -48.072  51.284  0.00  0.00    +0.000 C 
ATOM      5  C   UNL     1     -30.541 -45.953  52.581  0.00  0.00    +0.000 C 
ATOM      6  C   UNL     1     -30.523 -47.191  51.908  0.00  0.00    +0.000 C 
ATOM      7  C   UNL     1     -32.840 -47.531  51.247  0.00  0.00    +0.000 C 
ATOM      8  C   UNL     1     -31.301 -49.502  51.503  0.00  0.00    +0.000 C 
ATOM      9  C   UNL     1     -29.359 -45.143  53.035  0.00  0.00    +0.000 C 
ATOM     10  C   UNL     1     -31.871 -45.382  52.612  0.00  0.00    +0.000 C 
ATOM     11  C   UNL     1     -32.973 -46.025  51.775  0.00  0.00    +0.000 C 
ATOM     12  C   UNL     1     -33.831 -48.382  52.048  0.00  0.00    +0.000 C 
ATOM     13  C   UNL     1     -29.711 -44.069  54.053  0.00  0.00    +0.000 A 
ATOM     14  C   UNL     1     -32.087 -49.999  52.666  0.00  0.00    +0.000 C 
ATOM     15  C   UNL     1     -32.125 -44.281  53.343  0.00  0.00    +0.000 C 
ATOM     16  C   UNL     1     -33.499 -49.505  52.726  0.00  0.00    +0.000 C 
ATOM     17  C   UNL     1     -31.074 -43.676  54.219  0.00  0.00    +0.000 A 
ATOM     18  C   UNL     1     -28.676 -44.542  51.789  0.00  0.00    +0.000 C 
ATOM     19  C   UNL     1     -28.724 -43.432  54.843  0.00  0.00    +0.000 A 
ATOM     20  C   UNL     1     -31.380 -42.723  55.216  0.00  0.00    +0.000 A 
ATOM     21  C   UNL     1     -29.063 -42.472  55.792  0.00  0.00    +0.000 A 
ATOM     22  C   UNL     1     -30.387 -42.128  55.990  0.00  0.00    +0.000 A 
ENDROOT
BRANCH  16  23
ATOM     23  C   UNL     1     -34.500 -50.337  53.452  0.00  0.00    +0.000 C 
ATOM     24  O   UNL     1     -35.704 -50.147  53.343  0.00  0.00    +0.000 OA
ATOM     25  N   UNL     1     -34.018 -51.316  54.263  0.00  0.00    +0.000 N 
ATOM     26  H   UNL     1     -33.051 -51.292  54.571  0.00  0.00    +0.000 HD
ATOM     27  H   UNL     1     -34.689 -51.799  54.845  0.00  0.00    +0.000 HD
ENDBRANCH  16  23
BRANCH   8  28
ATOM     28  N   UNL     1     -30.995 -50.404  50.425  0.00  0.00    +0.000 NA
ATOM     29  C   UNL     1     -32.118 -51.232  50.008  0.00  0.00    +0.000 C 
ATOM     30  C   UNL     1     -30.460 -49.751  49.247  0.00  0.00    +0.000 C 
ENDBRANCH   8  28
BRANCH  12  31
ATOM     31  O   UNL     1     -35.163 -47.963  51.978  0.00  0.00    +0.000 OA
ATOM     32  H   UNL     1     -35.248 -47.320  51.238  0.00  0.00    +0.000 HD
ENDBRANCH  12  31
BRANCH   7  33
ATOM     33  O   UNL     1     -33.308 -47.604  49.900  0.00  0.00    +0.000 OA
ATOM     34  H   UNL     1     -33.125 -46.748  49.469  0.00  0.00    +0.000 HD
ENDBRANCH   7  33
BRANCH  15  35
ATOM     35  O   UNL     1     -33.341 -43.631  53.323  0.00  0.00    +0.000 OA
ATOM     36  H   UNL     1     -34.064 -44.253  53.549  0.00  0.00    +0.000 HD
ENDBRANCH  15  35
BRANCH   9  37
ATOM     37  O   UNL     1     -28.442 -46.067  53.587  0.00  0.00    +0.000 OA
ATOM     38  H   UNL     1     -29.045 -46.678  54.050  0.00  0.00    +0.000 HD
ENDBRANCH   9  37
BRANCH  20  39
ATOM     39  O   UNL     1     -32.672 -42.375  55.501  0.00  0.00    +0.000 OA
ATOM     40  H   UNL     1     -33.216 -42.464  54.700  0.00  0.00    +0.000 HD
ENDBRANCH  20  39
TORSDOF 7
ENDMDL
MODEL 3
REMARK VINA RESULT:      -6.7     24.126     26.219
REMARK  Name = Chlortetracycline.pdbqt.pdb
REMARK  7 active torsions:
REMARK  status: ('A' for Active; 'I' for Inactive)
REMARK    1  A    between atoms: C_7  and  O_30
REMARK    2  A    between atoms: C_8  and  N_32
REMARK    3  A    between atoms: C_9  and  O_37
REMARK    4  A    between atoms: C_12  and  O_28
REMARK    5  A    between atoms: C_15  and  O_35
REMARK    6  A    between atoms: C_16  and  C_23
REMARK    7  A    between atoms: C_20  and  O_39
REMARK                            x       y       z     vdW  Elec       q    Type
REMARK                         _______ _______ _______ _____ _____    ______ ____
ROOT
ATOM      1 CL   UNL     1     -45.967 -61.463  30.713  0.00  0.00    +0.000 Cl
ATOM      2  O   UNL     1     -43.625 -56.585  36.372  0.00  0.00    +0.000 OA
ATOM      3  O   UNL     1     -44.915 -53.206  31.382  0.00  0.00    +0.000 OA
ATOM      4  C   UNL     1     -42.844 -55.511  32.885  0.00  0.00    +0.000 C 
ATOM      5  C   UNL     1     -44.169 -57.793  32.964  0.00  0.00    +0.000 C 
ATOM      6  C   UNL     1     -43.406 -56.728  32.444  0.00  0.00    +0.000 C 
ATOM      7  C   UNL     1     -43.040 -55.278  34.364  0.00  0.00    +0.000 C 
ATOM      8  C   UNL     1     -42.933 -54.336  32.036  0.00  0.00    +0.000 C 
ATOM      9  C   UNL     1     -44.521 -59.084  32.279  0.00  0.00    +0.000 C 
ATOM     10  C   UNL     1     -44.423 -57.625  34.379  0.00  0.00    +0.000 C 
ATOM     11  C   UNL     1     -43.695 -56.519  35.137  0.00  0.00    +0.000 C 
ATOM     12  C   UNL     1     -43.899 -54.047  34.670  0.00  0.00    +0.000 C 
ATOM     13  C   UNL     1     -45.656 -59.840  32.951  0.00  0.00    +0.000 A 
ATOM     14  C   UNL     1     -44.149 -53.513  32.284  0.00  0.00    +0.000 C 
ATOM     15  C   UNL     1     -45.265 -58.454  35.025  0.00  0.00    +0.000 C 
ATOM     16  C   UNL     1     -44.437 -53.239  33.727  0.00  0.00    +0.000 C 
ATOM     17  C   UNL     1     -46.034 -59.502  34.286  0.00  0.00    +0.000 A 
ATOM     18  C   UNL     1     -43.244 -59.944  32.184  0.00  0.00    +0.000 C 
ATOM     19  C   UNL     1     -46.352 -60.884  32.296  0.00  0.00    +0.000 A 
ATOM     20  C   UNL     1     -47.134 -60.176  34.861  0.00  0.00    +0.000 A 
ATOM     21  C   UNL     1     -47.410 -61.548  32.911  0.00  0.00    +0.000 A 
ATOM     22  C   UNL     1     -47.811 -61.186  34.183  0.00  0.00    +0.000 A 
ENDROOT
BRANCH  16  23
ATOM     23  C   UNL     1     -45.225 -52.019  34.063  0.00  0.00    +0.000 C 
ATOM     24  O   UNL     1     -44.849 -51.213  34.903  0.00  0.00    +0.000 OA
ATOM     25  N   UNL     1     -46.403 -51.844  33.404  0.00  0.00    +0.000 N 
ATOM     26  H   UNL     1     -46.845 -52.626  32.934  0.00  0.00    +0.000 HD
ATOM     27  H   UNL     1     -46.991 -51.083  33.716  0.00  0.00    +0.000 HD
ENDBRANCH  16  23
BRANCH   8  28
ATOM     28  N   UNL     1     -41.757 -53.705  31.498  0.00  0.00    +0.000 NA
ATOM     29  C   UNL     1     -41.377 -52.477  32.182  0.00  0.00    +0.000 C 
ATOM     30  C   UNL     1     -40.596 -54.570  31.454  0.00  0.00    +0.000 C 
ENDBRANCH   8  28
BRANCH  12  31
ATOM     31  O   UNL     1     -44.043 -53.747  36.028  0.00  0.00    +0.000 OA
ATOM     32  H   UNL     1     -43.371 -54.261  36.532  0.00  0.00    +0.000 HD
ENDBRANCH  12  31
BRANCH   7  33
ATOM     33  O   UNL     1     -41.766 -54.982  34.939  0.00  0.00    +0.000 OA
ATOM     34  H   UNL     1     -41.231 -55.797  34.926  0.00  0.00    +0.000 HD
ENDBRANCH   7  33
BRANCH  15  35
ATOM     35  O   UNL     1     -45.459 -58.412  36.389  0.00  0.00    +0.000 OA
ATOM     36  H   UNL     1     -45.511 -57.483  36.698  0.00  0.00    +0.000 HD
ENDBRANCH  15  35
BRANCH   9  37
ATOM     37  O   UNL     1     -44.871 -58.738  30.953  0.00  0.00    +0.000 OA
ATOM     38  H   UNL     1     -44.402 -59.428  30.448  0.00  0.00    +0.000 HD
ENDBRANCH   9  37
BRANCH  20  39
ATOM     39  O   UNL     1     -47.617 -59.835  36.095  0.00  0.00    +0.000 OA
ATOM     40  H   UNL     1     -48.588 -59.794  36.064  0.00  0.00    +0.000 HD
ENDBRANCH  20  39
TORSDOF 7
ENDMDL
MODEL 4
REMARK VINA RESULT:      -6.7     22.535     24.140
REMARK  Name = Chlortetracycline.pdbqt.pdb
REMARK  7 active torsions:
REMARK  status: ('A' for Active; 'I' for Inactive)
REMARK    1  A    between atoms: C_7  and  O_30
REMARK    2  A    between atoms: C_8  and  N_32
REMARK    3  A    between atoms: C_9  and  O_37
REMARK    4  A    between atoms: C_12  and  O_28
REMARK    5  A    between atoms: C_15  and  O_35
REMARK    6  A    between atoms: C_16  and  C_23
REMARK    7  A    between atoms: C_20  and  O_39
REMARK                            x       y       z     vdW  Elec       q    Type
REMARK                         _______ _______ _______ _____ _____    ______ ____
ROOT
ATOM      1 CL   UNL     1     -39.488 -59.129  35.534  0.00  0.00    +0.000 Cl
ATOM      2  O   UNL     1     -47.081 -60.906  36.239  0.00  0.00    +0.000 OA
ATOM      3  O   UNL     1     -44.164 -63.077  41.215  0.00  0.00    +0.000 OA
ATOM      4  C   UNL     1     -44.703 -63.308  37.821  0.00  0.00    +0.000 C 
ATOM      5  C   UNL     1     -43.472 -61.255  36.710  0.00  0.00    +0.000 C 
ATOM      6  C   UNL     1     -43.652 -62.517  37.312  0.00  0.00    +0.000 C 
ATOM      7  C   UNL     1     -46.061 -62.679  37.617  0.00  0.00    +0.000 C 
ATOM      8  C   UNL     1     -44.514 -64.028  39.068  0.00  0.00    +0.000 C 
ATOM      9  C   UNL     1     -42.208 -60.701  36.113  0.00  0.00    +0.000 C 
ATOM     10  C   UNL     1     -44.733 -60.576  36.507  0.00  0.00    +0.000 C 
ATOM     11  C   UNL     1     -46.033 -61.342  36.737  0.00  0.00    +0.000 C 
ATOM     12  C   UNL     1     -46.772 -62.343  38.932  0.00  0.00    +0.000 C 
ATOM     13  C   UNL     1     -42.245 -59.196  35.898  0.00  0.00    +0.000 A 
ATOM     14  C   UNL     1     -44.922 -63.251  40.272  0.00  0.00    +0.000 C 
ATOM     15  C   UNL     1     -44.761 -59.297  36.089  0.00  0.00    +0.000 C 
ATOM     16  C   UNL     1     -46.254 -62.576  40.160  0.00  0.00    +0.000 C 
ATOM     17  C   UNL     1     -43.499 -58.512  35.920  0.00  0.00    +0.000 A 
ATOM     18  C   UNL     1     -41.924 -61.455  34.797  0.00  0.00    +0.000 C 
ATOM     19  C   UNL     1     -41.070 -58.443  35.666  0.00  0.00    +0.000 A 
ATOM     20  C   UNL     1     -43.497 -57.106  35.782  0.00  0.00    +0.000 A 
ATOM     21  C   UNL     1     -41.114 -57.061  35.501  0.00  0.00    +0.000 A 
ATOM     22  C   UNL     1     -42.321 -56.392  35.574  0.00  0.00    +0.000 A 
ENDROOT
BRANCH  16  23
ATOM     23  C   UNL     1     -46.996 -62.283  41.419  0.00  0.00    +0.000 C 
ATOM     24  O   UNL     1     -47.593 -61.229  41.591  0.00  0.00    +0.000 OA
ATOM     25  N   UNL     1     -46.969 -63.237  42.389  0.00  0.00    +0.000 N 
ATOM     26  H   UNL     1     -46.261 -63.964  42.369  0.00  0.00    +0.000 HD
ATOM     27  H   UNL     1     -47.369 -62.989  43.284  0.00  0.00    +0.000 HD
ENDBRANCH  16  23
BRANCH   8  28
ATOM     28  N   UNL     1     -44.540 -65.466  39.119  0.00  0.00    +0.000 NA
ATOM     29  C   UNL     1     -45.746 -66.016  39.722  0.00  0.00    +0.000 C 
ATOM     30  C   UNL     1     -44.353 -66.101  37.831  0.00  0.00    +0.000 C 
ENDBRANCH   8  28
BRANCH  12  31
ATOM     31  O   UNL     1     -48.065 -61.831  38.793  0.00  0.00    +0.000 OA
ATOM     32  H   UNL     1     -48.024 -61.038  38.210  0.00  0.00    +0.000 HD
ENDBRANCH  12  31
BRANCH   7  33
ATOM     33  O   UNL     1     -46.906 -63.643  36.986  0.00  0.00    +0.000 OA
ATOM     34  H   UNL     1     -47.348 -63.211  36.232  0.00  0.00    +0.000 HD
ENDBRANCH   7  33
BRANCH  15  35
ATOM     35  O   UNL     1     -45.929 -58.636  35.772  0.00  0.00    +0.000 OA
ATOM     36  H   UNL     1     -45.765 -57.673  35.687  0.00  0.00    +0.000 HD
ENDBRANCH  15  35
BRANCH   9  37
ATOM     37  O   UNL     1     -41.170 -61.049  37.006  0.00  0.00    +0.000 OA
ATOM     38  H   UNL     1     -40.823 -61.859  36.588  0.00  0.00    +0.000 HD
ENDBRANCH   9  37
BRANCH  20  39
ATOM     39  O   UNL     1     -44.648 -56.375  35.895  0.00  0.00    +0.000 OA
ATOM     40  H   UNL     1     -44.427 -55.430  35.969  0.00  0.00    +0.000 HD
ENDBRANCH  20  39
TORSDOF 7
ENDMDL
MODEL 5
REMARK VINA RESULT:      -6.5      2.046      3.100
REMARK  Name = Chlortetracycline.pdbqt.pdb
REMARK  7 active torsions:
REMARK  status: ('A' for Active; 'I' for Inactive)
REMARK    1  A    between atoms: C_7  and  O_30
REMARK    2  A    between atoms: C_8  and  N_32
REMARK    3  A    between atoms: C_9  and  O_37
REMARK    4  A    between atoms: C_12  and  O_28
REMARK    5  A    between atoms: C_15  and  O_35
REMARK    6  A    between atoms: C_16  and  C_23
REMARK    7  A    between atoms: C_20  and  O_39
REMARK                            x       y       z     vdW  Elec       q    Type
REMARK                         _______ _______ _______ _____ _____    ______ ____
ROOT
ATOM      1 CL   UNL     1     -29.329 -42.666  54.356  0.00  0.00    +0.000 Cl
ATOM      2  O   UNL     1     -33.178 -48.423  50.702  0.00  0.00    +0.000 OA
ATOM      3  O   UNL     1     -30.156 -50.900  55.468  0.00  0.00    +0.000 OA
ATOM      4  C   UNL     1     -29.988 -49.411  52.368  0.00  0.00    +0.000 C 
ATOM      5  C   UNL     1     -30.556 -46.857  52.713  0.00  0.00    +0.000 C 
ATOM      6  C   UNL     1     -29.813 -48.055  52.713  0.00  0.00    +0.000 C 
ATOM      7  C   UNL     1     -31.337 -49.688  51.749  0.00  0.00    +0.000 C 
ATOM      8  C   UNL     1     -29.463 -50.443  53.244  0.00  0.00    +0.000 C 
ATOM      9  C   UNL     1     -30.055 -45.472  53.013  0.00  0.00    +0.000 C 
ATOM     10  C   UNL     1     -31.878 -47.050  52.158  0.00  0.00    +0.000 C 
ATOM     11  C   UNL     1     -32.209 -48.373  51.474  0.00  0.00    +0.000 C 
ATOM     12  C   UNL     1     -32.199 -50.638  52.586  0.00  0.00    +0.000 C 
ATOM     13  C   UNL     1     -31.164 -44.472  53.303  0.00  0.00    +0.000 A 
ATOM     14  C   UNL     1     -30.435 -50.896  54.278  0.00  0.00    +0.000 C 
ATOM     15  C   UNL     1     -32.794 -46.065  52.214  0.00  0.00    +0.000 C 
ATOM     16  C   UNL     1     -31.811 -51.183  53.762  0.00  0.00    +0.000 C 
ATOM     17  C   UNL     1     -32.508 -44.786  52.936  0.00  0.00    +0.000 A 
ATOM     18  C   UNL     1     -29.171 -45.012  51.836  0.00  0.00    +0.000 C 
ATOM     19  C   UNL     1     -30.906 -43.226  53.922  0.00  0.00    +0.000 A 
ATOM     20  C   UNL     1     -33.526 -43.868  53.277  0.00  0.00    +0.000 A 
ATOM     21  C   UNL     1     -31.935 -42.333  54.210  0.00  0.00    +0.000 A 
ATOM     22  C   UNL     1     -33.243 -42.657  53.903  0.00  0.00    +0.000 A 
ENDROOT
BRANCH  16  23
ATOM     23  C   UNL     1     -32.657 -52.145  54.525  0.00  0.00    +0.000 C 
ATOM     24  O   UNL     1     -32.259 -53.262  54.827  0.00  0.00    +0.000 OA
ATOM     25  N   UNL     1     -33.909 -51.734  54.863  0.00  0.00    +0.000 N 
ATOM     26  H   UNL     1     -34.333 -50.947  54.383  0.00  0.00    +0.000 HD
ATOM     27  H   UNL     1     -34.521 -52.426  55.273  0.00  0.00    +0.000 HD
ENDBRANCH  16  23
BRANCH   8  28
ATOM     28  N   UNL     1     -28.429 -51.345  52.812  0.00  0.00    +0.000 NA
ATOM     29  C   UNL     1     -27.874 -51.027  51.504  0.00  0.00    +0.000 C 
ATOM     30  C   UNL     1     -27.329 -51.467  53.747  0.00  0.00    +0.000 C 
ENDBRANCH   8  28
BRANCH  12  31
ATOM     31  O   UNL     1     -33.427 -50.985  52.014  0.00  0.00    +0.000 OA
ATOM     32  H   UNL     1     -34.122 -50.920  52.709  0.00  0.00    +0.000 HD
ENDBRANCH  12  31
BRANCH   7  33
ATOM     33  O   UNL     1     -31.126 -50.382  50.518  0.00  0.00    +0.000 OA
ATOM     34  H   UNL     1     -31.987 -50.467  50.067  0.00  0.00    +0.000 HD
ENDBRANCH   7  33
BRANCH  15  35
ATOM     35  O   UNL     1     -34.027 -46.151  51.606  0.00  0.00    +0.000 OA
ATOM     36  H   UNL     1     -34.354 -45.258  51.367  0.00  0.00    +0.000 HD
ENDBRANCH  15  35
BRANCH   9  37
ATOM     37  O   UNL     1     -29.198 -45.601  54.130  0.00  0.00    +0.000 OA
ATOM     38  H   UNL     1     -28.672 -44.783  54.061  0.00  0.00    +0.000 HD
ENDBRANCH   9  37
BRANCH  20  39
ATOM     39  O   UNL     1     -34.847 -44.147  53.049  0.00  0.00    +0.000 OA
ATOM     40  H   UNL     1     -35.045 -45.049  53.355  0.00  0.00    +0.000 HD
ENDBRANCH  20  39
TORSDOF 7
ENDMDL
MODEL 6
REMARK VINA RESULT:      -6.3     10.773     13.333
REMARK  Name = Chlortetracycline.pdbqt.pdb
REMARK  7 active torsions:
REMARK  status: ('A' for Active; 'I' for Inactive)
REMARK    1  A    between atoms: C_7  and  O_30
REMARK    2  A    between atoms: C_8  and  N_32
REMARK    3  A    between atoms: C_9  and  O_37
REMARK    4  A    between atoms: C_12  and  O_28
REMARK    5  A    between atoms: C_15  and  O_35
REMARK    6  A    between atoms: C_16  and  C_23
REMARK    7  A    between atoms: C_20  and  O_39
REMARK                            x       y       z     vdW  Elec       q    Type
REMARK                         _______ _______ _______ _____ _____    ______ ____
ROOT
ATOM      1 CL   UNL     1     -25.082 -61.573  48.146  0.00  0.00    +0.000 Cl
ATOM      2  O   UNL     1     -31.371 -56.917  48.417  0.00  0.00    +0.000 OA
ATOM      3  O   UNL     1     -33.162 -62.384  46.205  0.00  0.00    +0.000 OA
ATOM      4  C   UNL     1     -31.373 -59.484  45.708  0.00  0.00    +0.000 C 
ATOM      5  C   UNL     1     -29.228 -59.636  47.238  0.00  0.00    +0.000 C 
ATOM      6  C   UNL     1     -30.087 -59.865  46.145  0.00  0.00    +0.000 C 
ATOM      7  C   UNL     1     -32.029 -58.480  46.626  0.00  0.00    +0.000 C 
ATOM      8  C   UNL     1     -32.251 -60.480  45.119  0.00  0.00    +0.000 C 
ATOM      9  C   UNL     1     -27.798 -60.074  47.384  0.00  0.00    +0.000 C 
ATOM     10  C   UNL     1     -29.804 -58.701  48.181  0.00  0.00    +0.000 C 
ATOM     11  C   UNL     1     -31.075 -57.949  47.798  0.00  0.00    +0.000 C 
ATOM     12  C   UNL     1     -33.305 -59.012  47.285  0.00  0.00    +0.000 C 
ATOM     13  C   UNL     1     -27.282 -60.008  48.813  0.00  0.00    +0.000 A 
ATOM     14  C   UNL     1     -33.123 -61.166  46.113  0.00  0.00    +0.000 C 
ATOM     15  C   UNL     1     -29.209 -58.472  49.367  0.00  0.00    +0.000 C 
ATOM     16  C   UNL     1     -33.810 -60.252  47.080  0.00  0.00    +0.000 C 
ATOM     17  C   UNL     1     -27.999 -59.246  49.786  0.00  0.00    +0.000 A 
ATOM     18  C   UNL     1     -26.933 -59.225  46.429  0.00  0.00    +0.000 C 
ATOM     19  C   UNL     1     -26.101 -60.675  49.215  0.00  0.00    +0.000 A 
ATOM     20  C   UNL     1     -27.534 -59.256  51.119  0.00  0.00    +0.000 A 
ATOM     21  C   UNL     1     -25.657 -60.632  50.534  0.00  0.00    +0.000 A 
ATOM     22  C   UNL     1     -26.377 -59.938  51.487  0.00  0.00    +0.000 A 
ENDROOT
BRANCH  16  23
ATOM     23  C   UNL     1     -35.083 -60.719  47.699  0.00  0.00    +0.000 C 
ATOM     24  O   UNL     1     -35.360 -60.487  48.868  0.00  0.00    +0.000 OA
ATOM     25  N   UNL     1     -35.927 -61.436  46.910  0.00  0.00    +0.000 N 
ATOM     26  H   UNL     1     -35.585 -61.864  46.056  0.00  0.00    +0.000 HD
ATOM     27  H   UNL     1     -36.730 -61.853  47.361  0.00  0.00    +0.000 HD
ENDBRANCH  16  23
BRANCH   8  28
ATOM     28  N   UNL     1     -32.685 -60.387  43.751  0.00  0.00    +0.000 NA
ATOM     29  C   UNL     1     -32.271 -61.510  42.920  0.00  0.00    +0.000 C 
ATOM     30  C   UNL     1     -34.116 -60.222  43.600  0.00  0.00    +0.000 C 
ENDBRANCH   8  28
BRANCH  12  31
ATOM     31  O   UNL     1     -33.990 -58.091  48.083  0.00  0.00    +0.000 OA
ATOM     32  H   UNL     1     -34.255 -58.541  48.918  0.00  0.00    +0.000 HD
ENDBRANCH  12  31
BRANCH   7  33
ATOM     33  O   UNL     1     -32.466 -57.374  45.834  0.00  0.00    +0.000 OA
ATOM     34  H   UNL     1     -33.282 -57.638  45.369  0.00  0.00    +0.000 HD
ENDBRANCH   7  33
BRANCH  15  35
ATOM     35  O   UNL     1     -29.649 -57.514  50.255  0.00  0.00    +0.000 OA
ATOM     36  H   UNL     1     -29.100 -57.523  51.067  0.00  0.00    +0.000 HD
ENDBRANCH  15  35
BRANCH   9  37
ATOM     37  O   UNL     1     -27.745 -61.401  46.898  0.00  0.00    +0.000 OA
ATOM     38  H   UNL     1     -27.973 -61.268  45.960  0.00  0.00    +0.000 HD
ENDBRANCH   9  37
BRANCH  20  39
ATOM     39  O   UNL     1     -28.226 -58.633  52.123  0.00  0.00    +0.000 OA
ATOM     40  H   UNL     1     -29.151 -58.509  51.851  0.00  0.00    +0.000 HD
ENDBRANCH  20  39
TORSDOF 7
ENDMDL
MODEL 7
REMARK VINA RESULT:      -6.1     14.086     16.600
REMARK  Name = Chlortetracycline.pdbqt.pdb
REMARK  7 active torsions:
REMARK  status: ('A' for Active; 'I' for Inactive)
REMARK    1  A    between atoms: C_7  and  O_30
REMARK    2  A    between atoms: C_8  and  N_32
REMARK    3  A    between atoms: C_9  and  O_37
REMARK    4  A    between atoms: C_12  and  O_28
REMARK    5  A    between atoms: C_15  and  O_35
REMARK    6  A    between atoms: C_16  and  C_23
REMARK    7  A    between atoms: C_20  and  O_39
REMARK                            x       y       z     vdW  Elec       q    Type
REMARK                         _______ _______ _______ _____ _____    ______ ____
ROOT
ATOM      1 CL   UNL     1     -28.366 -57.890  67.728  0.00  0.00    +0.000 Cl
ATOM      2  O   UNL     1     -34.251 -60.624  63.347  0.00  0.00    +0.000 OA
ATOM      3  O   UNL     1     -34.320 -63.662  68.709  0.00  0.00    +0.000 OA
ATOM      4  C   UNL     1     -32.724 -63.071  65.715  0.00  0.00    +0.000 C 
ATOM      5  C   UNL     1     -31.626 -60.678  65.892  0.00  0.00    +0.000 C 
ATOM      6  C   UNL     1     -31.806 -62.063  66.076  0.00  0.00    +0.000 C 
ATOM      7  C   UNL     1     -33.818 -62.567  64.804  0.00  0.00    +0.000 C 
ATOM      8  C   UNL     1     -33.120 -64.062  66.700  0.00  0.00    +0.000 C 
ATOM      9  C   UNL     1     -30.433 -59.851  66.284  0.00  0.00    +0.000 C 
ATOM     10  C   UNL     1     -32.658 -60.114  65.048  0.00  0.00    +0.000 C 
ATOM     11  C   UNL     1     -33.615 -61.053  64.321  0.00  0.00    +0.000 C 
ATOM     12  C   UNL     1     -35.213 -62.661  65.430  0.00  0.00    +0.000 C 
ATOM     13  C   UNL     1     -30.706 -58.355  66.299  0.00  0.00    +0.000 A 
ATOM     14  C   UNL     1     -34.323 -63.671  67.487  0.00  0.00    +0.000 C 
ATOM     15  C   UNL     1     -32.752 -58.782  64.881  0.00  0.00    +0.000 C 
ATOM     16  C   UNL     1     -35.462 -63.143  66.670  0.00  0.00    +0.000 C 
ATOM     17  C   UNL     1     -31.863 -57.844  65.635  0.00  0.00    +0.000 A 
ATOM     18  C   UNL     1     -29.268 -60.205  65.338  0.00  0.00    +0.000 C 
ATOM     19  C   UNL     1     -29.841 -57.442  66.947  0.00  0.00    +0.000 A 
ATOM     20  C   UNL     1     -32.127 -56.459  65.721  0.00  0.00    +0.000 A 
ATOM     21  C   UNL     1     -30.120 -56.078  66.980  0.00  0.00    +0.000 A 
ATOM     22  C   UNL     1     -31.265 -55.588  66.382  0.00  0.00    +0.000 A 
ENDROOT
BRANCH  16  23
ATOM     23  C   UNL     1     -36.838 -63.267  67.227  0.00  0.00    +0.000 C 
ATOM     24  O   UNL     1     -37.762 -62.564  66.841  0.00  0.00    +0.000 OA
ATOM     25  N   UNL     1     -37.027 -64.192  68.207  0.00  0.00    +0.000 N 
ATOM     26  H   UNL     1     -36.232 -64.564  68.716  0.00  0.00    +0.000 HD
ATOM     27  H   UNL     1     -37.928 -64.194  68.666  0.00  0.00    +0.000 HD
ENDBRANCH  16  23
BRANCH   8  28
ATOM     28  N   UNL     1     -32.818 -65.458  66.529  0.00  0.00    +0.000 NA
ATOM     29  C   UNL     1     -33.982 -66.288  66.257  0.00  0.00    +0.000 C 
ATOM     30  C   UNL     1     -31.830 -65.722  65.502  0.00  0.00    +0.000 C 
ENDBRANCH   8  28
BRANCH  12  31
ATOM     31  O   UNL     1     -36.266 -62.278  64.593  0.00  0.00    +0.000 OA
ATOM     32  H   UNL     1     -37.111 -62.397  65.085  0.00  0.00    +0.000 HD
ENDBRANCH  12  31
BRANCH   7  33
ATOM     33  O   UNL     1     -33.875 -63.424  63.663  0.00  0.00    +0.000 OA
ATOM     34  H   UNL     1     -33.753 -62.876  62.866  0.00  0.00    +0.000 HD
ENDBRANCH   7  33
BRANCH  15  35
ATOM     35  O   UNL     1     -33.641 -58.196  64.004  0.00  0.00    +0.000 OA
ATOM     36  H   UNL     1     -33.211 -58.038  63.138  0.00  0.00    +0.000 HD
ENDBRANCH  15  35
BRANCH   9  37
ATOM     37  O   UNL     1     -30.055 -60.299  67.571  0.00  0.00    +0.000 OA
ATOM     38  H   UNL     1     -29.106 -60.479  67.438  0.00  0.00    +0.000 HD
ENDBRANCH   9  37
BRANCH  20  39
ATOM     39  O   UNL     1     -33.268 -55.914  65.197  0.00  0.00    +0.000 OA
ATOM     40  H   UNL     1     -34.041 -56.411  65.517  0.00  0.00    +0.000 HD
ENDBRANCH  20  39
TORSDOF 7
ENDMDL
MODEL 8
REMARK VINA RESULT:      -6.1      5.166     10.039
REMARK  Name = Chlortetracycline.pdbqt.pdb
REMARK  7 active torsions:
REMARK  status: ('A' for Active; 'I' for Inactive)
REMARK    1  A    between atoms: C_7  and  O_30
REMARK    2  A    between atoms: C_8  and  N_32
REMARK    3  A    between atoms: C_9  and  O_37
REMARK    4  A    between atoms: C_12  and  O_28
REMARK    5  A    between atoms: C_15  and  O_35
REMARK    6  A    between atoms: C_16  and  C_23
REMARK    7  A    between atoms: C_20  and  O_39
REMARK                            x       y       z     vdW  Elec       q    Type
REMARK                         _______ _______ _______ _____ _____    ______ ____
ROOT
ATOM      1 CL   UNL     1     -25.337 -60.645  54.580  0.00  0.00    +0.000 Cl
ATOM      2  O   UNL     1     -28.153 -54.989  59.204  0.00  0.00    +0.000 OA
ATOM      3  O   UNL     1     -31.038 -54.598  53.772  0.00  0.00    +0.000 OA
ATOM      4  C   UNL     1     -28.114 -54.224  55.552  0.00  0.00    +0.000 C 
ATOM      5  C   UNL     1     -27.225 -56.651  56.082  0.00  0.00    +0.000 C 
ATOM      6  C   UNL     1     -27.498 -55.477  55.353  0.00  0.00    +0.000 C 
ATOM      7  C   UNL     1     -28.570 -54.016  56.977  0.00  0.00    +0.000 C 
ATOM      8  C   UNL     1     -28.980 -53.683  54.519  0.00  0.00    +0.000 C 
ATOM      9  C   UNL     1     -26.393 -57.825  55.646  0.00  0.00    +0.000 C 
ATOM     10  C   UNL     1     -27.662 -56.538  57.458  0.00  0.00    +0.000 C 
ATOM     11  C   UNL     1     -28.120 -55.180  57.980  0.00  0.00    +0.000 C 
ATOM     12  C   UNL     1     -30.089 -53.866  57.106  0.00  0.00    +0.000 C 
ATOM     13  C   UNL     1     -26.609 -59.072  56.489  0.00  0.00    +0.000 A 
ATOM     14  C   UNL     1     -30.409 -54.070  54.677  0.00  0.00    +0.000 C 
ATOM     15  C   UNL     1     -27.632 -57.608  58.274  0.00  0.00    +0.000 C 
ATOM     16  C   UNL     1     -30.952 -53.912  56.064  0.00  0.00    +0.000 C 
ATOM     17  C   UNL     1     -27.246 -58.960  57.763  0.00  0.00    +0.000 A 
ATOM     18  C   UNL     1     -24.912 -57.393  55.642  0.00  0.00    +0.000 C 
ATOM     19  C   UNL     1     -26.188 -60.352  56.056  0.00  0.00    +0.000 A 
ATOM     20  C   UNL     1     -27.492 -60.142  58.495  0.00  0.00    +0.000 A 
ATOM     21  C   UNL     1     -26.419 -61.490  56.824  0.00  0.00    +0.000 A 
ATOM     22  C   UNL     1     -27.082 -61.390  58.032  0.00  0.00    +0.000 A 
ENDROOT
BRANCH  16  23
ATOM     23  C   UNL     1     -32.420 -53.711  56.221  0.00  0.00    +0.000 C 
ATOM     24  O   UNL     1     -32.898 -52.628  56.533  0.00  0.00    +0.000 OA
ATOM     25  N   UNL     1     -33.217 -54.794  56.019  0.00  0.00    +0.000 N 
ATOM     26  H   UNL     1     -32.823 -55.728  56.044  0.00  0.00    +0.000 HD
ATOM     27  H   UNL     1     -34.198 -54.687  56.242  0.00  0.00    +0.000 HD
ENDBRANCH  16  23
BRANCH   8  28
ATOM     28  N   UNL     1     -28.656 -52.463  53.828  0.00  0.00    +0.000 NA
ATOM     29  C   UNL     1     -29.528 -51.345  54.158  0.00  0.00    +0.000 C 
ATOM     30  C   UNL     1     -27.286 -52.031  54.011  0.00  0.00    +0.000 C 
ENDBRANCH   8  28
BRANCH  12  31
ATOM     31  O   UNL     1     -30.550 -53.593  58.397  0.00  0.00    +0.000 OA
ATOM     32  H   UNL     1     -31.446 -53.990  58.497  0.00  0.00    +0.000 HD
ENDBRANCH  12  31
BRANCH   7  33
ATOM     33  O   UNL     1     -28.044 -52.769  57.433  0.00  0.00    +0.000 OA
ATOM     34  H   UNL     1     -27.550 -52.932  58.258  0.00  0.00    +0.000 HD
ENDBRANCH   7  33
BRANCH  15  35
ATOM     35  O   UNL     1     -27.929 -57.534  59.619  0.00  0.00    +0.000 OA
ATOM     36  H   UNL     1     -27.446 -58.229  60.114  0.00  0.00    +0.000 HD
ENDBRANCH  15  35
BRANCH   9  37
ATOM     37  O   UNL     1     -26.742 -58.071  54.298  0.00  0.00    +0.000 OA
ATOM     38  H   UNL     1     -26.019 -58.662  54.020  0.00  0.00    +0.000 HD
ENDBRANCH   9  37
BRANCH  20  39
ATOM     39  O   UNL     1     -28.188 -60.122  59.673  0.00  0.00    +0.000 OA
ATOM     40  H   UNL     1     -28.543 -59.230  59.826  0.00  0.00    +0.000 HD
ENDBRANCH  20  39
TORSDOF 7
ENDMDL
MODEL 9
REMARK VINA RESULT:      -5.9     34.879     36.369
REMARK  Name = Chlortetracycline.pdbqt.pdb
REMARK  7 active torsions:
REMARK  status: ('A' for Active; 'I' for Inactive)
REMARK    1  A    between atoms: C_7  and  O_30
REMARK    2  A    between atoms: C_8  and  N_32
REMARK    3  A    between atoms: C_9  and  O_37
REMARK    4  A    between atoms: C_12  and  O_28
REMARK    5  A    between atoms: C_15  and  O_35
REMARK    6  A    between atoms: C_16  and  C_23
REMARK    7  A    between atoms: C_20  and  O_39
REMARK                            x       y       z     vdW  Elec       q    Type
REMARK                         _______ _______ _______ _____ _____    ______ ____
ROOT
ATOM      1 CL   UNL     1     -62.232 -67.613  67.135  0.00  0.00    +0.000 Cl
ATOM      2  O   UNL     1     -56.071 -71.354  64.077  0.00  0.00    +0.000 OA
ATOM      3  O   UNL     1     -57.592 -74.200  69.328  0.00  0.00    +0.000 OA
ATOM      4  C   UNL     1     -56.304 -71.395  67.801  0.00  0.00    +0.000 C 
ATOM      5  C   UNL     1     -58.333 -70.135  66.678  0.00  0.00    +0.000 C 
ATOM      6  C   UNL     1     -57.451 -70.583  67.682  0.00  0.00    +0.000 C 
ATOM      7  C   UNL     1     -55.800 -71.895  66.468  0.00  0.00    +0.000 C 
ATOM      8  C   UNL     1     -56.199 -72.324  68.912  0.00  0.00    +0.000 C 
ATOM      9  C   UNL     1     -59.433 -69.120  66.816  0.00  0.00    +0.000 C 
ATOM     10  C   UNL     1     -57.930 -70.600  65.368  0.00  0.00    +0.000 C 
ATOM     11  C   UNL     1     -56.572 -71.277  65.208  0.00  0.00    +0.000 C 
ATOM     12  C   UNL     1     -55.863 -73.420  66.335  0.00  0.00    +0.000 C 
ATOM     13  C   UNL     1     -60.431 -69.143  65.668  0.00  0.00    +0.000 A 
ATOM     14  C   UNL     1     -56.751 -73.674  68.613  0.00  0.00    +0.000 C 
ATOM     15  C   UNL     1     -58.727 -70.409  64.300  0.00  0.00    +0.000 C 
ATOM     16  C   UNL     1     -56.319 -74.252  67.301  0.00  0.00    +0.000 C 
ATOM     17  C   UNL     1     -60.087 -69.806  64.450  0.00  0.00    +0.000 A 
ATOM     18  C   UNL     1     -58.790 -67.728  66.980  0.00  0.00    +0.000 C 
ATOM     19  C   UNL     1     -61.696 -68.518  65.762  0.00  0.00    +0.000 A 
ATOM     20  C   UNL     1     -61.057 -69.868  63.425  0.00  0.00    +0.000 A 
ATOM     21  C   UNL     1     -62.612 -68.573  64.715  0.00  0.00    +0.000 A 
ATOM     22  C   UNL     1     -62.301 -69.257  63.556  0.00  0.00    +0.000 A 
ENDROOT
BRANCH  16  23
ATOM     23  C   UNL     1     -56.317 -75.735  67.157  0.00  0.00    +0.000 C 
ATOM     24  O   UNL     1     -56.766 -76.292  66.164  0.00  0.00    +0.000 OA
ATOM     25  N   UNL     1     -55.808 -76.456  68.192  0.00  0.00    +0.000 N 
ATOM     26  H   UNL     1     -55.703 -76.029  69.107  0.00  0.00    +0.000 HD
ATOM     27  H   UNL     1     -55.916 -77.460  68.146  0.00  0.00    +0.000 HD
ENDBRANCH  16  23
BRANCH   8  28
ATOM     28  N   UNL     1     -55.171 -72.191  69.910  0.00  0.00    +0.000 NA
ATOM     29  C   UNL     1     -54.110 -73.183  69.803  0.00  0.00    +0.000 C 
ATOM     30  C   UNL     1     -54.556 -70.880  69.948  0.00  0.00    +0.000 C 
ENDBRANCH   8  28
BRANCH  12  31
ATOM     31  O   UNL     1     -55.334 -73.935  65.148  0.00  0.00    +0.000 OA
ATOM     32  H   UNL     1     -54.923 -73.194  64.645  0.00  0.00    +0.000 HD
ENDBRANCH  12  31
BRANCH   7  33
ATOM     33  O   UNL     1     -54.410 -71.581  66.372  0.00  0.00    +0.000 OA
ATOM     34  H   UNL     1     -53.993 -71.788  67.229  0.00  0.00    +0.000 HD
ENDBRANCH   7  33
BRANCH  15  35
ATOM     35  O   UNL     1     -58.347 -70.730  63.014  0.00  0.00    +0.000 OA
ATOM     36  H   UNL     1     -59.100 -71.125  62.525  0.00  0.00    +0.000 HD
ENDBRANCH  15  35
BRANCH   9  37
ATOM     37  O   UNL     1     -60.079 -69.409  68.040  0.00  0.00    +0.000 OA
ATOM     38  H   UNL     1     -59.894 -68.598  68.548  0.00  0.00    +0.000 HD
ENDBRANCH   9  37
BRANCH  20  39
ATOM     39  O   UNL     1     -60.836 -70.572  62.272  0.00  0.00    +0.000 OA
ATOM     40  H   UNL     1     -60.617 -71.494  62.493  0.00  0.00    +0.000 HD
ENDBRANCH  20  39
TORSDOF 7
ENDMDL
