MODEL 1
REMARK VINA RESULT:      -7.1      0.000      0.000
REMARK  Name = Ciclopirox.pdbqt.pdb
REMARK  2 active torsions:
REMARK  status: ('A' for Active; 'I' for Inactive)
REMARK    1  A    between atoms: N_2  and  O_15
REMARK    2  A    between atoms: C_3  and  C_9
REMARK                            x       y       z     vdW  Elec       q    Type
REMARK                         _______ _______ _______ _____ _____    ______ ____
ROOT
ATOM      1  O   UNL     1     -51.211 -59.444  44.955  0.00  0.00    +0.000 OA
ATOM      2  N   UNL     1     -49.337 -60.362  43.891  0.00  0.00    +0.000 N 
ATOM      3  C   UNL     1     -48.407 -60.285  42.844  0.00  0.00    +0.000 C 
ATOM      4  C   UNL     1     -48.670 -59.278  42.050  0.00  0.00    +0.000 C 
ATOM      5  C   UNL     1     -49.654 -58.251  41.950  0.00  0.00    +0.000 C 
ATOM      6  C   UNL     1     -50.400 -59.452  44.040  0.00  0.00    +0.000 C 
ATOM      7  C   UNL     1     -50.415 -58.472  42.980  0.00  0.00    +0.000 C 
ATOM      8  C   UNL     1     -50.234 -57.887  40.624  0.00  0.00    +0.000 C 
ENDROOT
BRANCH   3   9
ATOM      9  C   UNL     1     -47.299 -61.176  42.663  0.00  0.00    +0.000 A 
ATOM     10  C   UNL     1     -47.072 -61.947  41.463  0.00  0.00    +0.000 A 
ATOM     11  C   UNL     1     -46.102 -63.120  41.190  0.00  0.00    +0.000 A 
ATOM     12  C   UNL     1     -45.218 -63.559  42.373  0.00  0.00    +0.000 A 
ATOM     13  C   UNL     1     -45.383 -62.796  43.699  0.00  0.00    +0.000 A 
ATOM     14  C   UNL     1     -46.428 -61.658  43.706  0.00  0.00    +0.000 A 
ENDBRANCH   3   9
BRANCH   2  15
ATOM     15  O   UNL     1     -49.158 -61.333  44.895  0.00  0.00    +0.000 OA
ATOM     16  H   UNL     1     -48.371 -61.822  44.579  0.00  0.00    +0.000 HD
ENDBRANCH   2  15
TORSDOF 2
ENDMDL
MODEL 2
REMARK VINA RESULT:      -7.0     12.326     13.812
REMARK  Name = Ciclopirox.pdbqt.pdb
REMARK  2 active torsions:
REMARK  status: ('A' for Active; 'I' for Inactive)
REMARK    1  A    between atoms: N_2  and  O_15
REMARK    2  A    between atoms: C_3  and  C_9
REMARK                            x       y       z     vdW  Elec       q    Type
REMARK                         _______ _______ _______ _____ _____    ______ ____
ROOT
ATOM      1  O   UNL     1     -64.184 -65.835  42.481  0.00  0.00    +0.000 OA
ATOM      2  N   UNL     1     -62.238 -64.615  42.024  0.00  0.00    +0.000 N 
ATOM      3  C   UNL     1     -61.484 -63.883  41.096  0.00  0.00    +0.000 C 
ATOM      4  C   UNL     1     -62.069 -63.856  39.925  0.00  0.00    +0.000 C 
ATOM      5  C   UNL     1     -63.254 -64.383  39.333  0.00  0.00    +0.000 C 
ATOM      6  C   UNL     1     -63.465 -65.224  41.703  0.00  0.00    +0.000 C 
ATOM      7  C   UNL     1     -63.816 -65.018  40.318  0.00  0.00    +0.000 C 
ATOM      8  C   UNL     1     -63.217 -64.965  37.959  0.00  0.00    +0.000 C 
ENDROOT
BRANCH   3   9
ATOM      9  C   UNL     1     -60.240 -63.229  41.382  0.00  0.00    +0.000 A 
ATOM     10  C   UNL     1     -60.137 -61.928  42.002  0.00  0.00    +0.000 A 
ATOM     11  C   UNL     1     -58.926 -60.979  42.151  0.00  0.00    +0.000 A 
ATOM     12  C   UNL     1     -57.597 -61.475  41.550  0.00  0.00    +0.000 A 
ATOM     13  C   UNL     1     -57.602 -62.855  40.867  0.00  0.00    +0.000 A 
ATOM     14  C   UNL     1     -58.952 -63.605  40.855  0.00  0.00    +0.000 A 
ENDBRANCH   3   9
BRANCH   2  15
ATOM     15  O   UNL     1     -61.805 -64.675  43.362  0.00  0.00    +0.000 OA
ATOM     16  H   UNL     1     -62.204 -65.512  43.678  0.00  0.00    +0.000 HD
ENDBRANCH   2  15
TORSDOF 2
ENDMDL
MODEL 3
REMARK VINA RESULT:      -5.8     14.072     15.463
REMARK  Name = Ciclopirox.pdbqt.pdb
REMARK  2 active torsions:
REMARK  status: ('A' for Active; 'I' for Inactive)
REMARK    1  A    between atoms: N_2  and  O_15
REMARK    2  A    between atoms: C_3  and  C_9
REMARK                            x       y       z     vdW  Elec       q    Type
REMARK                         _______ _______ _______ _____ _____    ______ ____
ROOT
ATOM      1  O   UNL     1     -65.886 -66.659  40.806  0.00  0.00    +0.000 OA
ATOM      2  N   UNL     1     -63.782 -65.633  40.879  0.00  0.00    +0.000 N 
ATOM      3  C   UNL     1     -62.639 -65.213  40.186  0.00  0.00    +0.000 C 
ATOM      4  C   UNL     1     -62.706 -65.540  38.919  0.00  0.00    +0.000 C 
ATOM      5  C   UNL     1     -63.616 -66.222  38.060  0.00  0.00    +0.000 C 
ATOM      6  C   UNL     1     -64.848 -66.311  40.261  0.00  0.00    +0.000 C 
ATOM      7  C   UNL     1     -64.595 -66.531  38.856  0.00  0.00    +0.000 C 
ATOM      8  C   UNL     1     -63.113 -67.190  37.041  0.00  0.00    +0.000 C 
ENDROOT
BRANCH   3   9
ATOM      9  C   UNL     1     -61.538 -64.502  40.769  0.00  0.00    +0.000 A 
ATOM     10  C   UNL     1     -61.686 -63.340  41.614  0.00  0.00    +0.000 A 
ATOM     11  C   UNL     1     -60.637 -62.319  42.110  0.00  0.00    +0.000 A 
ATOM     12  C   UNL     1     -59.187 -62.554  41.644  0.00  0.00    +0.000 A 
ATOM     13  C   UNL     1     -58.924 -63.771  40.739  0.00  0.00    +0.000 A 
ATOM     14  C   UNL     1     -60.154 -64.638  40.389  0.00  0.00    +0.000 A 
ENDBRANCH   3   9
BRANCH   2  15
ATOM     15  O   UNL     1     -63.923 -65.287  42.237  0.00  0.00    +0.000 OA
ATOM     16  H   UNL     1     -64.314 -66.097  42.624  0.00  0.00    +0.000 HD
ENDBRANCH   2  15
TORSDOF 2
ENDMDL
MODEL 4
REMARK VINA RESULT:      -5.7     14.587     17.353
REMARK  Name = Ciclopirox.pdbqt.pdb
REMARK  2 active torsions:
REMARK  status: ('A' for Active; 'I' for Inactive)
REMARK    1  A    between atoms: N_2  and  O_15
REMARK    2  A    between atoms: C_3  and  C_9
REMARK                            x       y       z     vdW  Elec       q    Type
REMARK                         _______ _______ _______ _____ _____    ______ ____
ROOT
ATOM      1  O   UNL     1     -40.982 -74.616  51.879  0.00  0.00    +0.000 OA
ATOM      2  N   UNL     1     -42.638 -74.723  50.227  0.00  0.00    +0.000 N 
ATOM      3  C   UNL     1     -43.881 -75.229  49.819  0.00  0.00    +0.000 C 
ATOM      4  C   UNL     1     -44.380 -76.040  50.718  0.00  0.00    +0.000 C 
ATOM      5  C   UNL     1     -43.996 -76.562  51.987  0.00  0.00    +0.000 C 
ATOM      6  C   UNL     1     -42.039 -75.061  51.453  0.00  0.00    +0.000 C 
ATOM      7  C   UNL     1     -42.846 -75.996  52.201  0.00  0.00    +0.000 C 
ATOM      8  C   UNL     1     -44.221 -78.001  52.313  0.00  0.00    +0.000 C 
ENDROOT
BRANCH   3   9
ATOM      9  C   UNL     1     -44.539 -74.898  48.589  0.00  0.00    +0.000 A 
ATOM     10  C   UNL     1     -45.448 -73.785  48.435  0.00  0.00    +0.000 A 
ATOM     11  C   UNL     1     -46.422 -73.436  47.287  0.00  0.00    +0.000 A 
ATOM     12  C   UNL     1     -46.451 -74.415  46.099  0.00  0.00    +0.000 A 
ATOM     13  C   UNL     1     -45.515 -75.636  46.166  0.00  0.00    +0.000 A 
ATOM     14  C   UNL     1     -44.636 -75.752  47.432  0.00  0.00    +0.000 A 
ENDBRANCH   3   9
BRANCH   2  15
ATOM     15  O   UNL     1     -41.995 -73.762  49.423  0.00  0.00    +0.000 OA
ATOM     16  H   UNL     1     -41.664 -74.299  48.674  0.00  0.00    +0.000 HD
ENDBRANCH   2  15
TORSDOF 2
ENDMDL
MODEL 5
REMARK VINA RESULT:      -5.4     13.866     15.067
REMARK  Name = Ciclopirox.pdbqt.pdb
REMARK  2 active torsions:
REMARK  status: ('A' for Active; 'I' for Inactive)
REMARK    1  A    between atoms: N_2  and  O_15
REMARK    2  A    between atoms: C_3  and  C_9
REMARK                            x       y       z     vdW  Elec       q    Type
REMARK                         _______ _______ _______ _____ _____    ______ ____
ROOT
ATOM      1  O   UNL     1     -34.942 -58.754  49.156  0.00  0.00    +0.000 OA
ATOM      2  N   UNL     1     -34.634 -60.215  47.352  0.00  0.00    +0.000 N 
ATOM      3  C   UNL     1     -33.855 -60.599  46.252  0.00  0.00    +0.000 C 
ATOM      4  C   UNL     1     -32.835 -59.794  46.090  0.00  0.00    +0.000 C 
ATOM      5  C   UNL     1     -32.312 -58.626  46.717  0.00  0.00    +0.000 C 
ATOM      6  C   UNL     1     -34.325 -59.106  48.161  0.00  0.00    +0.000 C 
ATOM      7  C   UNL     1     -33.142 -58.421  47.695  0.00  0.00    +0.000 C 
ATOM      8  C   UNL     1     -31.794 -57.494  45.893  0.00  0.00    +0.000 C 
ENDROOT
BRANCH   3   9
ATOM      9  C   UNL     1     -34.119 -61.731  45.412  0.00  0.00    +0.000 A 
ATOM     10  C   UNL     1     -33.577 -63.050  45.644  0.00  0.00    +0.000 A 
ATOM     11  C   UNL     1     -33.543 -64.297  44.731  0.00  0.00    +0.000 A 
ATOM     12  C   UNL     1     -34.188 -64.139  43.341  0.00  0.00    +0.000 A 
ATOM     13  C   UNL     1     -34.798 -62.768  42.998  0.00  0.00    +0.000 A 
ATOM     14  C   UNL     1     -34.699 -61.683  44.094  0.00  0.00    +0.000 A 
ENDBRANCH   3   9
BRANCH   2  15
ATOM     15  O   UNL     1     -35.725 -61.021  47.731  0.00  0.00    +0.000 OA
ATOM     16  H   UNL     1     -35.747 -60.907  48.704  0.00  0.00    +0.000 HD
ENDBRANCH   2  15
TORSDOF 2
ENDMDL
MODEL 6
REMARK VINA RESULT:      -5.3     10.959     12.935
REMARK  Name = Ciclopirox.pdbqt.pdb
REMARK  2 active torsions:
REMARK  status: ('A' for Active; 'I' for Inactive)
REMARK    1  A    between atoms: N_2  and  O_15
REMARK    2  A    between atoms: C_3  and  C_9
REMARK                            x       y       z     vdW  Elec       q    Type
REMARK                         _______ _______ _______ _____ _____    ______ ____
ROOT
ATOM      1  O   UNL     1     -40.342 -55.418  35.001  0.00  0.00    +0.000 OA
ATOM      2  N   UNL     1     -42.260 -54.201  34.431  0.00  0.00    +0.000 N 
ATOM      3  C   UNL     1     -43.649 -54.048  34.544  0.00  0.00    +0.000 C 
ATOM      4  C   UNL     1     -44.175 -55.011  35.260  0.00  0.00    +0.000 C 
ATOM      5  C   UNL     1     -43.721 -56.180  35.939  0.00  0.00    +0.000 C 
ATOM      6  C   UNL     1     -41.554 -55.261  35.029  0.00  0.00    +0.000 C 
ATOM      7  C   UNL     1     -42.439 -56.160  35.733  0.00  0.00    +0.000 C 
ATOM      8  C   UNL     1     -44.498 -57.451  35.856  0.00  0.00    +0.000 C 
ENDROOT
BRANCH   3   9
ATOM      9  C   UNL     1     -44.407 -52.975  33.970  0.00  0.00    +0.000 A 
ATOM     10  C   UNL     1     -44.702 -51.739  34.657  0.00  0.00    +0.000 A 
ATOM     11  C   UNL     1     -45.693 -50.606  34.306  0.00  0.00    +0.000 A 
ATOM     12  C   UNL     1     -46.513 -50.797  33.016  0.00  0.00    +0.000 A 
ATOM     13  C   UNL     1     -46.270 -52.085  32.209  0.00  0.00    +0.000 A 
ATOM     14  C   UNL     1     -45.219 -53.061  32.782  0.00  0.00    +0.000 A 
ENDBRANCH   3   9
BRANCH   2  15
ATOM     15  O   UNL     1     -41.515 -53.206  33.770  0.00  0.00    +0.000 OA
ATOM     16  H   UNL     1     -41.415 -53.578  32.869  0.00  0.00    +0.000 HD
ENDBRANCH   2  15
TORSDOF 2
ENDMDL
MODEL 7
REMARK VINA RESULT:      -5.2     19.097     19.881
REMARK  Name = Ciclopirox.pdbqt.pdb
REMARK  2 active torsions:
REMARK  status: ('A' for Active; 'I' for Inactive)
REMARK    1  A    between atoms: N_2  and  O_15
REMARK    2  A    between atoms: C_3  and  C_9
REMARK                            x       y       z     vdW  Elec       q    Type
REMARK                         _______ _______ _______ _____ _____    ______ ____
ROOT
ATOM      1  O   UNL     1     -47.806 -41.580  41.501  0.00  0.00    +0.000 OA
ATOM      2  N   UNL     1     -49.108 -41.826  39.571  0.00  0.00    +0.000 N 
ATOM      3  C   UNL     1     -50.359 -41.684  38.953  0.00  0.00    +0.000 C 
ATOM      4  C   UNL     1     -51.257 -41.243  39.799  0.00  0.00    +0.000 C 
ATOM      5  C   UNL     1     -51.313 -40.887  41.178  0.00  0.00    +0.000 C 
ATOM      6  C   UNL     1     -48.882 -41.519  40.925  0.00  0.00    +0.000 C 
ATOM      7  C   UNL     1     -50.091 -41.075  41.579  0.00  0.00    +0.000 C 
ATOM      8  C   UNL     1     -52.474 -41.300  42.019  0.00  0.00    +0.000 C 
ENDROOT
BRANCH   3   9
ATOM      9  C   UNL     1     -50.632 -41.965  37.574  0.00  0.00    +0.000 A 
ATOM     10  C   UNL     1     -50.231 -41.108  36.482  0.00  0.00    +0.000 A 
ATOM     11  C   UNL     1     -50.647 -41.116  34.994  0.00  0.00    +0.000 A 
ATOM     12  C   UNL     1     -51.652 -42.206  34.575  0.00  0.00    +0.000 A 
ATOM     13  C   UNL     1     -52.140 -43.174  35.669  0.00  0.00    +0.000 A 
ATOM     14  C   UNL     1     -51.565 -42.949  37.085  0.00  0.00    +0.000 A 
ENDBRANCH   3   9
BRANCH   2  15
ATOM     15  O   UNL     1     -48.000 -42.205  38.789  0.00  0.00    +0.000 OA
ATOM     16  H   UNL     1     -48.243 -43.107  38.498  0.00  0.00    +0.000 HD
ENDBRANCH   2  15
TORSDOF 2
ENDMDL
MODEL 8
REMARK VINA RESULT:      -5.2     11.933     14.092
REMARK  Name = Ciclopirox.pdbqt.pdb
REMARK  2 active torsions:
REMARK  status: ('A' for Active; 'I' for Inactive)
REMARK    1  A    between atoms: N_2  and  O_15
REMARK    2  A    between atoms: C_3  and  C_9
REMARK                            x       y       z     vdW  Elec       q    Type
REMARK                         _______ _______ _______ _____ _____    ______ ____
ROOT
ATOM      1  O   UNL     1     -35.085 -61.847  47.433  0.00  0.00    +0.000 OA
ATOM      2  N   UNL     1     -35.228 -61.786  45.096  0.00  0.00    +0.000 N 
ATOM      3  C   UNL     1     -34.598 -61.523  43.872  0.00  0.00    +0.000 C 
ATOM      4  C   UNL     1     -33.379 -61.077  44.053  0.00  0.00    +0.000 C 
ATOM      5  C   UNL     1     -32.529 -60.771  45.155  0.00  0.00    +0.000 C 
ATOM      6  C   UNL     1     -34.600 -61.592  46.339  0.00  0.00    +0.000 C 
ATOM      7  C   UNL     1     -33.262 -61.071  46.184  0.00  0.00    +0.000 C 
ATOM      8  C   UNL     1     -31.685 -59.539  45.139  0.00  0.00    +0.000 C 
ENDROOT
BRANCH   3   9
ATOM      9  C   UNL     1     -35.190 -61.724  42.582  0.00  0.00    +0.000 A 
ATOM     10  C   UNL     1     -36.173 -60.840  41.999  0.00  0.00    +0.000 A 
ATOM     11  C   UNL     1     -37.087 -61.027  40.766  0.00  0.00    +0.000 A 
ATOM     12  C   UNL     1     -36.948 -62.364  40.015  0.00  0.00    +0.000 A 
ATOM     13  C   UNL     1     -35.923 -63.377  40.557  0.00  0.00    +0.000 A 
ATOM     14  C   UNL     1     -35.132 -62.941  41.811  0.00  0.00    +0.000 A 
ENDBRANCH   3   9
BRANCH   2  15
ATOM     15  O   UNL     1     -36.515 -62.358  45.092  0.00  0.00    +0.000 OA
ATOM     16  H   UNL     1     -36.421 -63.089  44.448  0.00  0.00    +0.000 HD
ENDBRANCH   2  15
TORSDOF 2
ENDMDL
MODEL 9
REMARK VINA RESULT:      -5.1     20.420     21.521
REMARK  Name = Ciclopirox.pdbqt.pdb
REMARK  2 active torsions:
REMARK  status: ('A' for Active; 'I' for Inactive)
REMARK    1  A    between atoms: N_2  and  O_15
REMARK    2  A    between atoms: C_3  and  C_9
REMARK                            x       y       z     vdW  Elec       q    Type
REMARK                         _______ _______ _______ _____ _____    ______ ____
ROOT
ATOM      1  O   UNL     1     -45.337 -39.432  50.324  0.00  0.00    +0.000 OA
ATOM      2  N   UNL     1     -43.469 -40.531  49.438  0.00  0.00    +0.000 N 
ATOM      3  C   UNL     1     -42.496 -40.599  48.431  0.00  0.00    +0.000 C 
ATOM      4  C   UNL     1     -42.679 -39.665  47.531  0.00  0.00    +0.000 C 
ATOM      5  C   UNL     1     -43.608 -38.611  47.288  0.00  0.00    +0.000 C 
ATOM      6  C   UNL     1     -44.492 -39.565  49.451  0.00  0.00    +0.000 C 
ATOM      7  C   UNL     1     -44.418 -38.696  48.300  0.00  0.00    +0.000 C 
ATOM      8  C   UNL     1     -44.117 -38.356  45.909  0.00  0.00    +0.000 C 
ENDROOT
BRANCH   3   9
ATOM      9  C   UNL     1     -41.425 -41.551  48.386  0.00  0.00    +0.000 A 
ATOM     10  C   UNL     1     -40.368 -41.622  49.368  0.00  0.00    +0.000 A 
ATOM     11  C   UNL     1     -39.027 -42.390  49.347  0.00  0.00    +0.000 A 
ATOM     12  C   UNL     1     -38.744 -43.229  48.086  0.00  0.00    +0.000 A 
ATOM     13  C   UNL     1     -39.814 -43.222  46.979  0.00  0.00    +0.000 A 
ATOM     14  C   UNL     1     -41.072 -42.366  47.251  0.00  0.00    +0.000 A 
ENDBRANCH   3   9
BRANCH   2  15
ATOM     15  O   UNL     1     -43.376 -41.404  50.539  0.00  0.00    +0.000 OA
ATOM     16  H   UNL     1     -44.286 -41.759  50.606  0.00  0.00    +0.000 HD
ENDBRANCH   2  15
TORSDOF 2
ENDMDL
