MODEL 1
REMARK VINA RESULT:      -6.7      0.000      0.000
REMARK  Name = 
REMARK  5 active torsions:
REMARK  status: ('A' for Active; 'I' for Inactive)
REMARK    1  A    between atoms: O_5  and  C_10
REMARK    2  A    between atoms: N_9  and  C_20
REMARK    3  A    between atoms: N_9  and  C_25
REMARK    4  A    between atoms: C_10  and  C_11
REMARK    5  A    between atoms: C_18  and  C_19
REMARK                            x       y       z     vdW  Elec       q    Type
REMARK                         _______ _______ _______ _____ _____    ______ ____
ROOT
ATOM      1  F   UNL     1     -32.876 -48.309  49.178  0.00  0.00    +0.000 F 
ATOM      2  F   UNL     1     -34.829 -46.781  50.245  0.00  0.00    +0.000 F 
ATOM      3  C   UNL     1     -32.278 -48.824  52.731  0.00  0.00    +0.000 A 
ATOM      4  C   UNL     1     -32.099 -48.953  51.335  0.00  0.00    +0.000 A 
ATOM      5  C   UNL     1     -33.288 -48.015  53.279  0.00  0.00    +0.000 A 
ATOM      6  C   UNL     1     -32.991 -48.251  50.514  0.00  0.00    +0.000 A 
ATOM      7  C   UNL     1     -34.150 -47.324  52.432  0.00  0.00    +0.000 A 
ATOM      8  C   UNL     1     -33.995 -47.447  51.057  0.00  0.00    +0.000 A 
ENDROOT
BRANCH   3  14
ATOM      9  O   UNL     1     -30.217 -49.231  53.747  0.00  0.00    +0.000 OA
ATOM     10  N   UNL     1     -31.939 -50.655  54.297  0.00  0.00    +0.000 N 
ATOM     11  C   UNL     1     -31.957 -52.729  54.064  0.00  0.00    +0.000 C 
ATOM     12  C   UNL     1     -32.967 -51.574  53.811  0.00  0.00    +0.000 C 
ATOM     13  C   UNL     1     -31.182 -51.716  54.959  0.00  0.00    +0.000 C 
ATOM     14  C   UNL     1     -31.391 -49.572  53.647  0.00  0.00    +0.000 C 
BRANCH  11  16
ATOM     15  N   UNL     1     -30.753 -54.636  53.034  0.00  0.00    +0.000 NA
ATOM     16  C   UNL     1     -31.118 -53.208  52.850  0.00  0.00    +0.000 C 
ATOM     17  C   UNL     1     -31.892 -53.050  51.530  0.00  0.00    +0.000 C 
ATOM     18  C   UNL     1     -31.064 -53.550  50.346  0.00  0.00    +0.000 C 
ATOM     19  C   UNL     1     -29.854 -55.069  51.954  0.00  0.00    +0.000 C 
ATOM     20  C   UNL     1     -30.539 -54.960  50.593  0.00  0.00    +0.000 C 
ATOM     21  H   UNL     1     -31.608 -55.191  52.949  0.00  0.00    +0.000 HD
ENDBRANCH  11  16
BRANCH  11  22
ATOM     22  O   UNL     1     -32.504 -53.876  54.778  0.00  0.00    +0.000 OA
ATOM     23  H   UNL     1     -33.124 -53.465  55.411  0.00  0.00    +0.000 HD
ENDBRANCH  11  22
ENDBRANCH   3  14
BRANCH   4  24
ATOM     24  N   UNL     1     -31.111 -49.827  50.831  0.00  0.00    +0.000 N 
ATOM     25  H   UNL     1     -31.215 -50.795  51.155  0.00  0.00    +0.000 HD
BRANCH  24  28
ATOM     26  I   UNL     1     -26.981 -49.373  46.093  0.00  0.00    +0.000 I 
ATOM     27  F   UNL     1     -31.626 -50.835  48.336  0.00  0.00    +0.000 F 
ATOM     28  C   UNL     1     -30.157 -49.691  49.805  0.00  0.00    +0.000 A 
ATOM     29  C   UNL     1     -30.443 -50.232  48.538  0.00  0.00    +0.000 A 
ATOM     30  C   UNL     1     -28.917 -49.069  49.972  0.00  0.00    +0.000 A 
ATOM     31  C   UNL     1     -29.551 -50.153  47.473  0.00  0.00    +0.000 A 
ATOM     32  C   UNL     1     -28.006 -48.981  48.911  0.00  0.00    +0.000 A 
ATOM     33  C   UNL     1     -28.328 -49.521  47.666  0.00  0.00    +0.000 A 
ENDBRANCH  24  28
ENDBRANCH   4  24
TORSDOF 5
ENDMDL
MODEL 2
REMARK VINA RESULT:      -6.6      8.651     12.223
REMARK  Name = 
REMARK  5 active torsions:
REMARK  status: ('A' for Active; 'I' for Inactive)
REMARK    1  A    between atoms: O_5  and  C_10
REMARK    2  A    between atoms: N_9  and  C_20
REMARK    3  A    between atoms: N_9  and  C_25
REMARK    4  A    between atoms: C_10  and  C_11
REMARK    5  A    between atoms: C_18  and  C_19
REMARK                            x       y       z     vdW  Elec       q    Type
REMARK                         _______ _______ _______ _____ _____    ______ ____
ROOT
ATOM      1  F   UNL     1     -39.621 -41.484  50.803  0.00  0.00    +0.000 F 
ATOM      2  F   UNL     1     -42.145 -40.863  50.074  0.00  0.00    +0.000 F 
ATOM      3  C   UNL     1     -39.558 -42.406  47.283  0.00  0.00    +0.000 A 
ATOM      4  C   UNL     1     -39.085 -42.216  48.600  0.00  0.00    +0.000 A 
ATOM      5  C   UNL     1     -40.879 -42.095  46.915  0.00  0.00    +0.000 A 
ATOM      6  C   UNL     1     -39.989 -41.679  49.527  0.00  0.00    +0.000 A 
ATOM      7  C   UNL     1     -41.752 -41.572  47.865  0.00  0.00    +0.000 A 
ATOM      8  C   UNL     1     -41.301 -41.369  49.163  0.00  0.00    +0.000 A 
ENDROOT
BRANCH   3  14
ATOM      9  O   UNL     1     -38.253 -44.095  46.340  0.00  0.00    +0.000 OA
ATOM     10  N   UNL     1     -38.228 -42.054  45.277  0.00  0.00    +0.000 N 
ATOM     11  C   UNL     1     -36.548 -40.876  44.890  0.00  0.00    +0.000 C 
ATOM     12  C   UNL     1     -37.995 -40.616  45.399  0.00  0.00    +0.000 C 
ATOM     13  C   UNL     1     -37.084 -42.251  44.388  0.00  0.00    +0.000 C 
ATOM     14  C   UNL     1     -38.639 -42.934  46.252  0.00  0.00    +0.000 C 
BRANCH  11  16
ATOM     15  N   UNL     1     -34.154 -41.371  45.308  0.00  0.00    +0.000 NA
ATOM     16  C   UNL     1     -35.441 -41.030  45.967  0.00  0.00    +0.000 C 
ATOM     17  C   UNL     1     -35.264 -39.739  46.785  0.00  0.00    +0.000 C 
ATOM     18  C   UNL     1     -34.153 -39.897  47.824  0.00  0.00    +0.000 C 
ATOM     19  C   UNL     1     -33.125 -41.642  46.322  0.00  0.00    +0.000 C 
ATOM     20  C   UNL     1     -32.866 -40.408  47.185  0.00  0.00    +0.000 C 
ATOM     21  H   UNL     1     -33.844 -40.549  44.783  0.00  0.00    +0.000 HD
ENDBRANCH  11  16
BRANCH  11  22
ATOM     22  O   UNL     1     -36.099 -39.977  43.835  0.00  0.00    +0.000 OA
ATOM     23  H   UNL     1     -35.725 -39.225  44.332  0.00  0.00    +0.000 HD
ENDBRANCH  11  22
ENDBRANCH   3  14
BRANCH   4  24
ATOM     24  N   UNL     1     -37.734 -42.484  48.909  0.00  0.00    +0.000 N 
ATOM     25  H   UNL     1     -37.093 -41.732  48.631  0.00  0.00    +0.000 HD
BRANCH  24  28
ATOM     26  I   UNL     1     -34.776 -46.841  52.369  0.00  0.00    +0.000 I 
ATOM     27  F   UNL     1     -35.078 -43.064  48.575  0.00  0.00    +0.000 F 
ATOM     28  C   UNL     1     -37.119 -43.460  49.714  0.00  0.00    +0.000 A 
ATOM     29  C   UNL     1     -35.757 -43.748  49.509  0.00  0.00    +0.000 A 
ATOM     30  C   UNL     1     -37.789 -44.192  50.698  0.00  0.00    +0.000 A 
ATOM     31  C   UNL     1     -35.076 -44.708  50.254  0.00  0.00    +0.000 A 
ATOM     32  C   UNL     1     -37.119 -45.163  51.456  0.00  0.00    +0.000 A 
ATOM     33  C   UNL     1     -35.766 -45.414  51.232  0.00  0.00    +0.000 A 
ENDBRANCH  24  28
ENDBRANCH   4  24
TORSDOF 5
ENDMDL
MODEL 3
REMARK VINA RESULT:      -6.4     11.421     14.277
REMARK  Name = 
REMARK  5 active torsions:
REMARK  status: ('A' for Active; 'I' for Inactive)
REMARK    1  A    between atoms: O_5  and  C_10
REMARK    2  A    between atoms: N_9  and  C_20
REMARK    3  A    between atoms: N_9  and  C_25
REMARK    4  A    between atoms: C_10  and  C_11
REMARK    5  A    between atoms: C_18  and  C_19
REMARK                            x       y       z     vdW  Elec       q    Type
REMARK                         _______ _______ _______ _____ _____    ______ ____
ROOT
ATOM      1  F   UNL     1     -30.866 -57.336  44.580  0.00  0.00    +0.000 F 
ATOM      2  F   UNL     1     -30.515 -56.012  42.254  0.00  0.00    +0.000 F 
ATOM      3  C   UNL     1     -32.468 -59.624  42.248  0.00  0.00    +0.000 A 
ATOM      4  C   UNL     1     -31.998 -59.120  43.481  0.00  0.00    +0.000 A 
ATOM      5  C   UNL     1     -32.294 -58.922  41.043  0.00  0.00    +0.000 A 
ATOM      6  C   UNL     1     -31.328 -57.889  43.448  0.00  0.00    +0.000 A 
ATOM      7  C   UNL     1     -31.632 -57.697  41.050  0.00  0.00    +0.000 A 
ATOM      8  C   UNL     1     -31.154 -57.191  42.253  0.00  0.00    +0.000 A 
ENDROOT
BRANCH   3  14
ATOM      9  O   UNL     1     -32.499 -61.936  41.926  0.00  0.00    +0.000 OA
ATOM     10  N   UNL     1     -34.505 -60.939  42.459  0.00  0.00    +0.000 N 
ATOM     11  C   UNL     1     -36.261 -61.004  41.334  0.00  0.00    +0.000 C 
ATOM     12  C   UNL     1     -35.485 -59.909  42.119  0.00  0.00    +0.000 C 
ATOM     13  C   UNL     1     -35.418 -62.035  42.143  0.00  0.00    +0.000 C 
ATOM     14  C   UNL     1     -33.150 -60.936  42.214  0.00  0.00    +0.000 C 
BRANCH  11  16
ATOM     15  N   UNL     1     -37.196 -61.653  39.131  0.00  0.00    +0.000 NA
ATOM     16  C   UNL     1     -35.998 -61.094  39.807  0.00  0.00    +0.000 C 
ATOM     17  C   UNL     1     -35.676 -59.714  39.207  0.00  0.00    +0.000 C 
ATOM     18  C   UNL     1     -35.445 -59.814  37.698  0.00  0.00    +0.000 C 
ATOM     19  C   UNL     1     -36.917 -61.861  37.703  0.00  0.00    +0.000 C 
ATOM     20  C   UNL     1     -36.596 -60.539  37.008  0.00  0.00    +0.000 C 
ATOM     21  H   UNL     1     -37.943 -60.956  39.190  0.00  0.00    +0.000 HD
ENDBRANCH  11  16
BRANCH  11  22
ATOM     22  O   UNL     1     -37.694 -61.049  41.598  0.00  0.00    +0.000 OA
ATOM     23  H   UNL     1     -37.777 -61.787  42.231  0.00  0.00    +0.000 HD
ENDBRANCH  11  22
ENDBRANCH   3  14
BRANCH   4  24
ATOM     24  N   UNL     1     -32.139 -59.890  44.656  0.00  0.00    +0.000 N 
ATOM     25  H   UNL     1     -31.376 -60.561  44.801  0.00  0.00    +0.000 HD
BRANCH  24  28
ATOM     26  I   UNL     1     -36.035 -59.571  49.598  0.00  0.00    +0.000 I 
ATOM     27  F   UNL     1     -33.730 -61.990  45.406  0.00  0.00    +0.000 F 
ATOM     28  C   UNL     1     -32.986 -59.769  45.774  0.00  0.00    +0.000 A 
ATOM     29  C   UNL     1     -33.802 -60.859  46.126  0.00  0.00    +0.000 A 
ATOM     30  C   UNL     1     -33.089 -58.612  46.551  0.00  0.00    +0.000 A 
ATOM     31  C   UNL     1     -34.676 -60.819  47.209  0.00  0.00    +0.000 A 
ATOM     32  C   UNL     1     -33.965 -58.554  47.644  0.00  0.00    +0.000 A 
ATOM     33  C   UNL     1     -34.752 -59.658  47.969  0.00  0.00    +0.000 A 
ENDBRANCH  24  28
ENDBRANCH   4  24
TORSDOF 5
ENDMDL
MODEL 4
REMARK VINA RESULT:      -5.8     10.184     13.565
REMARK  Name = 
REMARK  5 active torsions:
REMARK  status: ('A' for Active; 'I' for Inactive)
REMARK    1  A    between atoms: O_5  and  C_10
REMARK    2  A    between atoms: N_9  and  C_20
REMARK    3  A    between atoms: N_9  and  C_25
REMARK    4  A    between atoms: C_10  and  C_11
REMARK    5  A    between atoms: C_18  and  C_19
REMARK                            x       y       z     vdW  Elec       q    Type
REMARK                         _______ _______ _______ _____ _____    ______ ____
ROOT
ATOM      1  F   UNL     1     -40.285 -40.645  51.501  0.00  0.00    +0.000 F 
ATOM      2  F   UNL     1     -42.869 -39.909  51.768  0.00  0.00    +0.000 F 
ATOM      3  C   UNL     1     -41.504 -41.203  48.117  0.00  0.00    +0.000 A 
ATOM      4  C   UNL     1     -40.591 -41.157  49.195  0.00  0.00    +0.000 A 
ATOM      5  C   UNL     1     -42.851 -40.832  48.268  0.00  0.00    +0.000 A 
ATOM      6  C   UNL     1     -41.085 -40.703  50.425  0.00  0.00    +0.000 A 
ATOM      7  C   UNL     1     -43.309 -40.395  49.508  0.00  0.00    +0.000 A 
ATOM      8  C   UNL     1     -42.423 -40.334  50.576  0.00  0.00    +0.000 A 
ENDROOT
BRANCH   3  14
ATOM      9  O   UNL     1     -40.966 -42.840  46.542  0.00  0.00    +0.000 OA
ATOM     10  N   UNL     1     -40.636 -40.650  45.913  0.00  0.00    +0.000 N 
ATOM     11  C   UNL     1     -38.838 -39.799  45.280  0.00  0.00    +0.000 C 
ATOM     12  C   UNL     1     -39.998 -39.373  46.225  0.00  0.00    +0.000 C 
ATOM     13  C   UNL     1     -39.830 -40.857  44.711  0.00  0.00    +0.000 C 
ATOM     14  C   UNL     1     -41.031 -41.639  46.786  0.00  0.00    +0.000 C 
BRANCH  11  16
ATOM     15  N   UNL     1     -36.584 -40.761  44.899  0.00  0.00    +0.000 NA
ATOM     16  C   UNL     1     -37.595 -40.450  45.943  0.00  0.00    +0.000 C 
ATOM     17  C   UNL     1     -36.965 -39.523  46.997  0.00  0.00    +0.000 C 
ATOM     18  C   UNL     1     -35.726 -40.166  47.622  0.00  0.00    +0.000 C 
ATOM     19  C   UNL     1     -35.455 -41.490  45.493  0.00  0.00    +0.000 C 
ATOM     20  C   UNL     1     -34.750 -40.644  46.552  0.00  0.00    +0.000 C 
ATOM     21  H   UNL     1     -36.213 -39.874  44.548  0.00  0.00    +0.000 HD
ENDBRANCH  11  16
BRANCH  11  22
ATOM     22  O   UNL     1     -38.420 -38.781  44.325  0.00  0.00    +0.000 OA
ATOM     23  H   UNL     1     -37.750 -38.275  44.822  0.00  0.00    +0.000 HD
ENDBRANCH  11  22
ENDBRANCH   3  14
BRANCH   4  24
ATOM     24  N   UNL     1     -39.233 -41.479  48.981  0.00  0.00    +0.000 N 
ATOM     25  H   UNL     1     -38.724 -40.771  48.440  0.00  0.00    +0.000 HD
BRANCH  24  28
ATOM     26  I   UNL     1     -35.300 -45.648  51.599  0.00  0.00    +0.000 I 
ATOM     27  F   UNL     1     -37.225 -40.728  50.686  0.00  0.00    +0.000 F 
ATOM     28  C   UNL     1     -38.387 -42.452  49.546  0.00  0.00    +0.000 A 
ATOM     29  C   UNL     1     -37.355 -42.035  50.406  0.00  0.00    +0.000 A 
ATOM     30  C   UNL     1     -38.490 -43.821  49.283  0.00  0.00    +0.000 A 
ATOM     31  C   UNL     1     -36.467 -42.930  50.996  0.00  0.00    +0.000 A 
ATOM     32  C   UNL     1     -37.604 -44.736  49.868  0.00  0.00    +0.000 A 
ATOM     33  C   UNL     1     -36.599 -44.287  50.723  0.00  0.00    +0.000 A 
ENDBRANCH  24  28
ENDBRANCH   4  24
TORSDOF 5
ENDMDL
MODEL 5
REMARK VINA RESULT:      -5.7      7.292      9.479
REMARK  Name = 
REMARK  5 active torsions:
REMARK  status: ('A' for Active; 'I' for Inactive)
REMARK    1  A    between atoms: O_5  and  C_10
REMARK    2  A    between atoms: N_9  and  C_20
REMARK    3  A    between atoms: N_9  and  C_25
REMARK    4  A    between atoms: C_10  and  C_11
REMARK    5  A    between atoms: C_18  and  C_19
REMARK                            x       y       z     vdW  Elec       q    Type
REMARK                         _______ _______ _______ _____ _____    ______ ____
ROOT
ATOM      1  F   UNL     1     -36.832 -40.570  48.879  0.00  0.00    +0.000 F 
ATOM      2  F   UNL     1     -38.400 -41.656  46.968  0.00  0.00    +0.000 F 
ATOM      3  C   UNL     1     -37.366 -43.898  50.250  0.00  0.00    +0.000 A 
ATOM      4  C   UNL     1     -36.878 -42.575  50.163  0.00  0.00    +0.000 A 
ATOM      5  C   UNL     1     -38.194 -44.452  49.258  0.00  0.00    +0.000 A 
ATOM      6  C   UNL     1     -37.242 -41.839  49.027  0.00  0.00    +0.000 A 
ATOM      7  C   UNL     1     -38.542 -43.687  48.148  0.00  0.00    +0.000 A 
ATOM      8  C   UNL     1     -38.064 -42.387  48.041  0.00  0.00    +0.000 A 
ENDROOT
BRANCH   3  14
ATOM      9  O   UNL     1     -37.579 -44.585  52.470  0.00  0.00    +0.000 OA
ATOM     10  N   UNL     1     -35.935 -45.607  51.225  0.00  0.00    +0.000 N 
ATOM     11  C   UNL     1     -33.895 -45.653  51.663  0.00  0.00    +0.000 C 
ATOM     12  C   UNL     1     -34.752 -45.430  50.385  0.00  0.00    +0.000 C 
ATOM     13  C   UNL     1     -35.183 -46.259  52.296  0.00  0.00    +0.000 C 
ATOM     14  C   UNL     1     -36.986 -44.736  51.407  0.00  0.00    +0.000 C 
BRANCH  11  16
ATOM     15  N   UNL     1     -33.620 -44.561  53.873  0.00  0.00    +0.000 NA
ATOM     16  C   UNL     1     -33.409 -44.384  52.413  0.00  0.00    +0.000 C 
ATOM     17  C   UNL     1     -31.918 -44.106  52.148  0.00  0.00    +0.000 C 
ATOM     18  C   UNL     1     -31.447 -42.869  52.913  0.00  0.00    +0.000 C 
ATOM     19  C   UNL     1     -33.280 -43.320  54.584  0.00  0.00    +0.000 C 
ATOM     20  C   UNL     1     -31.808 -42.962  54.392  0.00  0.00    +0.000 C 
ATOM     21  H   UNL     1     -32.967 -45.278  54.199  0.00  0.00    +0.000 HD
ENDBRANCH  11  16
BRANCH  11  22
ATOM     22  O   UNL     1     -32.793 -46.594  51.506  0.00  0.00    +0.000 OA
ATOM     23  H   UNL     1     -32.046 -46.018  51.253  0.00  0.00    +0.000 HD
ENDBRANCH  11  22
ENDBRANCH   3  14
BRANCH   4  24
ATOM     24  N   UNL     1     -35.999 -42.083  51.152  0.00  0.00    +0.000 N 
ATOM     25  H   UNL     1     -36.093 -42.557  52.058  0.00  0.00    +0.000 HD
BRANCH  24  28
ATOM     26  I   UNL     1     -31.088 -38.138  51.002  0.00  0.00    +0.000 I 
ATOM     27  F   UNL     1     -35.898 -39.811  52.679  0.00  0.00    +0.000 F 
ATOM     28  C   UNL     1     -34.874 -41.240  51.088  0.00  0.00    +0.000 A 
ATOM     29  C   UNL     1     -34.857 -40.072  51.871  0.00  0.00    +0.000 A 
ATOM     30  C   UNL     1     -33.770 -41.476  50.263  0.00  0.00    +0.000 A 
ATOM     31  C   UNL     1     -33.790 -39.178  51.857  0.00  0.00    +0.000 A 
ATOM     32  C   UNL     1     -32.687 -40.586  50.236  0.00  0.00    +0.000 A 
ATOM     33  C   UNL     1     -32.701 -39.444  51.035  0.00  0.00    +0.000 A 
ENDBRANCH  24  28
ENDBRANCH   4  24
TORSDOF 5
ENDMDL
MODEL 6
REMARK VINA RESULT:      -5.6     25.300     27.141
REMARK  Name = 
REMARK  5 active torsions:
REMARK  status: ('A' for Active; 'I' for Inactive)
REMARK    1  A    between atoms: O_5  and  C_10
REMARK    2  A    between atoms: N_9  and  C_20
REMARK    3  A    between atoms: N_9  and  C_25
REMARK    4  A    between atoms: C_10  and  C_11
REMARK    5  A    between atoms: C_18  and  C_19
REMARK                            x       y       z     vdW  Elec       q    Type
REMARK                         _______ _______ _______ _____ _____    ______ ____
ROOT
ATOM      1  F   UNL     1     -44.230 -61.632  34.731  0.00  0.00    +0.000 F 
ATOM      2  F   UNL     1     -44.068 -59.957  32.619  0.00  0.00    +0.000 F 
ATOM      3  C   UNL     1     -46.895 -62.935  32.623  0.00  0.00    +0.000 A 
ATOM      4  C   UNL     1     -46.034 -62.829  33.738  0.00  0.00    +0.000 A 
ATOM      5  C   UNL     1     -46.814 -62.050  31.534  0.00  0.00    +0.000 A 
ATOM      6  C   UNL     1     -45.074 -61.808  33.703  0.00  0.00    +0.000 A 
ATOM      7  C   UNL     1     -45.854 -61.042  31.538  0.00  0.00    +0.000 A 
ATOM      8  C   UNL     1     -44.992 -60.928  32.622  0.00  0.00    +0.000 A 
ENDROOT
BRANCH   3  14
ATOM      9  O   UNL     1     -48.819 -64.002  33.403  0.00  0.00    +0.000 OA
ATOM     10  N   UNL     1     -47.711 -65.014  31.657  0.00  0.00    +0.000 N 
ATOM     11  C   UNL     1     -46.940 -66.954  31.634  0.00  0.00    +0.000 C 
ATOM     12  C   UNL     1     -46.446 -65.556  31.164  0.00  0.00    +0.000 C 
ATOM     13  C   UNL     1     -48.364 -66.322  31.674  0.00  0.00    +0.000 C 
ATOM     14  C   UNL     1     -47.903 -64.017  32.586  0.00  0.00    +0.000 C 
BRANCH  11  16
ATOM     15  N   UNL     1     -46.545 -68.915  33.101  0.00  0.00    +0.000 NA
ATOM     16  C   UNL     1     -46.467 -67.433  33.033  0.00  0.00    +0.000 C 
ATOM     17  C   UNL     1     -45.023 -66.989  33.323  0.00  0.00    +0.000 C 
ATOM     18  C   UNL     1     -44.561 -67.490  34.692  0.00  0.00    +0.000 C 
ATOM     19  C   UNL     1     -46.219 -69.374  34.458  0.00  0.00    +0.000 C 
ATOM     20  C   UNL     1     -44.791 -68.990  34.840  0.00  0.00    +0.000 C 
ATOM     21  H   UNL     1     -45.828 -69.295  32.478  0.00  0.00    +0.000 HD
ENDBRANCH  11  16
BRANCH  11  22
ATOM     22  O   UNL     1     -46.776 -68.023  30.657  0.00  0.00    +0.000 OA
ATOM     23  H   UNL     1     -47.071 -67.607  29.825  0.00  0.00    +0.000 HD
ENDBRANCH  11  22
ENDBRANCH   3  14
BRANCH   4  24
ATOM     24  N   UNL     1     -46.110 -63.780  34.779  0.00  0.00    +0.000 N 
ATOM     25  H   UNL     1     -45.951 -64.744  34.467  0.00  0.00    +0.000 HD
BRANCH  24  28
ATOM     26  I   UNL     1     -46.406 -63.036  41.029  0.00  0.00    +0.000 I 
ATOM     27  F   UNL     1     -48.080 -62.310  35.988  0.00  0.00    +0.000 F 
ATOM     28  C   UNL     1     -46.136 -63.653  36.181  0.00  0.00    +0.000 A 
ATOM     29  C   UNL     1     -47.150 -62.878  36.772  0.00  0.00    +0.000 A 
ATOM     30  C   UNL     1     -45.189 -64.229  37.032  0.00  0.00    +0.000 A 
ATOM     31  C   UNL     1     -47.240 -62.691  38.149  0.00  0.00    +0.000 A 
ATOM     32  C   UNL     1     -45.264 -64.050  38.420  0.00  0.00    +0.000 A 
ATOM     33  C   UNL     1     -46.290 -63.285  38.972  0.00  0.00    +0.000 A 
ENDBRANCH  24  28
ENDBRANCH   4  24
TORSDOF 5
ENDMDL
MODEL 7
REMARK VINA RESULT:      -5.5     27.690     30.224
REMARK  Name = 
REMARK  5 active torsions:
REMARK  status: ('A' for Active; 'I' for Inactive)
REMARK    1  A    between atoms: O_5  and  C_10
REMARK    2  A    between atoms: N_9  and  C_20
REMARK    3  A    between atoms: N_9  and  C_25
REMARK    4  A    between atoms: C_10  and  C_11
REMARK    5  A    between atoms: C_18  and  C_19
REMARK                            x       y       z     vdW  Elec       q    Type
REMARK                         _______ _______ _______ _____ _____    ______ ____
ROOT
ATOM      1  F   UNL     1     -54.801 -41.139  31.885  0.00  0.00    +0.000 F 
ATOM      2  F   UNL     1     -57.397 -41.851  31.684  0.00  0.00    +0.000 F 
ATOM      3  C   UNL     1     -55.747 -41.252  35.397  0.00  0.00    +0.000 A 
ATOM      4  C   UNL     1     -54.923 -41.079  34.262  0.00  0.00    +0.000 A 
ATOM      5  C   UNL     1     -57.102 -41.609  35.284  0.00  0.00    +0.000 A 
ATOM      6  C   UNL     1     -55.513 -41.299  33.010  0.00  0.00    +0.000 A 
ATOM      7  C   UNL     1     -57.657 -41.810  34.023  0.00  0.00    +0.000 A 
ATOM      8  C   UNL     1     -56.858 -41.653  32.896  0.00  0.00    +0.000 A 
ENDROOT
BRANCH   3  14
ATOM      9  O   UNL     1     -54.652 -42.032  37.305  0.00  0.00    +0.000 OA
ATOM     10  N   UNL     1     -55.304 -39.824  37.316  0.00  0.00    +0.000 N 
ATOM     11  C   UNL     1     -56.560 -38.908  38.709  0.00  0.00    +0.000 C 
ATOM     12  C   UNL     1     -56.406 -38.875  37.162  0.00  0.00    +0.000 C 
ATOM     13  C   UNL     1     -55.128 -39.521  38.735  0.00  0.00    +0.000 C 
ATOM     14  C   UNL     1     -55.170 -41.070  36.746  0.00  0.00    +0.000 C 
BRANCH  11  16
ATOM     15  N   UNL     1     -57.228 -40.289  40.658  0.00  0.00    +0.000 NA
ATOM     16  C   UNL     1     -57.627 -39.875  39.288  0.00  0.00    +0.000 C 
ATOM     17  C   UNL     1     -59.017 -39.216  39.344  0.00  0.00    +0.000 C 
ATOM     18  C   UNL     1     -60.052 -40.170  39.941  0.00  0.00    +0.000 C 
ATOM     19  C   UNL     1     -58.164 -41.300  41.170  0.00  0.00    +0.000 C 
ATOM     20  C   UNL     1     -59.579 -40.736  41.276  0.00  0.00    +0.000 C 
ATOM     21  H   UNL     1     -57.310 -39.472  41.268  0.00  0.00    +0.000 HD
ENDBRANCH  11  16
BRANCH  11  22
ATOM     22  O   UNL     1     -56.674 -37.600  39.341  0.00  0.00    +0.000 OA
ATOM     23  H   UNL     1     -57.491 -37.237  38.950  0.00  0.00    +0.000 HD
ENDBRANCH  11  22
ENDBRANCH   3  14
BRANCH   4  24
ATOM     24  N   UNL     1     -53.552 -40.782  34.427  0.00  0.00    +0.000 N 
ATOM     25  H   UNL     1     -53.363 -40.130  35.196  0.00  0.00    +0.000 HD
BRANCH  24  28
ATOM     26  I   UNL     1     -48.321 -43.561  32.281  0.00  0.00    +0.000 I 
ATOM     27  F   UNL     1     -52.560 -43.085  35.528  0.00  0.00    +0.000 F 
ATOM     28  C   UNL     1     -52.384 -41.367  33.903  0.00  0.00    +0.000 A 
ATOM     29  C   UNL     1     -51.889 -42.541  34.500  0.00  0.00    +0.000 A 
ATOM     30  C   UNL     1     -51.659 -40.835  32.834  0.00  0.00    +0.000 A 
ATOM     31  C   UNL     1     -50.734 -43.177  34.052  0.00  0.00    +0.000 A 
ATOM     32  C   UNL     1     -50.493 -41.461  32.371  0.00  0.00    +0.000 A 
ATOM     33  C   UNL     1     -50.038 -42.630  32.981  0.00  0.00    +0.000 A 
ENDBRANCH  24  28
ENDBRANCH   4  24
TORSDOF 5
ENDMDL
MODEL 8
REMARK VINA RESULT:      -5.5     22.461     23.925
REMARK  Name = 
REMARK  5 active torsions:
REMARK  status: ('A' for Active; 'I' for Inactive)
REMARK    1  A    between atoms: O_5  and  C_10
REMARK    2  A    between atoms: N_9  and  C_20
REMARK    3  A    between atoms: N_9  and  C_25
REMARK    4  A    between atoms: C_10  and  C_11
REMARK    5  A    between atoms: C_18  and  C_19
REMARK                            x       y       z     vdW  Elec       q    Type
REMARK                         _______ _______ _______ _____ _____    ______ ____
ROOT
ATOM      1  F   UNL     1     -43.694 -59.786  31.284  0.00  0.00    +0.000 F 
ATOM      2  F   UNL     1     -45.162 -61.050  29.404  0.00  0.00    +0.000 F 
ATOM      3  C   UNL     1     -46.675 -60.621  33.197  0.00  0.00    +0.000 A 
ATOM      4  C   UNL     1     -45.391 -60.098  32.926  0.00  0.00    +0.000 A 
ATOM      5  C   UNL     1     -47.439 -61.265  32.208  0.00  0.00    +0.000 A 
ATOM      6  C   UNL     1     -44.899 -60.268  31.625  0.00  0.00    +0.000 A 
ATOM      7  C   UNL     1     -46.922 -61.407  30.924  0.00  0.00    +0.000 A 
ATOM      8  C   UNL     1     -45.656 -60.908  30.642  0.00  0.00    +0.000 A 
ENDROOT
BRANCH   3  14
ATOM      9  O   UNL     1     -47.493 -59.390  35.003  0.00  0.00    +0.000 OA
ATOM     10  N   UNL     1     -47.369 -61.673  35.279  0.00  0.00    +0.000 N 
ATOM     11  C   UNL     1     -46.311 -62.687  36.764  0.00  0.00    +0.000 C 
ATOM     12  C   UNL     1     -46.523 -62.864  35.233  0.00  0.00    +0.000 C 
ATOM     13  C   UNL     1     -47.561 -61.758  36.725  0.00  0.00    +0.000 C 
ATOM     14  C   UNL     1     -47.231 -60.505  34.562  0.00  0.00    +0.000 C 
BRANCH  11  16
ATOM     15  N   UNL     1     -44.695 -62.322  38.609  0.00  0.00    +0.000 NA
ATOM     16  C   UNL     1     -45.030 -61.936  37.215  0.00  0.00    +0.000 C 
ATOM     17  C   UNL     1     -43.835 -62.257  36.300  0.00  0.00    +0.000 C 
ATOM     18  C   UNL     1     -42.574 -61.531  36.771  0.00  0.00    +0.000 C 
ATOM     19  C   UNL     1     -43.557 -61.526  39.092  0.00  0.00    +0.000 C 
ATOM     20  C   UNL     1     -42.309 -61.784  38.251  0.00  0.00    +0.000 C 
ATOM     21  H   UNL     1     -44.391 -63.299  38.599  0.00  0.00    +0.000 HD
ENDBRANCH  11  16
BRANCH  11  22
ATOM     22  O   UNL     1     -46.481 -63.903  37.550  0.00  0.00    +0.000 OA
ATOM     23  H   UNL     1     -46.611 -63.563  38.455  0.00  0.00    +0.000 HD
ENDBRANCH  11  22
ENDBRANCH   3  14
BRANCH   4  24
ATOM     24  N   UNL     1     -44.634 -59.516  33.966  0.00  0.00    +0.000 N 
ATOM     25  H   UNL     1     -44.152 -60.203  34.557  0.00  0.00    +0.000 HD
BRANCH  24  28
ATOM     26  I   UNL     1     -42.925 -53.604  35.322  0.00  0.00    +0.000 I 
ATOM     27  F   UNL     1     -44.927 -58.444  36.470  0.00  0.00    +0.000 F 
ATOM     28  C   UNL     1     -44.228 -58.192  34.218  0.00  0.00    +0.000 A 
ATOM     29  C   UNL     1     -44.405 -57.664  35.510  0.00  0.00    +0.000 A 
ATOM     30  C   UNL     1     -43.679 -57.348  33.248  0.00  0.00    +0.000 A 
ATOM     31  C   UNL     1     -44.042 -56.361  35.840  0.00  0.00    +0.000 A 
ATOM     32  C   UNL     1     -43.309 -56.033  33.563  0.00  0.00    +0.000 A 
ATOM     33  C   UNL     1     -43.490 -55.547  34.858  0.00  0.00    +0.000 A 
ENDBRANCH  24  28
ENDBRANCH   4  24
TORSDOF 5
ENDMDL
MODEL 9
REMARK VINA RESULT:      -5.5      8.341     10.608
REMARK  Name = 
REMARK  5 active torsions:
REMARK  status: ('A' for Active; 'I' for Inactive)
REMARK    1  A    between atoms: O_5  and  C_10
REMARK    2  A    between atoms: N_9  and  C_20
REMARK    3  A    between atoms: N_9  and  C_25
REMARK    4  A    between atoms: C_10  and  C_11
REMARK    5  A    between atoms: C_18  and  C_19
REMARK                            x       y       z     vdW  Elec       q    Type
REMARK                         _______ _______ _______ _____ _____    ______ ____
ROOT
ATOM      1  F   UNL     1     -35.669 -41.047  46.522  0.00  0.00    +0.000 F 
ATOM      2  F   UNL     1     -37.150 -42.280  44.630  0.00  0.00    +0.000 F 
ATOM      3  C   UNL     1     -37.856 -43.088  48.594  0.00  0.00    +0.000 A 
ATOM      4  C   UNL     1     -36.834 -42.168  48.271  0.00  0.00    +0.000 A 
ATOM      5  C   UNL     1     -38.632 -43.715  47.604  0.00  0.00    +0.000 A 
ATOM      6  C   UNL     1     -36.611 -41.920  46.909  0.00  0.00    +0.000 A 
ATOM      7  C   UNL     1     -38.389 -43.437  46.262  0.00  0.00    +0.000 A 
ATOM      8  C   UNL     1     -37.381 -42.542  45.925  0.00  0.00    +0.000 A 
ENDROOT
BRANCH   3  14
ATOM      9  O   UNL     1     -38.714 -42.609  50.711  0.00  0.00    +0.000 OA
ATOM     10  N   UNL     1     -37.599 -44.609  50.476  0.00  0.00    +0.000 N 
ATOM     11  C   UNL     1     -35.930 -45.234  51.563  0.00  0.00    +0.000 C 
ATOM     12  C   UNL     1     -36.364 -45.278  50.070  0.00  0.00    +0.000 C 
ATOM     13  C   UNL     1     -37.431 -44.966  51.884  0.00  0.00    +0.000 C 
ATOM     14  C   UNL     1     -38.112 -43.418  50.013  0.00  0.00    +0.000 C 
BRANCH  11  16
ATOM     15  N   UNL     1     -34.285 -44.427  53.235  0.00  0.00    +0.000 NA
ATOM     16  C   UNL     1     -35.014 -44.057  51.994  0.00  0.00    +0.000 C 
ATOM     17  C   UNL     1     -33.996 -43.701  50.897  0.00  0.00    +0.000 C 
ATOM     18  C   UNL     1     -33.084 -42.559  51.345  0.00  0.00    +0.000 C 
ATOM     19  C   UNL     1     -33.510 -43.278  53.724  0.00  0.00    +0.000 C 
ATOM     20  C   UNL     1     -32.455 -42.853  52.703  0.00  0.00    +0.000 C 
ATOM     21  H   UNL     1     -33.612 -45.160  52.996  0.00  0.00    +0.000 HD
ENDBRANCH  11  16
BRANCH  11  22
ATOM     22  O   UNL     1     -35.411 -46.491  52.088  0.00  0.00    +0.000 OA
ATOM     23  H   UNL     1     -35.424 -47.076  51.307  0.00  0.00    +0.000 HD
ENDBRANCH  11  22
ENDBRANCH   3  14
BRANCH   4  24
ATOM     24  N   UNL     1     -36.038 -41.611  49.296  0.00  0.00    +0.000 N 
ATOM     25  H   UNL     1     -35.323 -42.254  49.655  0.00  0.00    +0.000 HD
BRANCH  24  28
ATOM     26  I   UNL     1     -35.073 -35.722  51.317  0.00  0.00    +0.000 I 
ATOM     27  F   UNL     1     -33.723 -40.244  48.772  0.00  0.00    +0.000 F 
ATOM     28  C   UNL     1     -35.877 -40.294  49.763  0.00  0.00    +0.000 A 
ATOM     29  C   UNL     1     -34.671 -39.622  49.492  0.00  0.00    +0.000 A 
ATOM     30  C   UNL     1     -36.838 -39.611  50.513  0.00  0.00    +0.000 A 
ATOM     31  C   UNL     1     -34.425 -38.323  49.929  0.00  0.00    +0.000 A 
ATOM     32  C   UNL     1     -36.607 -38.303  50.961  0.00  0.00    +0.000 A 
ATOM     33  C   UNL     1     -35.403 -37.664  50.665  0.00  0.00    +0.000 A 
ENDBRANCH  24  28
ENDBRANCH   4  24
TORSDOF 5
ENDMDL
