MODEL 1
REMARK VINA RESULT:      -8.0      0.000      0.000
REMARK  Name = COUMESTROL.pdbqt.pdb
REMARK  2 active torsions:
REMARK  status: ('A' for Active; 'I' for Inactive)
REMARK    1  A    between atoms: C_16  and  O_19
REMARK    2  A    between atoms: C_18  and  O_21
REMARK                            x       y       z     vdW  Elec       q    Type
REMARK                         _______ _______ _______ _____ _____    ______ ____
ROOT
ATOM      1  O   UNL     1     -62.820 -69.145  34.615  0.00  0.00    +0.000 OA
ATOM      2  O   UNL     1     -64.267 -65.366  35.169  0.00  0.00    +0.000 OA
ATOM      3  O   UNL     1     -64.860 -65.361  32.936  0.00  0.00    +0.000 OA
ATOM      4  C   UNL     1     -63.820 -67.297  33.782  0.00  0.00    +0.000 A 
ATOM      5  C   UNL     1     -63.273 -67.902  34.884  0.00  0.00    +0.000 A 
ATOM      6  C   UNL     1     -63.703 -68.236  32.727  0.00  0.00    +0.000 A 
ATOM      7  C   UNL     1     -63.172 -67.322  36.189  0.00  0.00    +0.000 A 
ATOM      8  C   UNL     1     -63.082 -69.356  33.289  0.00  0.00    +0.000 A 
ATOM      9  C   UNL     1     -63.690 -66.023  36.300  0.00  0.00    +0.000 A 
ATOM     10  C   UNL     1     -64.358 -65.959  33.880  0.00  0.00    +0.000 A 
ATOM     11  C   UNL     1     -64.048 -68.271  31.366  0.00  0.00    +0.000 A 
ATOM     12  C   UNL     1     -62.616 -67.946  37.298  0.00  0.00    +0.000 A 
ATOM     13  C   UNL     1     -62.777 -70.521  32.586  0.00  0.00    +0.000 A 
ATOM     14  C   UNL     1     -63.663 -65.332  37.505  0.00  0.00    +0.000 A 
ATOM     15  C   UNL     1     -63.756 -69.424  30.631  0.00  0.00    +0.000 A 
ATOM     16  C   UNL     1     -63.136 -70.515  31.236  0.00  0.00    +0.000 A 
ATOM     17  C   UNL     1     -62.582 -67.264  38.514  0.00  0.00    +0.000 A 
ATOM     18  C   UNL     1     -63.103 -65.970  38.606  0.00  0.00    +0.000 A 
ENDROOT
BRANCH  16  19
ATOM     19  O   UNL     1     -62.880 -71.612  30.457  0.00  0.00    +0.000 OA
ATOM     20  H   UNL     1     -61.917 -71.699  30.357  0.00  0.00    +0.000 HD
ENDBRANCH  16  19
BRANCH  18  21
ATOM     21  O   UNL     1     -63.073 -65.296  39.795  0.00  0.00    +0.000 OA
ATOM     22  H   UNL     1     -62.326 -65.632  40.320  0.00  0.00    +0.000 HD
ENDBRANCH  18  21
TORSDOF 2
ENDMDL
MODEL 2
REMARK VINA RESULT:      -7.7      0.868      6.162
REMARK  Name = COUMESTROL.pdbqt.pdb
REMARK  2 active torsions:
REMARK  status: ('A' for Active; 'I' for Inactive)
REMARK    1  A    between atoms: C_16  and  O_19
REMARK    2  A    between atoms: C_18  and  O_21
REMARK                            x       y       z     vdW  Elec       q    Type
REMARK                         _______ _______ _______ _____ _____    ______ ____
ROOT
ATOM      1  O   UNL     1     -62.781 -68.729  35.306  0.00  0.00    +0.000 OA
ATOM      2  O   UNL     1     -64.425 -67.049  31.966  0.00  0.00    +0.000 OA
ATOM      3  O   UNL     1     -64.909 -65.188  33.248  0.00  0.00    +0.000 OA
ATOM      4  C   UNL     1     -63.823 -66.988  34.308  0.00  0.00    +0.000 A 
ATOM      5  C   UNL     1     -63.304 -68.248  34.157  0.00  0.00    +0.000 A 
ATOM      6  C   UNL     1     -63.612 -66.643  35.667  0.00  0.00    +0.000 A 
ATOM      7  C   UNL     1     -63.293 -69.005  32.942  0.00  0.00    +0.000 A 
ATOM      8  C   UNL     1     -62.969 -67.745  36.239  0.00  0.00    +0.000 A 
ATOM      9  C   UNL     1     -63.875 -68.362  31.840  0.00  0.00    +0.000 A 
ATOM     10  C   UNL     1     -64.426 -66.312  33.183  0.00  0.00    +0.000 A 
ATOM     11  C   UNL     1     -63.889 -65.531  36.478  0.00  0.00    +0.000 A 
ATOM     12  C   UNL     1     -62.763 -70.281  32.802  0.00  0.00    +0.000 A 
ATOM     13  C   UNL     1     -62.576 -67.821  37.575  0.00  0.00    +0.000 A 
ATOM     14  C   UNL     1     -63.938 -68.972  30.594  0.00  0.00    +0.000 A 
ATOM     15  C   UNL     1     -63.510 -65.573  37.823  0.00  0.00    +0.000 A 
ATOM     16  C   UNL     1     -62.870 -66.694  38.347  0.00  0.00    +0.000 A 
ATOM     17  C   UNL     1     -62.819 -70.906  31.557  0.00  0.00    +0.000 A 
ATOM     18  C   UNL     1     -63.403 -70.250  30.469  0.00  0.00    +0.000 A 
ENDROOT
BRANCH  16  19
ATOM     19  O   UNL     1     -62.527 -66.667  39.672  0.00  0.00    +0.000 OA
ATOM     20  H   UNL     1     -63.246 -66.238  40.167  0.00  0.00    +0.000 HD
ENDBRANCH  16  19
BRANCH  18  21
ATOM     21  O   UNL     1     -63.461 -70.857  29.247  0.00  0.00    +0.000 OA
ATOM     22  H   UNL     1     -63.362 -70.174  28.560  0.00  0.00    +0.000 HD
ENDBRANCH  18  21
TORSDOF 2
ENDMDL
MODEL 3
REMARK VINA RESULT:      -7.5     38.836     40.220
REMARK  Name = COUMESTROL.pdbqt.pdb
REMARK  2 active torsions:
REMARK  status: ('A' for Active; 'I' for Inactive)
REMARK    1  A    between atoms: C_16  and  O_19
REMARK    2  A    between atoms: C_18  and  O_21
REMARK                            x       y       z     vdW  Elec       q    Type
REMARK                         _______ _______ _______ _____ _____    ______ ____
ROOT
ATOM      1  O   UNL     1     -35.353 -47.900  52.691  0.00  0.00    +0.000 OA
ATOM      2  O   UNL     1     -33.177 -44.645  51.526  0.00  0.00    +0.000 OA
ATOM      3  O   UNL     1     -31.271 -45.889  51.923  0.00  0.00    +0.000 OA
ATOM      4  C   UNL     1     -33.348 -46.925  52.318  0.00  0.00    +0.000 A 
ATOM      5  C   UNL     1     -34.710 -46.781  52.292  0.00  0.00    +0.000 A 
ATOM      6  C   UNL     1     -33.107 -48.246  52.771  0.00  0.00    +0.000 A 
ATOM      7  C   UNL     1     -35.416 -45.600  51.896  0.00  0.00    +0.000 A 
ATOM      8  C   UNL     1     -34.370 -48.805  52.987  0.00  0.00    +0.000 A 
ATOM      9  C   UNL     1     -34.601 -44.526  51.509  0.00  0.00    +0.000 A 
ATOM     10  C   UNL     1     -32.494 -45.828  51.923  0.00  0.00    +0.000 A 
ATOM     11  C   UNL     1     -31.972 -49.033  53.024  0.00  0.00    +0.000 A 
ATOM     12  C   UNL     1     -36.799 -45.466  51.874  0.00  0.00    +0.000 A 
ATOM     13  C   UNL     1     -34.588 -50.105  53.441  0.00  0.00    +0.000 A 
ATOM     14  C   UNL     1     -35.144 -43.314  51.100  0.00  0.00    +0.000 A 
ATOM     15  C   UNL     1     -32.153 -50.342  53.480  0.00  0.00    +0.000 A 
ATOM     16  C   UNL     1     -33.433 -50.854  53.680  0.00  0.00    +0.000 A 
ATOM     17  C   UNL     1     -37.357 -44.256  51.465  0.00  0.00    +0.000 A 
ATOM     18  C   UNL     1     -36.530 -43.196  51.083  0.00  0.00    +0.000 A 
ENDROOT
BRANCH  16  19
ATOM     19  O   UNL     1     -33.537 -52.144  54.128  0.00  0.00    +0.000 OA
ATOM     20  H   UNL     1     -34.357 -52.224  54.646  0.00  0.00    +0.000 HD
ENDBRANCH  16  19
BRANCH  18  21
ATOM     21  O   UNL     1     -37.070 -42.007  50.681  0.00  0.00    +0.000 OA
ATOM     22  H   UNL     1     -37.983 -41.957  51.013  0.00  0.00    +0.000 HD
ENDBRANCH  18  21
TORSDOF 2
ENDMDL
MODEL 4
REMARK VINA RESULT:      -6.8     38.802     40.958
REMARK  Name = COUMESTROL.pdbqt.pdb
REMARK  2 active torsions:
REMARK  status: ('A' for Active; 'I' for Inactive)
REMARK    1  A    between atoms: C_16  and  O_19
REMARK    2  A    between atoms: C_18  and  O_21
REMARK                            x       y       z     vdW  Elec       q    Type
REMARK                         _______ _______ _______ _____ _____    ______ ____
ROOT
ATOM      1  O   UNL     1     -31.957 -47.164  52.789  0.00  0.00    +0.000 OA
ATOM      2  O   UNL     1     -33.557 -50.837  53.586  0.00  0.00    +0.000 OA
ATOM      3  O   UNL     1     -35.644 -49.901  53.256  0.00  0.00    +0.000 OA
ATOM      4  C   UNL     1     -33.770 -48.495  53.015  0.00  0.00    +0.000 A 
ATOM      5  C   UNL     1     -32.403 -48.409  53.064  0.00  0.00    +0.000 A 
ATOM      6  C   UNL     1     -34.228 -47.196  52.681  0.00  0.00    +0.000 A 
ATOM      7  C   UNL     1     -31.510 -49.486  53.368  0.00  0.00    +0.000 A 
ATOM      8  C   UNL     1     -33.077 -46.413  52.553  0.00  0.00    +0.000 A 
ATOM      9  C   UNL     1     -32.133 -50.715  53.630  0.00  0.00    +0.000 A 
ATOM     10  C   UNL     1     -34.428 -49.754  53.283  0.00  0.00    +0.000 A 
ATOM     11  C   UNL     1     -35.479 -46.592  52.473  0.00  0.00    +0.000 A 
ATOM     12  C   UNL     1     -30.125 -49.385  53.414  0.00  0.00    +0.000 A 
ATOM     13  C   UNL     1     -33.080 -45.057  52.228  0.00  0.00    +0.000 A 
ATOM     14  C   UNL     1     -31.396 -51.851  53.939  0.00  0.00    +0.000 A 
ATOM     15  C   UNL     1     -35.519 -45.233  52.146  0.00  0.00    +0.000 A 
ATOM     16  C   UNL     1     -34.343 -44.495  52.029  0.00  0.00    +0.000 A 
ATOM     17  C   UNL     1     -29.373 -50.517  53.723  0.00  0.00    +0.000 A 
ATOM     18  C   UNL     1     -30.011 -51.734  53.982  0.00  0.00    +0.000 A 
ENDROOT
BRANCH  16  19
ATOM     19  O   UNL     1     -34.457 -43.169  51.706  0.00  0.00    +0.000 OA
ATOM     20  H   UNL     1     -35.365 -43.005  51.399  0.00  0.00    +0.000 HD
ENDBRANCH  16  19
BRANCH  18  21
ATOM     21  O   UNL     1     -29.280 -52.847  54.286  0.00  0.00    +0.000 OA
ATOM     22  H   UNL     1     -28.362 -52.701  53.996  0.00  0.00    +0.000 HD
ENDBRANCH  18  21
TORSDOF 2
ENDMDL
MODEL 5
REMARK VINA RESULT:      -6.8     38.581     41.429
REMARK  Name = COUMESTROL.pdbqt.pdb
REMARK  2 active torsions:
REMARK  status: ('A' for Active; 'I' for Inactive)
REMARK    1  A    between atoms: C_16  and  O_19
REMARK    2  A    between atoms: C_18  and  O_21
REMARK                            x       y       z     vdW  Elec       q    Type
REMARK                         _______ _______ _______ _____ _____    ______ ____
ROOT
ATOM      1  O   UNL     1     -31.452 -46.824  53.231  0.00  0.00    +0.000 OA
ATOM      2  O   UNL     1     -35.068 -48.650  52.710  0.00  0.00    +0.000 OA
ATOM      3  O   UNL     1     -35.999 -46.546  52.497  0.00  0.00    +0.000 OA
ATOM      4  C   UNL     1     -33.679 -46.676  52.871  0.00  0.00    +0.000 A 
ATOM      5  C   UNL     1     -32.606 -47.506  53.068  0.00  0.00    +0.000 A 
ATOM      6  C   UNL     1     -33.160 -45.358  52.913  0.00  0.00    +0.000 A 
ATOM      7  C   UNL     1     -32.655 -48.937  53.104  0.00  0.00    +0.000 A 
ATOM      8  C   UNL     1     -31.788 -45.501  53.137  0.00  0.00    +0.000 A 
ATOM      9  C   UNL     1     -33.930 -49.490  52.917  0.00  0.00    +0.000 A 
ATOM     10  C   UNL     1     -34.999 -47.230  52.677  0.00  0.00    +0.000 A 
ATOM     11  C   UNL     1     -33.690 -44.063  52.789  0.00  0.00    +0.000 A 
ATOM     12  C   UNL     1     -31.559 -49.767  53.304  0.00  0.00    +0.000 A 
ATOM     13  C   UNL     1     -30.893 -44.437  53.246  0.00  0.00    +0.000 A 
ATOM     14  C   UNL     1     -34.134 -50.864  52.927  0.00  0.00    +0.000 A 
ATOM     15  C   UNL     1     -32.821 -42.972  52.894  0.00  0.00    +0.000 A 
ATOM     16  C   UNL     1     -31.460 -43.166  53.117  0.00  0.00    +0.000 A 
ATOM     17  C   UNL     1     -31.749 -51.149  53.316  0.00  0.00    +0.000 A 
ATOM     18  C   UNL     1     -33.027 -51.682  53.129  0.00  0.00    +0.000 A 
ENDROOT
BRANCH  16  19
ATOM     19  O   UNL     1     -30.667 -42.053  53.209  0.00  0.00    +0.000 OA
ATOM     20  H   UNL     1     -30.213 -41.928  52.358  0.00  0.00    +0.000 HD
ENDBRANCH  16  19
BRANCH  18  21
ATOM     21  O   UNL     1     -33.220 -53.035  53.139  0.00  0.00    +0.000 OA
ATOM     22  H   UNL     1     -33.310 -53.325  54.064  0.00  0.00    +0.000 HD
ENDBRANCH  18  21
TORSDOF 2
ENDMDL
MODEL 6
REMARK VINA RESULT:      -6.4     27.239     28.815
REMARK  Name = COUMESTROL.pdbqt.pdb
REMARK  2 active torsions:
REMARK  status: ('A' for Active; 'I' for Inactive)
REMARK    1  A    between atoms: C_16  and  O_19
REMARK    2  A    between atoms: C_18  and  O_21
REMARK                            x       y       z     vdW  Elec       q    Type
REMARK                         _______ _______ _______ _____ _____    ______ ____
ROOT
ATOM      1  O   UNL     1     -51.501 -41.766  37.735  0.00  0.00    +0.000 OA
ATOM      2  O   UNL     1     -55.542 -41.706  38.323  0.00  0.00    +0.000 OA
ATOM      3  O   UNL     1     -55.122 -41.730  40.595  0.00  0.00    +0.000 OA
ATOM      4  C   UNL     1     -53.267 -41.749  39.145  0.00  0.00    +0.000 A 
ATOM      5  C   UNL     1     -52.847 -41.745  37.841  0.00  0.00    +0.000 A 
ATOM      6  C   UNL     1     -52.088 -41.773  39.931  0.00  0.00    +0.000 A 
ATOM      7  C   UNL     1     -53.699 -41.723  36.690  0.00  0.00    +0.000 A 
ATOM      8  C   UNL     1     -51.029 -41.783  39.019  0.00  0.00    +0.000 A 
ATOM      9  C   UNL     1     -55.073 -41.704  36.972  0.00  0.00    +0.000 A 
ATOM     10  C   UNL     1     -54.679 -41.729  39.453  0.00  0.00    +0.000 A 
ATOM     11  C   UNL     1     -51.794 -41.788  41.304  0.00  0.00    +0.000 A 
ATOM     12  C   UNL     1     -53.260 -41.720  35.372  0.00  0.00    +0.000 A 
ATOM     13  C   UNL     1     -49.682 -41.807  39.378  0.00  0.00    +0.000 A 
ATOM     14  C   UNL     1     -56.022 -41.681  35.958  0.00  0.00    +0.000 A 
ATOM     15  C   UNL     1     -50.453 -41.813  41.700  0.00  0.00    +0.000 A 
ATOM     16  C   UNL     1     -49.432 -41.822  40.752  0.00  0.00    +0.000 A 
ATOM     17  C   UNL     1     -54.202 -41.698  34.344  0.00  0.00    +0.000 A 
ATOM     18  C   UNL     1     -55.567 -41.678  34.644  0.00  0.00    +0.000 A 
ENDROOT
BRANCH  16  19
ATOM     19  O   UNL     1     -48.142 -41.846  41.211  0.00  0.00    +0.000 OA
ATOM     20  H   UNL     1     -47.764 -40.954  41.112  0.00  0.00    +0.000 HD
ENDBRANCH  16  19
BRANCH  18  21
ATOM     21  O   UNL     1     -56.495 -41.656  33.641  0.00  0.00    +0.000 OA
ATOM     22  H   UNL     1     -57.352 -41.934  34.009  0.00  0.00    +0.000 HD
ENDBRANCH  18  21
TORSDOF 2
ENDMDL
MODEL 7
REMARK VINA RESULT:      -6.3     16.512     16.733
REMARK  Name = COUMESTROL.pdbqt.pdb
REMARK  2 active torsions:
REMARK  status: ('A' for Active; 'I' for Inactive)
REMARK    1  A    between atoms: C_16  and  O_19
REMARK    2  A    between atoms: C_18  and  O_21
REMARK                            x       y       z     vdW  Elec       q    Type
REMARK                         _______ _______ _______ _____ _____    ______ ____
ROOT
ATOM      1  O   UNL     1     -48.124 -65.383  32.719  0.00  0.00    +0.000 OA
ATOM      2  O   UNL     1     -46.474 -61.919  31.320  0.00  0.00    +0.000 OA
ATOM      3  O   UNL     1     -45.865 -63.081  29.418  0.00  0.00    +0.000 OA
ATOM      4  C   UNL     1     -47.017 -64.266  31.095  0.00  0.00    +0.000 A 
ATOM      5  C   UNL     1     -47.604 -64.198  32.332  0.00  0.00    +0.000 A 
ATOM      6  C   UNL     1     -47.178 -65.606  30.663  0.00  0.00    +0.000 A 
ATOM      7  C   UNL     1     -47.682 -63.029  33.155  0.00  0.00    +0.000 A 
ATOM      8  C   UNL     1     -47.864 -66.253  31.695  0.00  0.00    +0.000 A 
ATOM      9  C   UNL     1     -47.094 -61.880  32.607  0.00  0.00    +0.000 A 
ATOM     10  C   UNL     1     -46.406 -63.091  30.517  0.00  0.00    +0.000 A 
ATOM     11  C   UNL     1     -46.825 -66.346  29.523  0.00  0.00    +0.000 A 
ATOM     12  C   UNL     1     -48.281 -62.974  34.407  0.00  0.00    +0.000 A 
ATOM     13  C   UNL     1     -48.229 -67.599  31.674  0.00  0.00    +0.000 A 
ATOM     14  C   UNL     1     -47.092 -60.670  33.290  0.00  0.00    +0.000 A 
ATOM     15  C   UNL     1     -47.175 -67.698  29.469  0.00  0.00    +0.000 A 
ATOM     16  C   UNL     1     -47.859 -68.299  30.523  0.00  0.00    +0.000 A 
ATOM     17  C   UNL     1     -48.286 -61.766  35.104  0.00  0.00    +0.000 A 
ATOM     18  C   UNL     1     -47.695 -60.631  34.542  0.00  0.00    +0.000 A 
ENDROOT
BRANCH  16  19
ATOM     19  O   UNL     1     -48.170 -69.627  30.403  0.00  0.00    +0.000 OA
ATOM     20  H   UNL     1     -47.572 -70.024  29.746  0.00  0.00    +0.000 HD
ENDBRANCH  16  19
BRANCH  18  21
ATOM     21  O   UNL     1     -47.696 -59.444  35.219  0.00  0.00    +0.000 OA
ATOM     22  H   UNL     1     -48.257 -58.813  34.734  0.00  0.00    +0.000 HD
ENDBRANCH  18  21
TORSDOF 2
ENDMDL
MODEL 8
REMARK VINA RESULT:      -6.2      4.288      9.085
REMARK  Name = COUMESTROL.pdbqt.pdb
REMARK  2 active torsions:
REMARK  status: ('A' for Active; 'I' for Inactive)
REMARK    1  A    between atoms: C_16  and  O_19
REMARK    2  A    between atoms: C_18  and  O_21
REMARK                            x       y       z     vdW  Elec       q    Type
REMARK                         _______ _______ _______ _____ _____    ______ ____
ROOT
ATOM      1  O   UNL     1     -64.726 -70.275  29.671  0.00  0.00    +0.000 OA
ATOM      2  O   UNL     1     -67.736 -72.999  29.225  0.00  0.00    +0.000 OA
ATOM      3  O   UNL     1     -67.370 -73.630  31.417  0.00  0.00    +0.000 OA
ATOM      4  C   UNL     1     -66.015 -71.917  30.537  0.00  0.00    +0.000 A 
ATOM      5  C   UNL     1     -65.731 -71.147  29.439  0.00  0.00    +0.000 A 
ATOM      6  C   UNL     1     -65.115 -71.497  31.548  0.00  0.00    +0.000 A 
ATOM      7  C   UNL     1     -66.395 -71.223  28.173  0.00  0.00    +0.000 A 
ATOM      8  C   UNL     1     -64.343 -70.486  30.967  0.00  0.00    +0.000 A 
ATOM      9  C   UNL     1     -67.416 -72.181  28.097  0.00  0.00    +0.000 A 
ATOM     10  C   UNL     1     -67.064 -72.909  30.475  0.00  0.00    +0.000 A 
ATOM     11  C   UNL     1     -64.863 -71.853  32.882  0.00  0.00    +0.000 A 
ATOM     12  C   UNL     1     -66.097 -70.436  27.068  0.00  0.00    +0.000 A 
ATOM     13  C   UNL     1     -63.327 -69.796  31.627  0.00  0.00    +0.000 A 
ATOM     14  C   UNL     1     -68.149 -72.370  26.932  0.00  0.00    +0.000 A 
ATOM     15  C   UNL     1     -63.851 -71.180  33.574  0.00  0.00    +0.000 A 
ATOM     16  C   UNL     1     -63.108 -70.179  32.952  0.00  0.00    +0.000 A 
ATOM     17  C   UNL     1     -66.825 -70.614  25.892  0.00  0.00    +0.000 A 
ATOM     18  C   UNL     1     -67.839 -71.574  25.835  0.00  0.00    +0.000 A 
ENDROOT
BRANCH  16  19
ATOM     19  O   UNL     1     -62.133 -69.563  33.689  0.00  0.00    +0.000 OA
ATOM     20  H   UNL     1     -61.304 -70.061  33.579  0.00  0.00    +0.000 HD
ENDBRANCH  16  19
BRANCH  18  21
ATOM     21  O   UNL     1     -68.556 -71.754  24.686  0.00  0.00    +0.000 OA
ATOM     22  H   UNL     1     -68.864 -70.885  24.376  0.00  0.00    +0.000 HD
ENDBRANCH  18  21
TORSDOF 2
ENDMDL
MODEL 9
REMARK VINA RESULT:      -6.1     27.221     28.677
REMARK  Name = COUMESTROL.pdbqt.pdb
REMARK  2 active torsions:
REMARK  status: ('A' for Active; 'I' for Inactive)
REMARK    1  A    between atoms: C_16  and  O_19
REMARK    2  A    between atoms: C_18  and  O_21
REMARK                            x       y       z     vdW  Elec       q    Type
REMARK                         _______ _______ _______ _____ _____    ______ ____
ROOT
ATOM      1  O   UNL     1     -52.207 -41.580  36.879  0.00  0.00    +0.000 OA
ATOM      2  O   UNL     1     -52.578 -41.771  40.942  0.00  0.00    +0.000 OA
ATOM      3  O   UNL     1     -54.867 -41.866  40.639  0.00  0.00    +0.000 OA
ATOM      4  C   UNL     1     -53.520 -41.720  38.714  0.00  0.00    +0.000 A 
ATOM      5  C   UNL     1     -52.241 -41.640  38.227  0.00  0.00    +0.000 A 
ATOM      6  C   UNL     1     -54.367 -41.712  37.578  0.00  0.00    +0.000 A 
ATOM      7  C   UNL     1     -51.048 -41.617  39.019  0.00  0.00    +0.000 A 
ATOM      8  C   UNL     1     -53.514 -41.624  36.473  0.00  0.00    +0.000 A 
ATOM      9  C   UNL     1     -51.256 -41.686  40.404  0.00  0.00    +0.000 A 
ATOM     10  C   UNL     1     -53.751 -41.792  40.138  0.00  0.00    +0.000 A 
ATOM     11  C   UNL     1     -55.752 -41.767  37.354  0.00  0.00    +0.000 A 
ATOM     12  C   UNL     1     -49.757 -41.535  38.513  0.00  0.00    +0.000 A 
ATOM     13  C   UNL     1     -53.944 -41.588  35.148  0.00  0.00    +0.000 A 
ATOM     14  C   UNL     1     -50.194 -41.675  41.299  0.00  0.00    +0.000 A 
ATOM     15  C   UNL     1     -56.219 -41.733  36.036  0.00  0.00    +0.000 A 
ATOM     16  C   UNL     1     -55.328 -41.645  34.968  0.00  0.00    +0.000 A 
ATOM     17  C   UNL     1     -48.681 -41.523  39.400  0.00  0.00    +0.000 A 
ATOM     18  C   UNL     1     -48.907 -41.592  40.778  0.00  0.00    +0.000 A 
ENDROOT
BRANCH  16  19
ATOM     19  O   UNL     1     -55.854 -41.616  33.705  0.00  0.00    +0.000 OA
ATOM     20  H   UNL     1     -55.142 -41.809  33.071  0.00  0.00    +0.000 HD
ENDBRANCH  16  19
BRANCH  18  21
ATOM     21  O   UNL     1     -47.858 -41.580  41.652  0.00  0.00    +0.000 OA
ATOM     22  H   UNL     1     -47.643 -40.655  41.862  0.00  0.00    +0.000 HD
ENDBRANCH  18  21
TORSDOF 2
ENDMDL
