MODEL 1
REMARK VINA RESULT:      -8.7      0.000      0.000
REMARK  Name = CP466722.pdbqt.pdb
REMARK  3 active torsions:
REMARK  status: ('A' for Active; 'I' for Inactive)
REMARK    1  A    between atoms: C_5  and  C_23
REMARK    2  A    between atoms: C_14  and  O_16
REMARK    3  A    between atoms: C_15  and  O_18
REMARK                            x       y       z     vdW  Elec       q    Type
REMARK                         _______ _______ _______ _____ _____    ______ ____
ROOT
ATOM      1  N   UNL     1     -46.705 -61.767  43.292  0.00  0.00    +0.000 N 
ATOM      2  N   UNL     1     -46.588 -61.365  42.005  0.00  0.00    +0.000 NA
ATOM      3  N   UNL     1     -44.955 -62.869  42.509  0.00  0.00    +0.000 NA
ATOM      4  C   UNL     1     -45.701 -62.699  43.570  0.00  0.00    +0.000 A 
ATOM      5  C   UNL     1     -45.521 -62.047  41.563  0.00  0.00    +0.000 A 
ATOM      6  C   UNL     1     -47.698 -61.247  44.188  0.00  0.00    +0.000 A 
ATOM      7  N   UNL     1     -47.617 -61.638  45.488  0.00  0.00    +0.000 NA
ATOM      8  C   UNL     1     -48.530 -61.134  46.325  0.00  0.00    +0.000 A 
ATOM      9  N   UNL     1     -49.501 -60.280  45.991  0.00  0.00    +0.000 NA
ATOM     10  C   UNL     1     -49.576 -59.900  44.714  0.00  0.00    +0.000 A 
ATOM     11  C   UNL     1     -48.693 -60.360  43.729  0.00  0.00    +0.000 A 
ATOM     12  C   UNL     1     -50.576 -59.005  44.358  0.00  0.00    +0.000 A 
ATOM     13  C   UNL     1     -48.883 -59.919  42.398  0.00  0.00    +0.000 A 
ATOM     14  C   UNL     1     -49.911 -59.052  42.045  0.00  0.00    +0.000 A 
ATOM     15  C   UNL     1     -50.731 -58.547  43.047  0.00  0.00    +0.000 A 
ATOM     16  N   UNL     1     -45.539 -63.327  44.750  0.00  0.00    +0.000 N 
ATOM     17  H   UNL     1     -44.655 -63.794  44.927  0.00  0.00    +0.000 HD
ATOM     18  H   UNL     1     -46.018 -62.973  45.577  0.00  0.00    +0.000 HD
ENDROOT
BRANCH   5  19
ATOM     19  C   UNL     1     -44.984 -61.940  40.203  0.00  0.00    +0.000 A 
ATOM     20  N   UNL     1     -45.692 -62.511  39.189  0.00  0.00    +0.000 NA
ATOM     21  C   UNL     1     -45.175 -62.399  37.946  0.00  0.00    +0.000 A 
ATOM     22  C   UNL     1     -43.991 -61.747  37.652  0.00  0.00    +0.000 A 
ATOM     23  C   UNL     1     -43.293 -61.171  38.705  0.00  0.00    +0.000 A 
ATOM     24  C   UNL     1     -43.787 -61.264  40.000  0.00  0.00    +0.000 A 
ENDBRANCH   5  19
BRANCH  14  25
ATOM     25  O   UNL     1     -50.010 -58.658  40.739  0.00  0.00    +0.000 OA
ATOM     26  C   UNL     1     -49.798 -59.749  39.879  0.00  0.00    +0.000 C 
ENDBRANCH  14  25
BRANCH  15  27
ATOM     27  O   UNL     1     -51.745 -57.675  42.757  0.00  0.00    +0.000 OA
ATOM     28  C   UNL     1     -52.923 -58.383  42.458  0.00  0.00    +0.000 C 
ENDBRANCH  15  27
TORSDOF 3
ENDMDL
MODEL 2
REMARK VINA RESULT:      -7.7      2.635      6.535
REMARK  Name = CP466722.pdbqt.pdb
REMARK  3 active torsions:
REMARK  status: ('A' for Active; 'I' for Inactive)
REMARK    1  A    between atoms: C_5  and  C_23
REMARK    2  A    between atoms: C_14  and  O_16
REMARK    3  A    between atoms: C_15  and  O_18
REMARK                            x       y       z     vdW  Elec       q    Type
REMARK                         _______ _______ _______ _____ _____    ______ ____
ROOT
ATOM      1  N   UNL     1     -48.311 -61.021  43.756  0.00  0.00    +0.000 N 
ATOM      2  N   UNL     1     -49.169 -60.827  42.727  0.00  0.00    +0.000 NA
ATOM      3  N   UNL     1     -49.911 -59.739  44.584  0.00  0.00    +0.000 NA
ATOM      4  C   UNL     1     -48.782 -60.332  44.876  0.00  0.00    +0.000 A 
ATOM      5  C   UNL     1     -50.124 -60.052  43.261  0.00  0.00    +0.000 A 
ATOM      6  C   UNL     1     -47.143 -61.850  43.656  0.00  0.00    +0.000 A 
ATOM      7  N   UNL     1     -46.444 -62.065  44.802  0.00  0.00    +0.000 NA
ATOM      8  C   UNL     1     -45.370 -62.856  44.711  0.00  0.00    +0.000 A 
ATOM      9  N   UNL     1     -44.938 -63.453  43.597  0.00  0.00    +0.000 NA
ATOM     10  C   UNL     1     -45.627 -63.237  42.475  0.00  0.00    +0.000 A 
ATOM     11  C   UNL     1     -46.765 -62.420  42.425  0.00  0.00    +0.000 A 
ATOM     12  C   UNL     1     -45.193 -63.860  41.313  0.00  0.00    +0.000 A 
ATOM     13  C   UNL     1     -47.401 -62.234  41.174  0.00  0.00    +0.000 A 
ATOM     14  C   UNL     1     -46.935 -62.833  40.010  0.00  0.00    +0.000 A 
ATOM     15  C   UNL     1     -45.851 -63.698  40.092  0.00  0.00    +0.000 A 
ATOM     16  N   UNL     1     -48.158 -60.283  46.069  0.00  0.00    +0.000 N 
ATOM     17  H   UNL     1     -48.688 -59.965  46.873  0.00  0.00    +0.000 HD
ATOM     18  H   UNL     1     -47.412 -60.947  46.273  0.00  0.00    +0.000 HD
ENDROOT
BRANCH   5  19
ATOM     19  C   UNL     1     -51.299 -59.573  42.527  0.00  0.00    +0.000 A 
ATOM     20  N   UNL     1     -52.465 -59.424  43.215  0.00  0.00    +0.000 NA
ATOM     21  C   UNL     1     -53.534 -58.983  42.516  0.00  0.00    +0.000 A 
ATOM     22  C   UNL     1     -53.508 -58.678  41.167  0.00  0.00    +0.000 A 
ATOM     23  C   UNL     1     -52.304 -58.837  40.492  0.00  0.00    +0.000 A 
ATOM     24  C   UNL     1     -51.181 -59.290  41.172  0.00  0.00    +0.000 A 
ENDBRANCH   5  19
BRANCH  14  25
ATOM     25  O   UNL     1     -47.624 -62.617  38.847  0.00  0.00    +0.000 OA
ATOM     26  C   UNL     1     -46.860 -61.839  37.960  0.00  0.00    +0.000 C 
ENDBRANCH  14  25
BRANCH  15  27
ATOM     27  O   UNL     1     -45.365 -64.329  38.979  0.00  0.00    +0.000 OA
ATOM     28  C   UNL     1     -45.774 -65.674  38.965  0.00  0.00    +0.000 C 
ENDBRANCH  15  27
TORSDOF 3
ENDMDL
MODEL 3
REMARK VINA RESULT:      -7.7      2.683      6.695
REMARK  Name = CP466722.pdbqt.pdb
REMARK  3 active torsions:
REMARK  status: ('A' for Active; 'I' for Inactive)
REMARK    1  A    between atoms: C_5  and  C_23
REMARK    2  A    between atoms: C_14  and  O_16
REMARK    3  A    between atoms: C_15  and  O_18
REMARK                            x       y       z     vdW  Elec       q    Type
REMARK                         _______ _______ _______ _____ _____    ______ ____
ROOT
ATOM      1  N   UNL     1     -46.619 -62.111  42.094  0.00  0.00    +0.000 N 
ATOM      2  N   UNL     1     -47.627 -61.361  41.589  0.00  0.00    +0.000 NA
ATOM      3  N   UNL     1     -47.386 -60.957  43.817  0.00  0.00    +0.000 NA
ATOM      4  C   UNL     1     -46.484 -61.833  43.456  0.00  0.00    +0.000 A 
ATOM      5  C   UNL     1     -48.069 -60.679  42.656  0.00  0.00    +0.000 A 
ATOM      6  C   UNL     1     -45.875 -63.053  41.306  0.00  0.00    +0.000 A 
ATOM      7  N   UNL     1     -44.983 -63.836  41.969  0.00  0.00    +0.000 NA
ATOM      8  C   UNL     1     -44.308 -64.729  41.238  0.00  0.00    +0.000 A 
ATOM      9  N   UNL     1     -44.445 -64.917  39.922  0.00  0.00    +0.000 NA
ATOM     10  C   UNL     1     -45.322 -64.146  39.277  0.00  0.00    +0.000 A 
ATOM     11  C   UNL     1     -46.087 -63.161  39.918  0.00  0.00    +0.000 A 
ATOM     12  C   UNL     1     -45.480 -64.339  37.912  0.00  0.00    +0.000 A 
ATOM     13  C   UNL     1     -46.964 -62.377  39.132  0.00  0.00    +0.000 A 
ATOM     14  C   UNL     1     -47.086 -62.554  37.758  0.00  0.00    +0.000 A 
ATOM     15  C   UNL     1     -46.376 -63.584  37.153  0.00  0.00    +0.000 A 
ATOM     16  N   UNL     1     -45.557 -62.382  44.266  0.00  0.00    +0.000 N 
ATOM     17  H   UNL     1     -45.691 -62.303  45.268  0.00  0.00    +0.000 HD
ATOM     18  H   UNL     1     -45.048 -63.210  43.957  0.00  0.00    +0.000 HD
ENDROOT
BRANCH   5  19
ATOM     19  C   UNL     1     -49.181 -59.724  42.617  0.00  0.00    +0.000 A 
ATOM     20  N   UNL     1     -50.287 -60.000  43.361  0.00  0.00    +0.000 NA
ATOM     21  C   UNL     1     -51.298 -59.105  43.308  0.00  0.00    +0.000 A 
ATOM     22  C   UNL     1     -51.270 -57.945  42.555  0.00  0.00    +0.000 A 
ATOM     23  C   UNL     1     -50.127 -57.688  41.808  0.00  0.00    +0.000 A 
ATOM     24  C   UNL     1     -49.064 -58.582  41.833  0.00  0.00    +0.000 A 
ENDBRANCH   5  19
BRANCH  14  25
ATOM     25  O   UNL     1     -47.975 -61.766  37.078  0.00  0.00    +0.000 OA
ATOM     26  C   UNL     1     -48.999 -61.327  37.934  0.00  0.00    +0.000 C 
ENDBRANCH  14  25
BRANCH  15  27
ATOM     27  O   UNL     1     -46.477 -63.814  35.807  0.00  0.00    +0.000 OA
ATOM     28  C   UNL     1     -45.377 -63.250  35.136  0.00  0.00    +0.000 C 
ENDBRANCH  15  27
TORSDOF 3
ENDMDL
MODEL 4
REMARK VINA RESULT:      -7.0     19.624     21.631
REMARK  Name = CP466722.pdbqt.pdb
REMARK  3 active torsions:
REMARK  status: ('A' for Active; 'I' for Inactive)
REMARK    1  A    between atoms: C_5  and  C_23
REMARK    2  A    between atoms: C_14  and  O_16
REMARK    3  A    between atoms: C_15  and  O_18
REMARK                            x       y       z     vdW  Elec       q    Type
REMARK                         _______ _______ _______ _____ _____    ______ ____
ROOT
ATOM      1  N   UNL     1     -55.228 -41.393  38.247  0.00  0.00    +0.000 N 
ATOM      2  N   UNL     1     -53.885 -41.562  38.245  0.00  0.00    +0.000 NA
ATOM      3  N   UNL     1     -54.652 -41.386  40.382  0.00  0.00    +0.000 NA
ATOM      4  C   UNL     1     -55.673 -41.303  39.568  0.00  0.00    +0.000 A 
ATOM      5  C   UNL     1     -53.569 -41.550  39.549  0.00  0.00    +0.000 A 
ATOM      6  C   UNL     1     -56.006 -41.290  37.045  0.00  0.00    +0.000 A 
ATOM      7  N   UNL     1     -57.323 -40.987  37.191  0.00  0.00    +0.000 NA
ATOM      8  C   UNL     1     -58.041 -40.868  36.069  0.00  0.00    +0.000 A 
ATOM      9  N   UNL     1     -57.569 -41.014  34.828  0.00  0.00    +0.000 NA
ATOM     10  C   UNL     1     -56.276 -41.312  34.691  0.00  0.00    +0.000 A 
ATOM     11  C   UNL     1     -55.412 -41.477  35.781  0.00  0.00    +0.000 A 
ATOM     12  C   UNL     1     -55.773 -41.456  33.405  0.00  0.00    +0.000 A 
ATOM     13  C   UNL     1     -54.065 -41.825  35.523  0.00  0.00    +0.000 A 
ATOM     14  C   UNL     1     -53.581 -42.004  34.232  0.00  0.00    +0.000 A 
ATOM     15  C   UNL     1     -54.433 -41.762  33.161  0.00  0.00    +0.000 A 
ATOM     16  N   UNL     1     -56.960 -41.160  39.940  0.00  0.00    +0.000 N 
ATOM     17  H   UNL     1     -57.154 -40.866  40.891  0.00  0.00    +0.000 HD
ATOM     18  H   UNL     1     -57.654 -40.882  39.247  0.00  0.00    +0.000 HD
ENDROOT
BRANCH   5  19
ATOM     19  C   UNL     1     -52.204 -41.691  40.064  0.00  0.00    +0.000 A 
ATOM     20  N   UNL     1     -51.176 -41.632  39.174  0.00  0.00    +0.000 NA
ATOM     21  C   UNL     1     -49.928 -41.765  39.674  0.00  0.00    +0.000 A 
ATOM     22  C   UNL     1     -49.643 -41.953  41.015  0.00  0.00    +0.000 A 
ATOM     23  C   UNL     1     -50.712 -42.007  41.900  0.00  0.00    +0.000 A 
ATOM     24  C   UNL     1     -52.012 -41.876  41.428  0.00  0.00    +0.000 A 
ENDBRANCH   5  19
BRANCH  14  25
ATOM     25  O   UNL     1     -52.259 -42.318  34.071  0.00  0.00    +0.000 OA
ATOM     26  C   UNL     1     -51.782 -43.026  35.188  0.00  0.00    +0.000 C 
ENDBRANCH  14  25
BRANCH  15  27
ATOM     27  O   UNL     1     -54.001 -41.905  31.870  0.00  0.00    +0.000 OA
ATOM     28  C   UNL     1     -55.064 -42.314  31.045  0.00  0.00    +0.000 C 
ENDBRANCH  15  27
TORSDOF 3
ENDMDL
MODEL 5
REMARK VINA RESULT:      -7.0     22.131     23.310
REMARK  Name = CP466722.pdbqt.pdb
REMARK  3 active torsions:
REMARK  status: ('A' for Active; 'I' for Inactive)
REMARK    1  A    between atoms: C_5  and  C_23
REMARK    2  A    between atoms: C_14  and  O_16
REMARK    3  A    between atoms: C_15  and  O_18
REMARK                            x       y       z     vdW  Elec       q    Type
REMARK                         _______ _______ _______ _____ _____    ______ ____
ROOT
ATOM      1  N   UNL     1     -31.336 -46.794  52.622  0.00  0.00    +0.000 N 
ATOM      2  N   UNL     1     -32.663 -46.914  52.387  0.00  0.00    +0.000 NA
ATOM      3  N   UNL     1     -31.967 -44.803  51.897  0.00  0.00    +0.000 NA
ATOM      4  C   UNL     1     -30.933 -45.496  52.299  0.00  0.00    +0.000 A 
ATOM      5  C   UNL     1     -33.013 -45.694  51.953  0.00  0.00    +0.000 A 
ATOM      6  C   UNL     1     -30.536 -47.859  53.157  0.00  0.00    +0.000 A 
ATOM      7  N   UNL     1     -29.247 -47.560  53.470  0.00  0.00    +0.000 NA
ATOM      8  C   UNL     1     -28.510 -48.547  53.990  0.00  0.00    +0.000 A 
ATOM      9  N   UNL     1     -28.938 -49.789  54.232  0.00  0.00    +0.000 NA
ATOM     10  C   UNL     1     -30.203 -50.077  53.923  0.00  0.00    +0.000 A 
ATOM     11  C   UNL     1     -31.082 -49.142  53.360  0.00  0.00    +0.000 A 
ATOM     12  C   UNL     1     -30.661 -51.362  54.179  0.00  0.00    +0.000 A 
ATOM     13  C   UNL     1     -32.395 -49.563  53.041  0.00  0.00    +0.000 A 
ATOM     14  C   UNL     1     -32.831 -50.863  53.267  0.00  0.00    +0.000 A 
ATOM     15  C   UNL     1     -31.970 -51.756  53.894  0.00  0.00    +0.000 A 
ATOM     16  N   UNL     1     -29.669 -45.037  52.385  0.00  0.00    +0.000 N 
ATOM     17  H   UNL     1     -29.521 -44.034  52.362  0.00  0.00    +0.000 HD
ATOM     18  H   UNL     1     -28.978 -45.568  52.914  0.00  0.00    +0.000 HD
ENDROOT
BRANCH   5  19
ATOM     19  C   UNL     1     -34.378 -45.318  51.574  0.00  0.00    +0.000 A 
ATOM     20  N   UNL     1     -34.537 -44.446  50.540  0.00  0.00    +0.000 NA
ATOM     21  C   UNL     1     -35.804 -44.114  50.210  0.00  0.00    +0.000 A 
ATOM     22  C   UNL     1     -36.928 -44.604  50.852  0.00  0.00    +0.000 A 
ATOM     23  C   UNL     1     -36.735 -45.494  51.901  0.00  0.00    +0.000 A 
ATOM     24  C   UNL     1     -35.449 -45.861  52.274  0.00  0.00    +0.000 A 
ENDBRANCH   5  19
BRANCH  14  25
ATOM     25  O   UNL     1     -34.123 -51.180  52.949  0.00  0.00    +0.000 OA
ATOM     26  C   UNL     1     -34.994 -50.149  53.342  0.00  0.00    +0.000 C 
ENDBRANCH  14  25
BRANCH  15  27
ATOM     27  O   UNL     1     -32.357 -53.042  54.158  0.00  0.00    +0.000 OA
ATOM     28  C   UNL     1     -32.027 -53.386  55.481  0.00  0.00    +0.000 C 
ENDBRANCH  15  27
TORSDOF 3
ENDMDL
MODEL 6
REMARK VINA RESULT:      -6.8      2.951      7.166
REMARK  Name = CP466722.pdbqt.pdb
REMARK  3 active torsions:
REMARK  status: ('A' for Active; 'I' for Inactive)
REMARK    1  A    between atoms: C_5  and  C_23
REMARK    2  A    between atoms: C_14  and  O_16
REMARK    3  A    between atoms: C_15  and  O_18
REMARK                            x       y       z     vdW  Elec       q    Type
REMARK                         _______ _______ _______ _____ _____    ______ ____
ROOT
ATOM      1  N   UNL     1     -45.187 -63.839  40.316  0.00  0.00    +0.000 N 
ATOM      2  N   UNL     1     -46.070 -62.862  40.634  0.00  0.00    +0.000 NA
ATOM      3  N   UNL     1     -44.979 -63.573  42.502  0.00  0.00    +0.000 NA
ATOM      4  C   UNL     1     -44.523 -64.245  41.476  0.00  0.00    +0.000 A 
ATOM      5  C   UNL     1     -45.920 -62.729  41.960  0.00  0.00    +0.000 A 
ATOM      6  C   UNL     1     -45.039 -64.357  38.986  0.00  0.00    +0.000 A 
ATOM      7  N   UNL     1     -44.214 -65.427  38.834  0.00  0.00    +0.000 NA
ATOM      8  C   UNL     1     -44.095 -65.923  37.598  0.00  0.00    +0.000 A 
ATOM      9  N   UNL     1     -44.722 -65.460  36.512  0.00  0.00    +0.000 NA
ATOM     10  C   UNL     1     -45.529 -64.409  36.668  0.00  0.00    +0.000 A 
ATOM     11  C   UNL     1     -45.736 -63.783  37.905  0.00  0.00    +0.000 A 
ATOM     12  C   UNL     1     -46.193 -63.926  35.549  0.00  0.00    +0.000 A 
ATOM     13  C   UNL     1     -46.589 -62.655  37.951  0.00  0.00    +0.000 A 
ATOM     14  C   UNL     1     -47.219 -62.156  36.816  0.00  0.00    +0.000 A 
ATOM     15  C   UNL     1     -47.062 -62.834  35.613  0.00  0.00    +0.000 A 
ATOM     16  N   UNL     1     -43.555 -65.181  41.521  0.00  0.00    +0.000 N 
ATOM     17  H   UNL     1     -43.309 -65.572  42.424  0.00  0.00    +0.000 HD
ATOM     18  H   UNL     1     -43.423 -65.805  40.725  0.00  0.00    +0.000 HD
ENDROOT
BRANCH   5  19
ATOM     19  C   UNL     1     -46.681 -61.782  42.781  0.00  0.00    +0.000 A 
ATOM     20  N   UNL     1     -47.610 -61.003  42.162  0.00  0.00    +0.000 NA
ATOM     21  C   UNL     1     -48.298 -60.138  42.940  0.00  0.00    +0.000 A 
ATOM     22  C   UNL     1     -48.114 -60.006  44.305  0.00  0.00    +0.000 A 
ATOM     23  C   UNL     1     -47.161 -60.816  44.909  0.00  0.00    +0.000 A 
ATOM     24  C   UNL     1     -46.431 -61.718  44.146  0.00  0.00    +0.000 A 
ENDBRANCH   5  19
BRANCH  14  25
ATOM     25  O   UNL     1     -48.045 -61.074  36.954  0.00  0.00    +0.000 OA
ATOM     26  C   UNL     1     -49.069 -61.351  37.876  0.00  0.00    +0.000 C 
ENDBRANCH  14  25
BRANCH  15  27
ATOM     27  O   UNL     1     -47.676 -62.396  34.471  0.00  0.00    +0.000 OA
ATOM     28  C   UNL     1     -47.871 -63.470  33.584  0.00  0.00    +0.000 C 
ENDBRANCH  15  27
TORSDOF 3
ENDMDL
MODEL 7
REMARK VINA RESULT:      -6.6     19.904     21.743
REMARK  Name = CP466722.pdbqt.pdb
REMARK  3 active torsions:
REMARK  status: ('A' for Active; 'I' for Inactive)
REMARK    1  A    between atoms: C_5  and  C_23
REMARK    2  A    between atoms: C_14  and  O_16
REMARK    3  A    between atoms: C_15  and  O_18
REMARK                            x       y       z     vdW  Elec       q    Type
REMARK                         _______ _______ _______ _____ _____    ______ ____
ROOT
ATOM      1  N   UNL     1     -53.661 -41.365  37.548  0.00  0.00    +0.000 N 
ATOM      2  N   UNL     1     -54.234 -41.245  38.769  0.00  0.00    +0.000 NA
ATOM      3  N   UNL     1     -55.830 -41.216  37.145  0.00  0.00    +0.000 NA
ATOM      4  C   UNL     1     -54.661 -41.359  36.574  0.00  0.00    +0.000 A 
ATOM      5  C   UNL     1     -55.543 -41.154  38.489  0.00  0.00    +0.000 A 
ATOM      6  C   UNL     1     -52.241 -41.441  37.355  0.00  0.00    +0.000 A 
ATOM      7  N   UNL     1     -51.795 -41.424  36.071  0.00  0.00    +0.000 NA
ATOM      8  C   UNL     1     -50.470 -41.471  35.894  0.00  0.00    +0.000 A 
ATOM      9  N   UNL     1     -49.558 -41.524  36.869  0.00  0.00    +0.000 NA
ATOM     10  C   UNL     1     -50.002 -41.541  38.127  0.00  0.00    +0.000 A 
ATOM     11  C   UNL     1     -51.363 -41.510  38.456  0.00  0.00    +0.000 A 
ATOM     12  C   UNL     1     -49.063 -41.587  39.148  0.00  0.00    +0.000 A 
ATOM     13  C   UNL     1     -51.724 -41.565  39.823  0.00  0.00    +0.000 A 
ATOM     14  C   UNL     1     -50.776 -41.649  40.836  0.00  0.00    +0.000 A 
ATOM     15  C   UNL     1     -49.430 -41.604  40.496  0.00  0.00    +0.000 A 
ATOM     16  N   UNL     1     -54.448 -41.490  35.250  0.00  0.00    +0.000 N 
ATOM     17  H   UNL     1     -55.198 -41.236  34.617  0.00  0.00    +0.000 HD
ATOM     18  H   UNL     1     -53.505 -41.373  34.880  0.00  0.00    +0.000 HD
ENDROOT
BRANCH   5  19
ATOM     19  C   UNL     1     -56.590 -40.997  39.502  0.00  0.00    +0.000 A 
ATOM     20  N   UNL     1     -56.608 -41.872  40.544  0.00  0.00    +0.000 NA
ATOM     21  C   UNL     1     -57.583 -41.707  41.464  0.00  0.00    +0.000 A 
ATOM     22  C   UNL     1     -58.546 -40.715  41.407  0.00  0.00    +0.000 A 
ATOM     23  C   UNL     1     -58.501 -39.835  40.333  0.00  0.00    +0.000 A 
ATOM     24  C   UNL     1     -57.516 -39.969  39.364  0.00  0.00    +0.000 A 
ENDBRANCH   5  19
BRANCH  14  25
ATOM     25  O   UNL     1     -51.212 -41.676  42.134  0.00  0.00    +0.000 OA
ATOM     26  C   UNL     1     -52.497 -41.117  42.233  0.00  0.00    +0.000 C 
ENDBRANCH  14  25
BRANCH  15  27
ATOM     27  O   UNL     1     -48.457 -41.663  41.456  0.00  0.00    +0.000 OA
ATOM     28  C   UNL     1     -47.215 -41.291  40.912  0.00  0.00    +0.000 C 
ENDBRANCH  15  27
TORSDOF 3
ENDMDL
MODEL 8
REMARK VINA RESULT:      -6.5     19.602     21.508
REMARK  Name = CP466722.pdbqt.pdb
REMARK  3 active torsions:
REMARK  status: ('A' for Active; 'I' for Inactive)
REMARK    1  A    between atoms: C_5  and  C_23
REMARK    2  A    between atoms: C_14  and  O_16
REMARK    3  A    between atoms: C_15  and  O_18
REMARK                            x       y       z     vdW  Elec       q    Type
REMARK                         _______ _______ _______ _____ _____    ______ ____
ROOT
ATOM      1  N   UNL     1     -52.537 -41.784  36.079  0.00  0.00    +0.000 N 
ATOM      2  N   UNL     1     -52.709 -41.715  37.420  0.00  0.00    +0.000 NA
ATOM      3  N   UNL     1     -50.504 -41.991  36.923  0.00  0.00    +0.000 NA
ATOM      4  C   UNL     1     -51.177 -41.939  35.802  0.00  0.00    +0.000 A 
ATOM      5  C   UNL     1     -51.462 -41.846  37.899  0.00  0.00    +0.000 A 
ATOM      6  C   UNL     1     -53.628 -41.742  35.147  0.00  0.00    +0.000 A 
ATOM      7  N   UNL     1     -53.327 -41.957  33.839  0.00  0.00    +0.000 NA
ATOM      8  C   UNL     1     -54.348 -41.940  32.976  0.00  0.00    +0.000 A 
ATOM      9  N   UNL     1     -55.630 -41.738  33.294  0.00  0.00    +0.000 NA
ATOM     10  C   UNL     1     -55.920 -41.527  34.580  0.00  0.00    +0.000 A 
ATOM     11  C   UNL     1     -54.946 -41.506  35.587  0.00  0.00    +0.000 A 
ATOM     12  C   UNL     1     -57.249 -41.326  34.923  0.00  0.00    +0.000 A 
ATOM     13  C   UNL     1     -55.360 -41.240  36.914  0.00  0.00    +0.000 A 
ATOM     14  C   UNL     1     -56.690 -41.003  37.241  0.00  0.00    +0.000 A 
ATOM     15  C   UNL     1     -57.651 -41.102  36.242  0.00  0.00    +0.000 A 
ATOM     16  N   UNL     1     -50.646 -42.013  34.566  0.00  0.00    +0.000 N 
ATOM     17  H   UNL     1     -49.698 -42.361  34.472  0.00  0.00    +0.000 HD
ATOM     18  H   UNL     1     -51.256 -42.188  33.768  0.00  0.00    +0.000 HD
ENDROOT
BRANCH   5  19
ATOM     19  C   UNL     1     -51.127 -41.844  39.325  0.00  0.00    +0.000 A 
ATOM     20  N   UNL     1     -49.813 -41.935  39.673  0.00  0.00    +0.000 NA
ATOM     21  C   UNL     1     -49.530 -41.932  40.994  0.00  0.00    +0.000 A 
ATOM     22  C   UNL     1     -50.482 -41.841  41.993  0.00  0.00    +0.000 A 
ATOM     23  C   UNL     1     -51.813 -41.746  41.609  0.00  0.00    +0.000 A 
ATOM     24  C   UNL     1     -52.150 -41.747  40.261  0.00  0.00    +0.000 A 
ENDBRANCH   5  19
BRANCH  14  25
ATOM     25  O   UNL     1     -57.007 -40.776  38.553  0.00  0.00    +0.000 OA
ATOM     26  C   UNL     1     -55.925 -41.112  39.385  0.00  0.00    +0.000 C 
ENDBRANCH  14  25
BRANCH  15  27
ATOM     27  O   UNL     1     -58.977 -40.897  36.514  0.00  0.00    +0.000 OA
ATOM     28  C   UNL     1     -59.474 -39.838  35.734  0.00  0.00    +0.000 C 
ENDBRANCH  15  27
TORSDOF 3
ENDMDL
MODEL 9
REMARK VINA RESULT:      -6.3      5.050      9.394
REMARK  Name = CP466722.pdbqt.pdb
REMARK  3 active torsions:
REMARK  status: ('A' for Active; 'I' for Inactive)
REMARK    1  A    between atoms: C_5  and  C_23
REMARK    2  A    between atoms: C_14  and  O_16
REMARK    3  A    between atoms: C_15  and  O_18
REMARK                            x       y       z     vdW  Elec       q    Type
REMARK                         _______ _______ _______ _____ _____    ______ ____
ROOT
ATOM      1  N   UNL     1     -46.097 -64.133  38.903  0.00  0.00    +0.000 N 
ATOM      2  N   UNL     1     -45.786 -64.255  40.215  0.00  0.00    +0.000 NA
ATOM      3  N   UNL     1     -47.196 -62.495  39.902  0.00  0.00    +0.000 NA
ATOM      4  C   UNL     1     -46.973 -63.057  38.742  0.00  0.00    +0.000 A 
ATOM      5  C   UNL     1     -46.464 -63.250  40.789  0.00  0.00    +0.000 A 
ATOM      6  C   UNL     1     -45.545 -64.982  37.886  0.00  0.00    +0.000 A 
ATOM      7  N   UNL     1     -45.836 -64.664  36.597  0.00  0.00    +0.000 NA
ATOM      8  C   UNL     1     -45.303 -65.442  35.650  0.00  0.00    +0.000 A 
ATOM      9  N   UNL     1     -44.506 -66.493  35.867  0.00  0.00    +0.000 NA
ATOM     10  C   UNL     1     -44.224 -66.801  37.134  0.00  0.00    +0.000 A 
ATOM     11  C   UNL     1     -44.727 -66.078  38.225  0.00  0.00    +0.000 A 
ATOM     12  C   UNL     1     -43.390 -67.885  37.371  0.00  0.00    +0.000 A 
ATOM     13  C   UNL     1     -44.390 -66.512  39.529  0.00  0.00    +0.000 A 
ATOM     14  C   UNL     1     -43.585 -67.622  39.755  0.00  0.00    +0.000 A 
ATOM     15  C   UNL     1     -43.035 -68.281  38.663  0.00  0.00    +0.000 A 
ATOM     16  N   UNL     1     -47.507 -62.668  37.568  0.00  0.00    +0.000 N 
ATOM     17  H   UNL     1     -47.931 -61.748  37.516  0.00  0.00    +0.000 HD
ATOM     18  H   UNL     1     -47.110 -63.015  36.696  0.00  0.00    +0.000 HD
ENDROOT
BRANCH   5  19
ATOM     19  C   UNL     1     -46.439 -62.957  42.225  0.00  0.00    +0.000 A 
ATOM     20  N   UNL     1     -45.322 -63.293  42.926  0.00  0.00    +0.000 NA
ATOM     21  C   UNL     1     -45.324 -63.014  44.248  0.00  0.00    +0.000 A 
ATOM     22  C   UNL     1     -46.378 -62.415  44.914  0.00  0.00    +0.000 A 
ATOM     23  C   UNL     1     -47.504 -62.080  44.173  0.00  0.00    +0.000 A 
ATOM     24  C   UNL     1     -47.544 -62.351  42.811  0.00  0.00    +0.000 A 
ENDBRANCH   5  19
BRANCH  14  25
ATOM     25  O   UNL     1     -43.291 -67.959  41.049  0.00  0.00    +0.000 OA
ATOM     26  C   UNL     1     -42.801 -66.843  41.749  0.00  0.00    +0.000 C 
ENDBRANCH  14  25
BRANCH  15  27
ATOM     27  O   UNL     1     -42.219 -69.367  38.831  0.00  0.00    +0.000 OA
ATOM     28  C   UNL     1     -42.152 -70.112  37.640  0.00  0.00    +0.000 C 
ENDBRANCH  15  27
TORSDOF 3
ENDMDL
