MODEL 1
REMARK VINA RESULT:      -6.9      0.000      0.000
REMARK  Name = Curcumin.pdbqt.pdb
REMARK  8 active torsions:
REMARK  status: ('A' for Active; 'I' for Inactive)
REMARK    1  A    between atoms: C_2  and  C_4
REMARK    2  A    between atoms: C_5  and  C_6
REMARK    3  A    between atoms: C_8  and  O_12
REMARK    4  A    between atoms: C_9  and  O_14
REMARK    5  A    between atoms: C_16  and  C_18
REMARK    6  A    between atoms: C_19  and  C_20
REMARK    7  A    between atoms: C_22  and  O_26
REMARK    8  A    between atoms: C_23  and  O_28
REMARK                            x       y       z     vdW  Elec       q    Type
REMARK                         _______ _______ _______ _____ _____    ______ ____
ROOT
ATOM      1  C   UNL     1     -43.568 -55.350  35.133  0.00  0.00    +0.000 C 
ATOM      2  C   UNL     1     -43.445 -54.821  33.816  0.00  0.00    +0.000 C 
ATOM      3  O   UNL     1     -42.763 -55.410  32.989  0.00  0.00    +0.000 OA
ATOM      4  C   UNL     1     -43.688 -55.877  36.452  0.00  0.00    +0.000 C 
ATOM      5  O   UNL     1     -44.093 -55.162  37.357  0.00  0.00    +0.000 OA
ENDROOT
BRANCH   2   6
ATOM      6  C   UNL     1     -44.125 -53.601  33.465  0.00  0.00    +0.000 C 
ATOM      7  C   UNL     1     -44.691 -52.582  33.174  0.00  0.00    +0.000 C 
BRANCH   7   8
ATOM      8  C   UNL     1     -45.363 -51.373  32.826  0.00  0.00    +0.000 A 
ATOM      9  C   UNL     1     -45.361 -50.932  31.504  0.00  0.00    +0.000 A 
ATOM     10  C   UNL     1     -46.016 -49.750  31.144  0.00  0.00    +0.000 A 
ATOM     11  C   UNL     1     -46.671 -49.017  32.138  0.00  0.00    +0.000 A 
ATOM     12  C   UNL     1     -46.674 -49.455  33.462  0.00  0.00    +0.000 A 
ATOM     13  C   UNL     1     -46.019 -50.634  33.806  0.00  0.00    +0.000 A 
BRANCH  10  14
ATOM     14  O   UNL     1     -46.057 -49.256  29.865  0.00  0.00    +0.000 OA
ATOM     15  C   UNL     1     -44.902 -49.438  29.096  0.00  0.00    +0.000 C 
ENDBRANCH  10  14
BRANCH  11  16
ATOM     16  O   UNL     1     -47.337 -47.850  31.883  0.00  0.00    +0.000 OA
ATOM     17  H   UNL     1     -46.726 -47.171  31.550  0.00  0.00    +0.000 HD
ENDBRANCH  11  16
ENDBRANCH   7   8
ENDBRANCH   2   6
BRANCH   4  18
ATOM     18  C   UNL     1     -43.332 -57.249  36.709  0.00  0.00    +0.000 C 
ATOM     19  C   UNL     1     -43.031 -58.392  36.925  0.00  0.00    +0.000 C 
BRANCH  19  20
ATOM     20  C   UNL     1     -42.670 -59.747  37.183  0.00  0.00    +0.000 A 
ATOM     21  C   UNL     1     -43.419 -60.505  38.082  0.00  0.00    +0.000 A 
ATOM     22  C   UNL     1     -43.079 -61.835  38.346  0.00  0.00    +0.000 A 
ATOM     23  C   UNL     1     -41.976 -62.388  37.691  0.00  0.00    +0.000 A 
ATOM     24  C   UNL     1     -41.223 -61.634  36.791  0.00  0.00    +0.000 A 
ATOM     25  C   UNL     1     -41.573 -60.311  36.538  0.00  0.00    +0.000 A 
BRANCH  22  26
ATOM     26  O   UNL     1     -43.762 -62.650  39.216  0.00  0.00    +0.000 OA
ATOM     27  C   UNL     1     -45.087 -62.943  38.858  0.00  0.00    +0.000 C 
ENDBRANCH  22  26
BRANCH  23  28
ATOM     28  O   UNL     1     -41.627 -63.688  37.936  0.00  0.00    +0.000 OA
ATOM     29  H   UNL     1     -41.665 -63.845  38.897  0.00  0.00    +0.000 HD
ENDBRANCH  23  28
ENDBRANCH  19  20
ENDBRANCH   4  18
TORSDOF 8
ENDMDL
MODEL 2
REMARK VINA RESULT:      -6.8     19.848     20.511
REMARK  Name = Curcumin.pdbqt.pdb
REMARK  8 active torsions:
REMARK  status: ('A' for Active; 'I' for Inactive)
REMARK    1  A    between atoms: C_2  and  C_4
REMARK    2  A    between atoms: C_5  and  C_6
REMARK    3  A    between atoms: C_8  and  O_12
REMARK    4  A    between atoms: C_9  and  O_14
REMARK    5  A    between atoms: C_16  and  C_18
REMARK    6  A    between atoms: C_19  and  C_20
REMARK    7  A    between atoms: C_22  and  O_26
REMARK    8  A    between atoms: C_23  and  O_28
REMARK                            x       y       z     vdW  Elec       q    Type
REMARK                         _______ _______ _______ _____ _____    ______ ____
ROOT
ATOM      1  C   UNL     1     -37.620 -43.928  50.350  0.00  0.00    +0.000 C 
ATOM      2  C   UNL     1     -37.969 -43.238  49.153  0.00  0.00    +0.000 C 
ATOM      3  O   UNL     1     -37.203 -43.252  48.201  0.00  0.00    +0.000 OA
ATOM      4  C   UNL     1     -37.268 -44.615  51.548  0.00  0.00    +0.000 C 
ATOM      5  O   UNL     1     -37.854 -44.359  52.590  0.00  0.00    +0.000 OA
ENDROOT
BRANCH   2   6
ATOM      6  C   UNL     1     -39.223 -42.533  49.072  0.00  0.00    +0.000 C 
ATOM      7  C   UNL     1     -40.267 -41.943  49.004  0.00  0.00    +0.000 C 
BRANCH   7   8
ATOM      8  C   UNL     1     -41.508 -41.243  48.922  0.00  0.00    +0.000 A 
ATOM      9  C   UNL     1     -42.388 -41.260  50.002  0.00  0.00    +0.000 A 
ATOM     10  C   UNL     1     -43.608 -40.580  49.939  0.00  0.00    +0.000 A 
ATOM     11  C   UNL     1     -43.928 -39.881  48.770  0.00  0.00    +0.000 A 
ATOM     12  C   UNL     1     -43.049 -39.862  47.688  0.00  0.00    +0.000 A 
ATOM     13  C   UNL     1     -41.837 -40.544  47.765  0.00  0.00    +0.000 A 
BRANCH  10  14
ATOM     14  O   UNL     1     -44.523 -40.551  50.961  0.00  0.00    +0.000 OA
ATOM     15  C   UNL     1     -44.448 -41.600  51.885  0.00  0.00    +0.000 C 
ENDBRANCH  10  14
BRANCH  11  16
ATOM     16  O   UNL     1     -45.096 -39.187  48.616  0.00  0.00    +0.000 OA
ATOM     17  H   UNL     1     -45.074 -38.360  49.125  0.00  0.00    +0.000 HD
ENDBRANCH  11  16
ENDBRANCH   7   8
ENDBRANCH   2   6
BRANCH   4  18
ATOM     18  C   UNL     1     -36.223 -45.607  51.523  0.00  0.00    +0.000 C 
ATOM     19  C   UNL     1     -35.350 -46.433  51.497  0.00  0.00    +0.000 C 
BRANCH  19  20
ATOM     20  C   UNL     1     -34.316 -47.413  51.464  0.00  0.00    +0.000 A 
ATOM     21  C   UNL     1     -34.178 -48.313  52.520  0.00  0.00    +0.000 A 
ATOM     22  C   UNL     1     -33.169 -49.280  52.502  0.00  0.00    +0.000 A 
ATOM     23  C   UNL     1     -32.303 -49.326  51.406  0.00  0.00    +0.000 A 
ATOM     24  C   UNL     1     -32.436 -48.429  50.348  0.00  0.00    +0.000 A 
ATOM     25  C   UNL     1     -33.445 -47.471  50.378  0.00  0.00    +0.000 A 
BRANCH  22  26
ATOM     26  O   UNL     1     -32.963 -50.203  53.499  0.00  0.00    +0.000 OA
ATOM     27  C   UNL     1     -33.944 -51.200  53.612  0.00  0.00    +0.000 C 
ENDBRANCH  22  26
BRANCH  23  28
ATOM     28  O   UNL     1     -31.308 -50.265  51.370  0.00  0.00    +0.000 OA
ATOM     29  H   UNL     1     -31.690 -51.132  51.597  0.00  0.00    +0.000 HD
ENDBRANCH  23  28
ENDBRANCH  19  20
ENDBRANCH   4  18
TORSDOF 8
ENDMDL
MODEL 3
REMARK VINA RESULT:      -6.8     19.415     22.862
REMARK  Name = Curcumin.pdbqt.pdb
REMARK  8 active torsions:
REMARK  status: ('A' for Active; 'I' for Inactive)
REMARK    1  A    between atoms: C_2  and  C_4
REMARK    2  A    between atoms: C_5  and  C_6
REMARK    3  A    between atoms: C_8  and  O_12
REMARK    4  A    between atoms: C_9  and  O_14
REMARK    5  A    between atoms: C_16  and  C_18
REMARK    6  A    between atoms: C_19  and  C_20
REMARK    7  A    between atoms: C_22  and  O_26
REMARK    8  A    between atoms: C_23  and  O_28
REMARK                            x       y       z     vdW  Elec       q    Type
REMARK                         _______ _______ _______ _____ _____    ______ ____
ROOT
ATOM      1  C   UNL     1     -37.456 -44.215  50.318  0.00  0.00    +0.000 C 
ATOM      2  C   UNL     1     -37.147 -44.668  51.633  0.00  0.00    +0.000 C 
ATOM      3  O   UNL     1     -37.667 -44.127  52.597  0.00  0.00    +0.000 OA
ATOM      4  C   UNL     1     -37.763 -43.757  49.003  0.00  0.00    +0.000 C 
ATOM      5  O   UNL     1     -37.036 -44.064  48.069  0.00  0.00    +0.000 OA
ENDROOT
BRANCH   2   6
ATOM      6  C   UNL     1     -36.228 -45.762  51.816  0.00  0.00    +0.000 C 
ATOM      7  C   UNL     1     -35.463 -46.676  51.970  0.00  0.00    +0.000 C 
BRANCH   7   8
ATOM      8  C   UNL     1     -34.555 -47.761  52.150  0.00  0.00    +0.000 A 
ATOM      9  C   UNL     1     -33.441 -47.879  51.321  0.00  0.00    +0.000 A 
ATOM     10  C   UNL     1     -32.539 -48.935  51.484  0.00  0.00    +0.000 A 
ATOM     11  C   UNL     1     -32.777 -49.872  52.495  0.00  0.00    +0.000 A 
ATOM     12  C   UNL     1     -33.891 -49.756  53.326  0.00  0.00    +0.000 A 
ATOM     13  C   UNL     1     -34.781 -48.699  53.153  0.00  0.00    +0.000 A 
BRANCH  10  14
ATOM     14  O   UNL     1     -31.422 -49.116  50.708  0.00  0.00    +0.000 OA
ATOM     15  C   UNL     1     -31.650 -49.472  49.374  0.00  0.00    +0.000 C 
ENDBRANCH  10  14
BRANCH  11  16
ATOM     16  O   UNL     1     -31.953 -50.937  52.730  0.00  0.00    +0.000 OA
ATOM     17  H   UNL     1     -32.368 -51.765  52.432  0.00  0.00    +0.000 HD
ENDBRANCH  11  16
ENDBRANCH   7   8
ENDBRANCH   2   6
BRANCH   4  18
ATOM     18  C   UNL     1     -38.927 -42.938  48.784  0.00  0.00    +0.000 C 
ATOM     19  C   UNL     1     -39.898 -42.252  48.606  0.00  0.00    +0.000 C 
BRANCH  19  20
ATOM     20  C   UNL     1     -41.049 -41.438  48.398  0.00  0.00    +0.000 A 
ATOM     21  C   UNL     1     -42.102 -41.479  49.311  0.00  0.00    +0.000 A 
ATOM     22  C   UNL     1     -43.238 -40.687  49.121  0.00  0.00    +0.000 A 
ATOM     23  C   UNL     1     -43.296 -39.854  48.001  0.00  0.00    +0.000 A 
ATOM     24  C   UNL     1     -42.246 -39.810  47.085  0.00  0.00    +0.000 A 
ATOM     25  C   UNL     1     -41.121 -40.603  47.285  0.00  0.00    +0.000 A 
BRANCH  22  26
ATOM     26  O   UNL     1     -44.318 -40.666  49.970  0.00  0.00    +0.000 OA
ATOM     27  C   UNL     1     -44.116 -41.269  51.222  0.00  0.00    +0.000 C 
ENDBRANCH  22  26
BRANCH  23  28
ATOM     28  O   UNL     1     -44.400 -39.071  47.797  0.00  0.00    +0.000 OA
ATOM     29  H   UNL     1     -44.106 -38.182  47.528  0.00  0.00    +0.000 HD
ENDBRANCH  23  28
ENDBRANCH  19  20
ENDBRANCH   4  18
TORSDOF 8
ENDMDL
MODEL 4
REMARK VINA RESULT:      -6.7     20.438     23.931
REMARK  Name = Curcumin.pdbqt.pdb
REMARK  8 active torsions:
REMARK  status: ('A' for Active; 'I' for Inactive)
REMARK    1  A    between atoms: C_2  and  C_4
REMARK    2  A    between atoms: C_5  and  C_6
REMARK    3  A    between atoms: C_8  and  O_12
REMARK    4  A    between atoms: C_9  and  O_14
REMARK    5  A    between atoms: C_16  and  C_18
REMARK    6  A    between atoms: C_19  and  C_20
REMARK    7  A    between atoms: C_22  and  O_26
REMARK    8  A    between atoms: C_23  and  O_28
REMARK                            x       y       z     vdW  Elec       q    Type
REMARK                         _______ _______ _______ _____ _____    ______ ____
ROOT
ATOM      1  C   UNL     1     -44.092 -40.587  50.627  0.00  0.00    +0.000 C 
ATOM      2  C   UNL     1     -43.571 -40.440  49.309  0.00  0.00    +0.000 C 
ATOM      3  O   UNL     1     -44.183 -39.776  48.487  0.00  0.00    +0.000 OA
ATOM      4  C   UNL     1     -44.617 -40.736  51.944  0.00  0.00    +0.000 C 
ATOM      5  O   UNL     1     -44.197 -41.628  52.667  0.00  0.00    +0.000 OA
ENDROOT
BRANCH   2   6
ATOM      6  C   UNL     1     -42.325 -41.073  48.957  0.00  0.00    +0.000 C 
ATOM      7  C   UNL     1     -41.286 -41.599  48.664  0.00  0.00    +0.000 C 
BRANCH   7   8
ATOM      8  C   UNL     1     -40.052 -42.225  48.317  0.00  0.00    +0.000 A 
ATOM      9  C   UNL     1     -39.765 -42.504  46.982  0.00  0.00    +0.000 A 
ATOM     10  C   UNL     1     -38.560 -43.117  46.624  0.00  0.00    +0.000 A 
ATOM     11  C   UNL     1     -37.649 -43.446  47.632  0.00  0.00    +0.000 A 
ATOM     12  C   UNL     1     -37.933 -43.168  48.968  0.00  0.00    +0.000 A 
ATOM     13  C   UNL     1     -39.136 -42.557  49.311  0.00  0.00    +0.000 A 
BRANCH  10  14
ATOM     14  O   UNL     1     -38.209 -43.421  45.333  0.00  0.00    +0.000 OA
ATOM     15  C   UNL     1     -37.822 -42.342  44.529  0.00  0.00    +0.000 C 
ENDBRANCH  10  14
BRANCH  11  16
ATOM     16  O   UNL     1     -36.447 -44.047  47.379  0.00  0.00    +0.000 OA
ATOM     17  H   UNL     1     -36.500 -44.600  46.582  0.00  0.00    +0.000 HD
ENDBRANCH  11  16
ENDBRANCH   7   8
ENDBRANCH   2   6
BRANCH   4  18
ATOM     18  C   UNL     1     -45.638 -39.834  52.414  0.00  0.00    +0.000 C 
ATOM     19  C   UNL     1     -46.490 -39.084  52.809  0.00  0.00    +0.000 C 
BRANCH  19  20
ATOM     20  C   UNL     1     -47.501 -38.197  53.281  0.00  0.00    +0.000 A 
ATOM     21  C   UNL     1     -48.840 -38.454  52.990  0.00  0.00    +0.000 A 
ATOM     22  C   UNL     1     -49.844 -37.595  53.445  0.00  0.00    +0.000 A 
ATOM     23  C   UNL     1     -49.478 -36.475  54.197  0.00  0.00    +0.000 A 
ATOM     24  C   UNL     1     -48.141 -36.213  54.490  0.00  0.00    +0.000 A 
ATOM     25  C   UNL     1     -47.151 -37.077  54.031  0.00  0.00    +0.000 A 
BRANCH  22  26
ATOM     26  O   UNL     1     -51.185 -37.773  53.204  0.00  0.00    +0.000 OA
ATOM     27  C   UNL     1     -51.531 -38.017  51.866  0.00  0.00    +0.000 C 
ENDBRANCH  22  26
BRANCH  23  28
ATOM     28  O   UNL     1     -50.446 -35.621  54.651  0.00  0.00    +0.000 OA
ATOM     29  H   UNL     1     -51.308 -35.912  54.302  0.00  0.00    +0.000 HD
ENDBRANCH  23  28
ENDBRANCH  19  20
ENDBRANCH   4  18
TORSDOF 8
ENDMDL
MODEL 5
REMARK VINA RESULT:      -6.6     20.648     23.105
REMARK  Name = Curcumin.pdbqt.pdb
REMARK  8 active torsions:
REMARK  status: ('A' for Active; 'I' for Inactive)
REMARK    1  A    between atoms: C_2  and  C_4
REMARK    2  A    between atoms: C_5  and  C_6
REMARK    3  A    between atoms: C_8  and  O_12
REMARK    4  A    between atoms: C_9  and  O_14
REMARK    5  A    between atoms: C_16  and  C_18
REMARK    6  A    between atoms: C_19  and  C_20
REMARK    7  A    between atoms: C_22  and  O_26
REMARK    8  A    between atoms: C_23  and  O_28
REMARK                            x       y       z     vdW  Elec       q    Type
REMARK                         _______ _______ _______ _____ _____    ______ ____
ROOT
ATOM      1  C   UNL     1     -44.173 -40.503  50.526  0.00  0.00    +0.000 C 
ATOM      2  C   UNL     1     -44.785 -40.625  51.807  0.00  0.00    +0.000 C 
ATOM      3  O   UNL     1     -44.458 -41.540  52.549  0.00  0.00    +0.000 OA
ATOM      4  C   UNL     1     -43.564 -40.384  49.243  0.00  0.00    +0.000 C 
ATOM      5  O   UNL     1     -44.086 -39.686  48.385  0.00  0.00    +0.000 OA
ENDROOT
BRANCH   2   6
ATOM      6  C   UNL     1     -45.781 -39.669  52.220  0.00  0.00    +0.000 C 
ATOM      7  C   UNL     1     -46.612 -38.872  52.563  0.00  0.00    +0.000 C 
BRANCH   7   8
ATOM      8  C   UNL     1     -47.599 -37.927  52.972  0.00  0.00    +0.000 A 
ATOM      9  C   UNL     1     -48.949 -38.267  52.921  0.00  0.00    +0.000 A 
ATOM     10  C   UNL     1     -49.931 -37.354  53.318  0.00  0.00    +0.000 A 
ATOM     11  C   UNL     1     -49.531 -36.092  53.767  0.00  0.00    +0.000 A 
ATOM     12  C   UNL     1     -48.181 -35.749  53.819  0.00  0.00    +0.000 A 
ATOM     13  C   UNL     1     -47.214 -36.668  53.421  0.00  0.00    +0.000 A 
BRANCH  10  14
ATOM     14  O   UNL     1     -51.278 -37.618  53.296  0.00  0.00    +0.000 OA
ATOM     15  C   UNL     1     -51.851 -37.790  52.031  0.00  0.00    +0.000 C 
ENDBRANCH  10  14
BRANCH  11  16
ATOM     16  O   UNL     1     -50.417 -35.133  54.176  0.00  0.00    +0.000 OA
ATOM     17  H   UNL     1     -51.072 -35.509  54.787  0.00  0.00    +0.000 HD
ENDBRANCH  11  16
ENDBRANCH   7   8
ENDBRANCH   2   6
BRANCH   4  18
ATOM     18  C   UNL     1     -42.337 -41.086  48.966  0.00  0.00    +0.000 C 
ATOM     19  C   UNL     1     -41.315 -41.676  48.735  0.00  0.00    +0.000 C 
BRANCH  19  20
ATOM     20  C   UNL     1     -40.106 -42.378  48.461  0.00  0.00    +0.000 A 
ATOM     21  C   UNL     1     -39.090 -42.409  49.416  0.00  0.00    +0.000 A 
ATOM     22  C   UNL     1     -37.898 -43.094  49.163  0.00  0.00    +0.000 A 
ATOM     23  C   UNL     1     -37.745 -43.746  47.936  0.00  0.00    +0.000 A 
ATOM     24  C   UNL     1     -38.758 -43.717  46.978  0.00  0.00    +0.000 A 
ATOM     25  C   UNL     1     -39.940 -43.032  47.242  0.00  0.00    +0.000 A 
BRANCH  22  26
ATOM     26  O   UNL     1     -36.849 -43.174  50.047  0.00  0.00    +0.000 OA
ATOM     27  C   UNL     1     -37.064 -43.989  51.169  0.00  0.00    +0.000 C 
ENDBRANCH  22  26
BRANCH  23  28
ATOM     28  O   UNL     1     -36.586 -44.421  47.670  0.00  0.00    +0.000 OA
ATOM     29  H   UNL     1     -35.901 -44.124  48.296  0.00  0.00    +0.000 HD
ENDBRANCH  23  28
ENDBRANCH  19  20
ENDBRANCH   4  18
TORSDOF 8
ENDMDL
MODEL 6
REMARK VINA RESULT:      -6.6     20.645     24.350
REMARK  Name = Curcumin.pdbqt.pdb
REMARK  8 active torsions:
REMARK  status: ('A' for Active; 'I' for Inactive)
REMARK    1  A    between atoms: C_2  and  C_4
REMARK    2  A    between atoms: C_5  and  C_6
REMARK    3  A    between atoms: C_8  and  O_12
REMARK    4  A    between atoms: C_9  and  O_14
REMARK    5  A    between atoms: C_16  and  C_18
REMARK    6  A    between atoms: C_19  and  C_20
REMARK    7  A    between atoms: C_22  and  O_26
REMARK    8  A    between atoms: C_23  and  O_28
REMARK                            x       y       z     vdW  Elec       q    Type
REMARK                         _______ _______ _______ _____ _____    ______ ____
ROOT
ATOM      1  C   UNL     1     -44.157 -40.506  50.516  0.00  0.00    +0.000 C 
ATOM      2  C   UNL     1     -43.522 -40.375  49.247  0.00  0.00    +0.000 C 
ATOM      3  O   UNL     1     -44.020 -39.657  48.392  0.00  0.00    +0.000 OA
ATOM      4  C   UNL     1     -44.794 -40.639  51.784  0.00  0.00    +0.000 C 
ATOM      5  O   UNL     1     -44.495 -41.569  52.519  0.00  0.00    +0.000 OA
ENDROOT
BRANCH   2   6
ATOM      6  C   UNL     1     -42.297 -41.086  48.981  0.00  0.00    +0.000 C 
ATOM      7  C   UNL     1     -41.277 -41.680  48.758  0.00  0.00    +0.000 C 
BRANCH   7   8
ATOM      8  C   UNL     1     -40.065 -42.383  48.492  0.00  0.00    +0.000 A 
ATOM      9  C   UNL     1     -39.054 -42.412  49.451  0.00  0.00    +0.000 A 
ATOM     10  C   UNL     1     -37.859 -43.097  49.208  0.00  0.00    +0.000 A 
ATOM     11  C   UNL     1     -37.698 -43.753  47.983  0.00  0.00    +0.000 A 
ATOM     12  C   UNL     1     -38.709 -43.725  47.022  0.00  0.00    +0.000 A 
ATOM     13  C   UNL     1     -39.893 -43.040  47.277  0.00  0.00    +0.000 A 
BRANCH  10  14
ATOM     14  O   UNL     1     -36.822 -43.170  50.103  0.00  0.00    +0.000 OA
ATOM     15  C   UNL     1     -36.997 -44.047  51.179  0.00  0.00    +0.000 C 
ENDBRANCH  10  14
BRANCH  11  16
ATOM     16  O   UNL     1     -36.567 -44.447  47.655  0.00  0.00    +0.000 OA
ATOM     17  H   UNL     1     -36.108 -44.024  46.910  0.00  0.00    +0.000 HD
ENDBRANCH  11  16
ENDBRANCH   7   8
ENDBRANCH   2   6
BRANCH   4  18
ATOM     18  C   UNL     1     -45.787 -39.677  52.190  0.00  0.00    +0.000 C 
ATOM     19  C   UNL     1     -46.616 -38.877  52.531  0.00  0.00    +0.000 C 
BRANCH  19  20
ATOM     20  C   UNL     1     -47.602 -37.931  52.938  0.00  0.00    +0.000 A 
ATOM     21  C   UNL     1     -48.953 -38.274  52.894  0.00  0.00    +0.000 A 
ATOM     22  C   UNL     1     -49.932 -37.358  53.290  0.00  0.00    +0.000 A 
ATOM     23  C   UNL     1     -49.530 -36.094  53.730  0.00  0.00    +0.000 A 
ATOM     24  C   UNL     1     -48.180 -35.746  53.776  0.00  0.00    +0.000 A 
ATOM     25  C   UNL     1     -47.216 -36.667  53.379  0.00  0.00    +0.000 A 
BRANCH  22  26
ATOM     26  O   UNL     1     -51.282 -37.614  53.278  0.00  0.00    +0.000 OA
ATOM     27  C   UNL     1     -51.871 -37.696  52.007  0.00  0.00    +0.000 C 
ENDBRANCH  22  26
BRANCH  23  28
ATOM     28  O   UNL     1     -50.473 -35.184  54.121  0.00  0.00    +0.000 OA
ATOM     29  H   UNL     1     -50.019 -34.377  54.427  0.00  0.00    +0.000 HD
ENDBRANCH  23  28
ENDBRANCH  19  20
ENDBRANCH   4  18
TORSDOF 8
ENDMDL
MODEL 7
REMARK VINA RESULT:      -6.3      5.980     12.314
REMARK  Name = Curcumin.pdbqt.pdb
REMARK  8 active torsions:
REMARK  status: ('A' for Active; 'I' for Inactive)
REMARK    1  A    between atoms: C_2  and  C_4
REMARK    2  A    between atoms: C_5  and  C_6
REMARK    3  A    between atoms: C_8  and  O_12
REMARK    4  A    between atoms: C_9  and  O_14
REMARK    5  A    between atoms: C_16  and  C_18
REMARK    6  A    between atoms: C_19  and  C_20
REMARK    7  A    between atoms: C_22  and  O_26
REMARK    8  A    between atoms: C_23  and  O_28
REMARK                            x       y       z     vdW  Elec       q    Type
REMARK                         _______ _______ _______ _____ _____    ______ ____
ROOT
ATOM      1  C   UNL     1     -46.360 -61.069  33.853  0.00  0.00    +0.000 C 
ATOM      2  C   UNL     1     -46.854 -61.545  32.604  0.00  0.00    +0.000 C 
ATOM      3  O   UNL     1     -47.084 -60.753  31.702  0.00  0.00    +0.000 OA
ATOM      4  C   UNL     1     -45.869 -60.592  35.103  0.00  0.00    +0.000 C 
ATOM      5  O   UNL     1     -45.931 -61.307  36.092  0.00  0.00    +0.000 OA
ENDROOT
BRANCH   2   6
ATOM      6  C   UNL     1     -47.076 -62.956  32.411  0.00  0.00    +0.000 C 
ATOM      7  C   UNL     1     -47.263 -64.131  32.251  0.00  0.00    +0.000 C 
BRANCH   7   8
ATOM      8  C   UNL     1     -47.485 -65.527  32.058  0.00  0.00    +0.000 A 
ATOM      9  C   UNL     1     -46.616 -66.454  32.629  0.00  0.00    +0.000 A 
ATOM     10  C   UNL     1     -46.818 -67.827  32.452  0.00  0.00    +0.000 A 
ATOM     11  C   UNL     1     -47.910 -68.251  31.689  0.00  0.00    +0.000 A 
ATOM     12  C   UNL     1     -48.782 -67.325  31.116  0.00  0.00    +0.000 A 
ATOM     13  C   UNL     1     -48.569 -65.962  31.301  0.00  0.00    +0.000 A 
BRANCH  10  14
ATOM     14  O   UNL     1     -46.005 -68.796  32.984  0.00  0.00    +0.000 OA
ATOM     15  C   UNL     1     -46.182 -69.070  34.345  0.00  0.00    +0.000 C 
ENDBRANCH  10  14
BRANCH  11  16
ATOM     16  O   UNL     1     -48.189 -69.570  31.459  0.00  0.00    +0.000 OA
ATOM     17  H   UNL     1     -47.505 -70.138  31.852  0.00  0.00    +0.000 HD
ENDBRANCH  11  16
ENDBRANCH   7   8
ENDBRANCH   2   6
BRANCH   4  18
ATOM     18  C   UNL     1     -45.304 -59.270  35.191  0.00  0.00    +0.000 C 
ATOM     19  C   UNL     1     -44.834 -58.165  35.261  0.00  0.00    +0.000 C 
BRANCH  19  20
ATOM     20  C   UNL     1     -44.279 -56.855  35.341  0.00  0.00    +0.000 A 
ATOM     21  C   UNL     1     -43.843 -56.214  34.182  0.00  0.00    +0.000 A 
ATOM     22  C   UNL     1     -43.296 -54.929  34.243  0.00  0.00    +0.000 A 
ATOM     23  C   UNL     1     -43.197 -54.301  35.487  0.00  0.00    +0.000 A 
ATOM     24  C   UNL     1     -43.631 -54.937  36.649  0.00  0.00    +0.000 A 
ATOM     25  C   UNL     1     -44.173 -56.217  36.575  0.00  0.00    +0.000 A 
BRANCH  22  26
ATOM     26  O   UNL     1     -42.843 -54.228  33.152  0.00  0.00    +0.000 OA
ATOM     27  C   UNL     1     -43.739 -54.138  32.076  0.00  0.00    +0.000 C 
ENDBRANCH  22  26
BRANCH  23  28
ATOM     28  O   UNL     1     -42.664 -53.043  35.568  0.00  0.00    +0.000 OA
ATOM     29  H   UNL     1     -43.107 -52.563  36.291  0.00  0.00    +0.000 HD
ENDBRANCH  23  28
ENDBRANCH  19  20
ENDBRANCH   4  18
TORSDOF 8
ENDMDL
MODEL 8
REMARK VINA RESULT:      -6.2      1.073      2.510
REMARK  Name = Curcumin.pdbqt.pdb
REMARK  8 active torsions:
REMARK  status: ('A' for Active; 'I' for Inactive)
REMARK    1  A    between atoms: C_2  and  C_4
REMARK    2  A    between atoms: C_5  and  C_6
REMARK    3  A    between atoms: C_8  and  O_12
REMARK    4  A    between atoms: C_9  and  O_14
REMARK    5  A    between atoms: C_16  and  C_18
REMARK    6  A    between atoms: C_19  and  C_20
REMARK    7  A    between atoms: C_22  and  O_26
REMARK    8  A    between atoms: C_23  and  O_28
REMARK                            x       y       z     vdW  Elec       q    Type
REMARK                         _______ _______ _______ _____ _____    ______ ____
ROOT
ATOM      1  C   UNL     1     -43.296 -55.869  34.813  0.00  0.00    +0.000 C 
ATOM      2  C   UNL     1     -42.931 -55.450  33.501  0.00  0.00    +0.000 C 
ATOM      3  O   UNL     1     -42.088 -56.078  32.878  0.00  0.00    +0.000 OA
ATOM      4  C   UNL     1     -43.656 -56.287  36.127  0.00  0.00    +0.000 C 
ATOM      5  O   UNL     1     -44.246 -55.515  36.869  0.00  0.00    +0.000 OA
ENDROOT
BRANCH   2   6
ATOM      6  C   UNL     1     -43.560 -54.292  32.918  0.00  0.00    +0.000 C 
ATOM      7  C   UNL     1     -44.083 -53.327  32.431  0.00  0.00    +0.000 C 
BRANCH   7   8
ATOM      8  C   UNL     1     -44.704 -52.181  31.851  0.00  0.00    +0.000 A 
ATOM      9  C   UNL     1     -45.671 -51.478  32.566  0.00  0.00    +0.000 A 
ATOM     10  C   UNL     1     -46.290 -50.352  32.014  0.00  0.00    +0.000 A 
ATOM     11  C   UNL     1     -45.920 -49.946  30.728  0.00  0.00    +0.000 A 
ATOM     12  C   UNL     1     -44.952 -50.647  30.010  0.00  0.00    +0.000 A 
ATOM     13  C   UNL     1     -44.344 -51.766  30.572  0.00  0.00    +0.000 A 
BRANCH  10  14
ATOM     14  O   UNL     1     -47.249 -49.611  32.658  0.00  0.00    +0.000 OA
ATOM     15  C   UNL     1     -46.886 -49.083  33.902  0.00  0.00    +0.000 C 
ENDBRANCH  10  14
BRANCH  11  16
ATOM     16  O   UNL     1     -46.469 -48.859  30.106  0.00  0.00    +0.000 OA
ATOM     17  H   UNL     1     -47.160 -49.135  29.480  0.00  0.00    +0.000 HD
ENDBRANCH  11  16
ENDBRANCH   7   8
ENDBRANCH   2   6
BRANCH   4  18
ATOM     18  C   UNL     1     -43.324 -57.616  36.572  0.00  0.00    +0.000 C 
ATOM     19  C   UNL     1     -43.043 -58.724  36.945  0.00  0.00    +0.000 C 
BRANCH  19  20
ATOM     20  C   UNL     1     -42.706 -60.036  37.389  0.00  0.00    +0.000 A 
ATOM     21  C   UNL     1     -41.575 -60.672  36.880  0.00  0.00    +0.000 A 
ATOM     22  C   UNL     1     -41.231 -61.958  37.305  0.00  0.00    +0.000 A 
ATOM     23  C   UNL     1     -42.043 -62.592  38.249  0.00  0.00    +0.000 A 
ATOM     24  C   UNL     1     -43.175 -61.961  38.761  0.00  0.00    +0.000 A 
ATOM     25  C   UNL     1     -43.507 -60.680  38.329  0.00  0.00    +0.000 A 
BRANCH  22  26
ATOM     26  O   UNL     1     -40.135 -62.655  36.856  0.00  0.00    +0.000 OA
ATOM     27  C   UNL     1     -38.933 -62.394  37.532  0.00  0.00    +0.000 C 
ENDBRANCH  22  26
BRANCH  23  28
ATOM     28  O   UNL     1     -41.723 -63.852  38.678  0.00  0.00    +0.000 OA
ATOM     29  H   UNL     1     -42.360 -64.482  38.295  0.00  0.00    +0.000 HD
ENDBRANCH  23  28
ENDBRANCH  19  20
ENDBRANCH   4  18
TORSDOF 8
ENDMDL
MODEL 9
REMARK VINA RESULT:      -6.1      6.999     11.885
REMARK  Name = Curcumin.pdbqt.pdb
REMARK  8 active torsions:
REMARK  status: ('A' for Active; 'I' for Inactive)
REMARK    1  A    between atoms: C_2  and  C_4
REMARK    2  A    between atoms: C_5  and  C_6
REMARK    3  A    between atoms: C_8  and  O_12
REMARK    4  A    between atoms: C_9  and  O_14
REMARK    5  A    between atoms: C_16  and  C_18
REMARK    6  A    between atoms: C_19  and  C_20
REMARK    7  A    between atoms: C_22  and  O_26
REMARK    8  A    between atoms: C_23  and  O_28
REMARK                            x       y       z     vdW  Elec       q    Type
REMARK                         _______ _______ _______ _____ _____    ______ ____
ROOT
ATOM      1  C   UNL     1     -45.846 -60.504  32.337  0.00  0.00    +0.000 C 
ATOM      2  C   UNL     1     -46.130 -60.737  30.961  0.00  0.00    +0.000 C 
ATOM      3  O   UNL     1     -46.230 -59.790  30.195  0.00  0.00    +0.000 OA
ATOM      4  C   UNL     1     -45.565 -60.270  33.715  0.00  0.00    +0.000 C 
ATOM      5  O   UNL     1     -45.769 -61.153  34.535  0.00  0.00    +0.000 OA
ENDROOT
BRANCH   2   6
ATOM      6  C   UNL     1     -46.296 -62.086  30.481  0.00  0.00    +0.000 C 
ATOM      7  C   UNL     1     -46.432 -63.210  30.080  0.00  0.00    +0.000 C 
BRANCH   7   8
ATOM      8  C   UNL     1     -46.594 -64.545  29.605  0.00  0.00    +0.000 A 
ATOM      9  C   UNL     1     -46.961 -65.557  30.490  0.00  0.00    +0.000 A 
ATOM     10  C   UNL     1     -47.125 -66.872  30.042  0.00  0.00    +0.000 A 
ATOM     11  C   UNL     1     -46.911 -67.152  28.689  0.00  0.00    +0.000 A 
ATOM     12  C   UNL     1     -46.542 -66.141  27.802  0.00  0.00    +0.000 A 
ATOM     13  C   UNL     1     -46.383 -64.836  28.261  0.00  0.00    +0.000 A 
BRANCH  10  14
ATOM     14  O   UNL     1     -47.486 -67.918  30.853  0.00  0.00    +0.000 OA
ATOM     15  C   UNL     1     -48.821 -67.940  31.273  0.00  0.00    +0.000 C 
ENDBRANCH  10  14
BRANCH  11  16
ATOM     16  O   UNL     1     -47.046 -68.405  28.159  0.00  0.00    +0.000 OA
ATOM     17  H   UNL     1     -47.929 -68.765  28.348  0.00  0.00    +0.000 HD
ENDBRANCH  11  16
ENDBRANCH   7   8
ENDBRANCH   2   6
BRANCH   4  18
ATOM     18  C   UNL     1     -45.042 -58.993  34.131  0.00  0.00    +0.000 C 
ATOM     19  C   UNL     1     -44.606 -57.930  34.482  0.00  0.00    +0.000 C 
BRANCH  19  20
ATOM     20  C   UNL     1     -44.090 -56.670  34.903  0.00  0.00    +0.000 A 
ATOM     21  C   UNL     1     -43.567 -55.785  33.961  0.00  0.00    +0.000 A 
ATOM     22  C   UNL     1     -43.057 -54.545  34.356  0.00  0.00    +0.000 A 
ATOM     23  C   UNL     1     -43.081 -54.211  35.713  0.00  0.00    +0.000 A 
ATOM     24  C   UNL     1     -43.602 -55.093  36.659  0.00  0.00    +0.000 A 
ATOM     25  C   UNL     1     -44.107 -56.324  36.252  0.00  0.00    +0.000 A 
BRANCH  22  26
ATOM     26  O   UNL     1     -42.525 -53.616  33.495  0.00  0.00    +0.000 OA
ATOM     27  C   UNL     1     -43.443 -52.991  32.637  0.00  0.00    +0.000 C 
ENDBRANCH  22  26
BRANCH  23  28
ATOM     28  O   UNL     1     -42.586 -53.003  36.121  0.00  0.00    +0.000 OA
ATOM     29  H   UNL     1     -42.156 -53.118  36.987  0.00  0.00    +0.000 HD
ENDBRANCH  23  28
ENDBRANCH  19  20
ENDBRANCH   4  18
TORSDOF 8
ENDMDL
