MODEL 1
REMARK VINA RESULT:     -11.7      0.000      0.000
REMARK  Name = Cyclosporin_A.pdbqt.pdb
REMARK  4 active torsions:
REMARK  status: ('A' for Active; 'I' for Inactive)
REMARK    1  A    between atoms: N_13  and  C_36
REMARK    2  A    between atoms: C_36  and  O_70
REMARK    3  A    between atoms: C_72  and  C_73
REMARK    4  A    between atoms: C_75  and  C_76
REMARK                            x       y       z     vdW  Elec       q    Type
REMARK                         _______ _______ _______ _____ _____    ______ ____
ROOT
ATOM      1  O   UNL     1     -47.406 -62.770  38.250  0.00  0.00    +0.000 OA
ATOM      2  O   UNL     1     -47.663 -59.502  34.304  0.00  0.00    +0.000 OA
ATOM      3  O   UNL     1     -43.278 -59.934  32.433  0.00  0.00    +0.000 OA
ATOM      4  O   UNL     1     -43.134 -63.323  40.586  0.00  0.00    +0.000 OA
ATOM      5  O   UNL     1     -47.531 -62.477  31.350  0.00  0.00    +0.000 OA
ATOM      6  O   UNL     1     -41.156 -71.772  31.101  0.00  0.00    +0.000 OA
ATOM      7  O   UNL     1     -46.189 -67.868  39.536  0.00  0.00    +0.000 OA
ATOM      8  O   UNL     1     -39.571 -70.222  35.501  0.00  0.00    +0.000 OA
ATOM      9  O   UNL     1     -43.275 -68.587  28.127  0.00  0.00    +0.000 OA
ATOM     10  O   UNL     1     -42.357 -69.838  38.494  0.00  0.00    +0.000 OA
ATOM     11  O   UNL     1     -46.526 -66.487  30.031  0.00  0.00    +0.000 OA
ATOM     12  N   UNL     1     -46.789 -60.696  35.553  0.00  0.00    +0.000 NA
ATOM     13  N   UNL     1     -45.132 -62.378  37.567  0.00  0.00    +0.000 NA
ATOM     14  N   UNL     1     -45.179 -59.674  32.941  0.00  0.00    +0.000 NA
ATOM     15  N   UNL     1     -45.032 -62.043  30.825  0.00  0.00    +0.000 NA
ATOM     16  N   UNL     1     -43.926 -64.889  38.891  0.00  0.00    +0.000 NA
ATOM     17  N   UNL     1     -40.648 -69.497  30.768  0.00  0.00    +0.000 N 
ATOM     18  N   UNL     1     -41.049 -69.478  33.845  0.00  0.00    +0.000 N 
ATOM     19  N   UNL     1     -42.062 -69.538  36.567  0.00  0.00    +0.000 NA
ATOM     20  N   UNL     1     -44.993 -67.461  37.644  0.00  0.00    +0.000 NA
ATOM     21  N   UNL     1     -45.019 -64.985  31.312  0.00  0.00    +0.000 NA
ATOM     22  N   UNL     1     -43.327 -67.958  30.458  0.00  0.00    +0.000 NA
ATOM     23  C   UNL     1     -47.282 -61.716  36.312  0.00  0.00    +0.000 C 
ATOM     24  C   UNL     1     -45.314 -60.328  34.098  0.00  0.00    +0.000 C 
ATOM     25  C   UNL     1     -44.565 -62.468  38.824  0.00  0.00    +0.000 C 
ATOM     26  C   UNL     1     -48.621 -61.846  36.635  0.00  0.00    +0.000 C 
ATOM     27  C   UNL     1     -44.157 -59.714  34.789  0.00  0.00    +0.000 C 
ATOM     28  C   UNL     1     -46.502 -62.266  37.308  0.00  0.00    +0.000 C 
ATOM     29  C   UNL     1     -46.660 -60.300  34.234  0.00  0.00    +0.000 C 
ATOM     30  C   UNL     1     -45.223 -60.805  31.189  0.00  0.00    +0.000 C 
ATOM     31  C   UNL     1     -44.418 -60.530  32.254  0.00  0.00    +0.000 C 
ATOM     32  C   UNL     1     -43.639 -63.556  39.258  0.00  0.00    +0.000 C 
ATOM     33  C   UNL     1     -49.131 -60.628  36.089  0.00  0.00    +0.000 C 
ATOM     34  C   UNL     1     -48.666 -62.324  37.903  0.00  0.00    +0.000 C 
ATOM     35  C   UNL     1     -48.040 -60.130  35.394  0.00  0.00    +0.000 C 
ATOM     36  C   UNL     1     -43.964 -59.001  33.244  0.00  0.00    +0.000 C 
ATOM     37  C   UNL     1     -44.730 -65.788  39.636  0.00  0.00    +0.000 C 
ATOM     38  C   UNL     1     -41.096 -70.565  33.010  0.00  0.00    +0.000 A 
ATOM     39  C   UNL     1     -46.114 -62.538  31.419  0.00  0.00    +0.000 C 
ATOM     40  C   UNL     1     -41.486 -69.233  29.655  0.00  0.00    +0.000 C 
ATOM     41  C   UNL     1     -40.886 -68.926  36.289  0.00  0.00    +0.000 C 
ATOM     42  C   UNL     1     -45.157 -61.619  29.407  0.00  0.00    +0.000 C 
ATOM     43  C   UNL     1     -41.333 -71.938  33.321  0.00  0.00    +0.000 A 
ATOM     44  C   UNL     1     -40.408 -69.857  28.339  0.00  0.00    +0.000 C 
ATOM     45  C   UNL     1     -45.864 -64.008  31.435  0.00  0.00    +0.000 C 
ATOM     46  C   UNL     1     -39.844 -69.853  36.854  0.00  0.00    +0.000 C 
ATOM     47  C   UNL     1     -44.994 -65.347  40.967  0.00  0.00    +0.000 C 
ATOM     48  C   UNL     1     -40.969 -70.515  31.626  0.00  0.00    +0.000 A 
ATOM     49  C   UNL     1     -45.244 -66.897  39.046  0.00  0.00    +0.000 C 
ATOM     50  C   UNL     1     -40.570 -69.502  35.069  0.00  0.00    +0.000 C 
ATOM     51  C   UNL     1     -42.707 -68.641  29.430  0.00  0.00    +0.000 C 
ATOM     52  C   UNL     1     -43.656 -68.057  37.571  0.00  0.00    +0.000 C 
ATOM     53  C   UNL     1     -41.624 -72.574  34.654  0.00  0.00    +0.000 C 
ATOM     54  C   UNL     1     -41.367 -72.630  32.137  0.00  0.00    +0.000 A 
ATOM     55  C   UNL     1     -42.421 -68.753  37.631  0.00  0.00    +0.000 C 
ATOM     56  C   UNL     1     -44.468 -67.354  30.376  0.00  0.00    +0.000 C 
ATOM     57  C   UNL     1     -47.191 -63.678  31.395  0.00  0.00    +0.000 C 
ATOM     58  C   UNL     1     -39.994 -69.874  29.646  0.00  0.00    +0.000 C 
ATOM     59  C   UNL     1     -44.825 -64.438  41.729  0.00  0.00    +0.000 C 
ATOM     60  C   UNL     1     -45.300 -66.129  30.705  0.00  0.00    +0.000 C 
ATOM     61  C   UNL     1     -41.549 -70.629  37.568  0.00  0.00    +0.000 C 
ATOM     62  C   UNL     1     -45.852 -68.143  38.377  0.00  0.00    +0.000 C 
ATOM     63  C   UNL     1     -45.709 -67.402  29.834  0.00  0.00    +0.000 C 
ATOM     64  H   UNL     1     -44.182 -64.954  37.906  0.00  0.00    +0.000 HD
ATOM     65  H   UNL     1     -41.616 -68.678  33.573  0.00  0.00    +0.000 HD
ATOM     66  H   UNL     1     -44.037 -64.771  31.462  0.00  0.00    +0.000 HD
ATOM     67  H   UNL     1     -42.654 -67.659  31.157  0.00  0.00    +0.000 HD
ATOM     68  C   UNL     1     -45.058 -61.854  39.864  0.00  0.00    +0.000 C 
ATOM     69  C   UNL     1     -45.004 -62.011  41.277  0.00  0.00    +0.000 C 
ATOM     70  C   UNL     1     -44.156 -63.178  41.592  0.00  0.00    +0.000 C 
ATOM     71  C   UNL     1     -43.780 -58.318  35.631  0.00  0.00    +0.000 C 
ATOM     72  C   UNL     1     -42.971 -58.220  36.684  0.00  0.00    +0.000 C 
ATOM     73  C   UNL     1     -43.617 -58.187  34.249  0.00  0.00    +0.000 C 
ATOM     74  C   UNL     1     -45.247 -60.256  29.826  0.00  0.00    +0.000 C 
ATOM     75  C   UNL     1     -45.969 -60.584  28.687  0.00  0.00    +0.000 C 
ATOM     76  C   UNL     1     -45.599 -60.003  27.305  0.00  0.00    +0.000 C 
ATOM     77  C   UNL     1     -46.234 -61.937  28.601  0.00  0.00    +0.000 C 
ATOM     78  C   UNL     1     -39.078 -70.261  38.199  0.00  0.00    +0.000 C 
ATOM     79  C   UNL     1     -37.875 -70.756  38.480  0.00  0.00    +0.000 C 
ATOM     80  C   UNL     1     -40.388 -70.735  38.281  0.00  0.00    +0.000 C 
ATOM     81  C   UNL     1     -41.083 -69.707  27.196  0.00  0.00    +0.000 C 
ATOM     82  C   UNL     1     -40.511 -70.104  25.876  0.00  0.00    +0.000 C 
ATOM     83  C   UNL     1     -42.366 -69.119  27.310  0.00  0.00    +0.000 C 
ENDROOT
BRANCH  69  84
ATOM     84  C   UNL     1     -45.906 -61.451  42.213  0.00  0.00    +0.000 C 
ATOM     85  C   UNL     1     -46.673 -60.982  43.009  0.00  0.00    +0.000 C 
BRANCH  85  86
ATOM     86  C   UNL     1     -47.654 -60.388  44.025  0.00  0.00    +0.000 C 
ATOM     87  C   UNL     1     -48.508 -59.877  44.911  0.00  0.00    +0.000 C 
ENDBRANCH  85  86
ENDBRANCH  69  84
BRANCH  13  88
ATOM     88  C   UNL     1     -44.279 -62.698  36.435  0.00  0.00    +0.000 C 
BRANCH  88  89
ATOM     89  O   UNL     1     -43.495 -63.013  35.412  0.00  0.00    +0.000 OA
ATOM     90  H   UNL     1     -42.566 -62.825  35.634  0.00  0.00    +0.000 HD
ENDBRANCH  88  89
ENDBRANCH  13  88
TORSDOF 4
ENDMDL
MODEL 2
REMARK VINA RESULT:     -10.5      4.966     11.995
REMARK  Name = Cyclosporin_A.pdbqt.pdb
REMARK  4 active torsions:
REMARK  status: ('A' for Active; 'I' for Inactive)
REMARK    1  A    between atoms: N_13  and  C_36
REMARK    2  A    between atoms: C_36  and  O_70
REMARK    3  A    between atoms: C_72  and  C_73
REMARK    4  A    between atoms: C_75  and  C_76
REMARK                            x       y       z     vdW  Elec       q    Type
REMARK                         _______ _______ _______ _____ _____    ______ ____
ROOT
ATOM      1  O   UNL     1     -42.075 -62.657  33.919  0.00  0.00    +0.000 OA
ATOM      2  O   UNL     1     -43.520 -65.631  29.998  0.00  0.00    +0.000 OA
ATOM      3  O   UNL     1     -47.123 -63.075  28.153  0.00  0.00    +0.000 OA
ATOM      4  O   UNL     1     -45.478 -60.039  36.280  0.00  0.00    +0.000 OA
ATOM      5  O   UNL     1     -42.179 -62.997  27.021  0.00  0.00    +0.000 OA
ATOM      6  O   UNL     1     -43.068 -51.761  26.745  0.00  0.00    +0.000 OA
ATOM      7  O   UNL     1     -40.573 -57.628  35.174  0.00  0.00    +0.000 OA
ATOM      8  O   UNL     1     -45.173 -52.299  31.166  0.00  0.00    +0.000 OA
ATOM      9  O   UNL     1     -42.850 -55.588  23.781  0.00  0.00    +0.000 OA
ATOM     10  O   UNL     1     -42.921 -54.013  34.144  0.00  0.00    +0.000 OA
ATOM     11  O   UNL     1     -41.062 -59.024  25.679  0.00  0.00    +0.000 OA
ATOM     12  N   UNL     1     -43.671 -64.156  31.243  0.00  0.00    +0.000 NA
ATOM     13  N   UNL     1     -44.247 -61.865  33.255  0.00  0.00    +0.000 NA
ATOM     14  N   UNL     1     -45.601 -64.247  28.650  0.00  0.00    +0.000 NA
ATOM     15  N   UNL     1     -44.566 -62.127  26.517  0.00  0.00    +0.000 NA
ATOM     16  N   UNL     1     -44.027 -59.083  34.568  0.00  0.00    +0.000 NA
ATOM     17  N   UNL     1     -44.647 -53.480  26.432  0.00  0.00    +0.000 N 
ATOM     18  N   UNL     1     -44.279 -53.687  29.507  0.00  0.00    +0.000 N 
ATOM     19  N   UNL     1     -43.345 -54.131  32.221  0.00  0.00    +0.000 NA
ATOM     20  N   UNL     1     -41.831 -57.390  33.294  0.00  0.00    +0.000 NA
ATOM     21  N   UNL     1     -43.105 -59.569  26.981  0.00  0.00    +0.000 NA
ATOM     22  N   UNL     1     -43.096 -56.152  26.116  0.00  0.00    +0.000 NA
ATOM     23  C   UNL     1     -42.726 -63.515  31.991  0.00  0.00    +0.000 C 
ATOM     24  C   UNL     1     -45.146 -63.743  29.801  0.00  0.00    +0.000 C 
ATOM     25  C   UNL     1     -44.682 -61.500  34.515  0.00  0.00    +0.000 C 
ATOM     26  C   UNL     1     -41.498 -64.069  32.304  0.00  0.00    +0.000 C 
ATOM     27  C   UNL     1     -46.448 -63.696  30.504  0.00  0.00    +0.000 C 
ATOM     28  C   UNL     1     -43.118 -62.646  32.988  0.00  0.00    +0.000 C 
ATOM     29  C   UNL     1     -43.992 -64.439  29.928  0.00  0.00    +0.000 C 
ATOM     30  C   UNL     1     -45.015 -63.294  26.889  0.00  0.00    +0.000 C 
ATOM     31  C   UNL     1     -45.839 -63.127  27.961  0.00  0.00    +0.000 C 
ATOM     32  C   UNL     1     -44.937 -60.093  34.947  0.00  0.00    +0.000 C 
ATOM     33  C   UNL     1     -41.669 -65.381  31.764  0.00  0.00    +0.000 C 
ATOM     34  C   UNL     1     -41.209 -63.674  33.568  0.00  0.00    +0.000 C 
ATOM     35  C   UNL     1     -42.870 -65.271  31.080  0.00  0.00    +0.000 C 
ATOM     36  C   UNL     1     -46.986 -64.222  28.966  0.00  0.00    +0.000 C 
ATOM     37  C   UNL     1     -42.874 -58.702  35.300  0.00  0.00    +0.000 C 
ATOM     38  C   UNL     1     -43.704 -52.771  28.663  0.00  0.00    +0.000 A 
ATOM     39  C   UNL     1     -43.376 -62.236  27.099  0.00  0.00    +0.000 C 
ATOM     40  C   UNL     1     -44.063 -54.131  25.316  0.00  0.00    +0.000 C 
ATOM     41  C   UNL     1     -44.672 -54.075  31.956  0.00  0.00    +0.000 C 
ATOM     42  C   UNL     1     -44.683 -62.562  25.101  0.00  0.00    +0.000 C 
ATOM     43  C   UNL     1     -42.811 -51.698  28.962  0.00  0.00    +0.000 A 
ATOM     44  C   UNL     1     -44.698 -53.057  24.002  0.00  0.00    +0.000 C 
ATOM     45  C   UNL     1     -42.859 -60.837  27.106  0.00  0.00    +0.000 C 
ATOM     46  C   UNL     1     -45.107 -52.750  32.520  0.00  0.00    +0.000 C 
ATOM     47  C   UNL     1     -42.853 -59.212  36.633  0.00  0.00    +0.000 C 
ATOM     48  C   UNL     1     -43.853 -52.755  27.280  0.00  0.00    +0.000 A 
ATOM     49  C   UNL     1     -41.882 -57.999  34.699  0.00  0.00    +0.000 C 
ATOM     50  C   UNL     1     -44.671 -53.423  30.733  0.00  0.00    +0.000 C 
ATOM     51  C   UNL     1     -43.303 -55.254  25.087  0.00  0.00    +0.000 C 
ATOM     52  C   UNL     1     -42.693 -56.207  33.225  0.00  0.00    +0.000 C 
ATOM     53  C   UNL     1     -42.228 -51.288  30.288  0.00  0.00    +0.000 C 
ATOM     54  C   UNL     1     -42.447 -51.120  27.772  0.00  0.00    +0.000 A 
ATOM     55  C   UNL     1     -43.416 -54.987  33.289  0.00  0.00    +0.000 C 
ATOM     56  C   UNL     1     -42.410 -57.245  26.031  0.00  0.00    +0.000 C 
ATOM     57  C   UNL     1     -41.873 -61.785  27.059  0.00  0.00    +0.000 C 
ATOM     58  C   UNL     1     -45.037 -52.831  25.311  0.00  0.00    +0.000 C 
ATOM     59  C   UNL     1     -43.445 -59.913  37.404  0.00  0.00    +0.000 C 
ATOM     60  C   UNL     1     -42.296 -58.720  26.364  0.00  0.00    +0.000 C 
ATOM     61  C   UNL     1     -43.236 -52.926  33.217  0.00  0.00    +0.000 C 
ATOM     62  C   UNL     1     -40.739 -57.225  34.016  0.00  0.00    +0.000 C 
ATOM     63  C   UNL     1     -41.315 -57.824  25.480  0.00  0.00    +0.000 C 
ATOM     64  H   UNL     1     -43.782 -59.157  33.581  0.00  0.00    +0.000 HD
ATOM     65  H   UNL     1     -44.189 -54.663  29.237  0.00  0.00    +0.000 HD
ATOM     66  H   UNL     1     -44.061 -59.264  27.140  0.00  0.00    +0.000 HD
ATOM     67  H   UNL     1     -43.822 -56.073  26.822  0.00  0.00    +0.000 HD
ATOM     68  C   UNL     1     -44.550 -62.274  35.557  0.00  0.00    +0.000 C 
ATOM     69  C   UNL     1     -44.505 -62.106  36.969  0.00  0.00    +0.000 C 
ATOM     70  C   UNL     1     -44.655 -60.671  37.281  0.00  0.00    +0.000 C 
ATOM     71  C   UNL     1     -47.463 -64.714  31.359  0.00  0.00    +0.000 C 
ATOM     72  C   UNL     1     -48.203 -64.393  32.419  0.00  0.00    +0.000 C 
ATOM     73  C   UNL     1     -47.683 -64.752  29.979  0.00  0.00    +0.000 C 
ATOM     74  C   UNL     1     -45.281 -63.787  25.530  0.00  0.00    +0.000 C 
ATOM     75  C   UNL     1     -44.502 -63.866  24.384  0.00  0.00    +0.000 C 
ATOM     76  C   UNL     1     -45.126 -64.190  23.009  0.00  0.00    +0.000 C 
ATOM     77  C   UNL     1     -43.598 -62.826  24.285  0.00  0.00    +0.000 C 
ATOM     78  C   UNL     1     -45.555 -52.010  33.867  0.00  0.00    +0.000 C 
ATOM     79  C   UNL     1     -46.347 -50.980  34.153  0.00  0.00    +0.000 C 
ATOM     80  C   UNL     1     -44.182 -52.253  33.937  0.00  0.00    +0.000 C 
ATOM     81  C   UNL     1     -44.200 -53.527  22.856  0.00  0.00    +0.000 C 
ATOM     82  C   UNL     1     -44.510 -52.902  21.536  0.00  0.00    +0.000 C 
ATOM     83  C   UNL     1     -43.380 -54.677  22.965  0.00  0.00    +0.000 C 
ENDROOT
BRANCH  69  84
ATOM     84  C   UNL     1     -43.995 -63.039  37.903  0.00  0.00    +0.000 C 
ATOM     85  C   UNL     1     -43.570 -63.835  38.696  0.00  0.00    +0.000 C 
BRANCH  85  86
ATOM     86  C   UNL     1     -43.031 -64.850  39.709  0.00  0.00    +0.000 C 
ATOM     87  C   UNL     1     -42.564 -65.737  40.586  0.00  0.00    +0.000 C 
ENDBRANCH  85  86
ENDBRANCH  69  84
BRANCH  13  88
ATOM     88  C   UNL     1     -44.838 -61.165  32.127  0.00  0.00    +0.000 C 
BRANCH  88  89
ATOM     89  O   UNL     1     -45.382 -60.507  31.112  0.00  0.00    +0.000 OA
ATOM     90  H   UNL     1     -44.701 -60.297  30.448  0.00  0.00    +0.000 HD
ENDBRANCH  88  89
ENDBRANCH  13  88
TORSDOF 4
ENDMDL
MODEL 3
REMARK VINA RESULT:      -9.7      4.930     10.207
REMARK  Name = Cyclosporin_A.pdbqt.pdb
REMARK  4 active torsions:
REMARK  status: ('A' for Active; 'I' for Inactive)
REMARK    1  A    between atoms: N_13  and  C_36
REMARK    2  A    between atoms: C_36  and  O_70
REMARK    3  A    between atoms: C_72  and  C_73
REMARK    4  A    between atoms: C_75  and  C_76
REMARK                            x       y       z     vdW  Elec       q    Type
REMARK                         _______ _______ _______ _____ _____    ______ ____
ROOT
ATOM      1  O   UNL     1     -41.048 -58.712  32.589  0.00  0.00    +0.000 OA
ATOM      2  O   UNL     1     -36.024 -59.742  32.485  0.00  0.00    +0.000 OA
ATOM      3  O   UNL     1     -35.168 -60.730  37.091  0.00  0.00    +0.000 OA
ATOM      4  O   UNL     1     -42.940 -56.572  36.570  0.00  0.00    +0.000 OA
ATOM      5  O   UNL     1     -36.468 -63.833  33.295  0.00  0.00    +0.000 OA
ATOM      6  O   UNL     1     -43.507 -68.770  40.587  0.00  0.00    +0.000 OA
ATOM      7  O   UNL     1     -45.812 -60.701  34.162  0.00  0.00    +0.000 OA
ATOM      8  O   UNL     1     -45.076 -64.179  41.440  0.00  0.00    +0.000 OA
ATOM      9  O   UNL     1     -39.165 -69.411  38.534  0.00  0.00    +0.000 OA
ATOM     10  O   UNL     1     -46.674 -62.101  38.278  0.00  0.00    +0.000 OA
ATOM     11  O   UNL     1     -38.745 -67.175  34.870  0.00  0.00    +0.000 OA
ATOM     12  N   UNL     1     -37.736 -59.386  33.318  0.00  0.00    +0.000 NA
ATOM     13  N   UNL     1     -40.308 -58.621  34.876  0.00  0.00    +0.000 NA
ATOM     14  N   UNL     1     -35.291 -60.488  35.125  0.00  0.00    +0.000 NA
ATOM     15  N   UNL     1     -35.794 -63.559  35.780  0.00  0.00    +0.000 NA
ATOM     16  N   UNL     1     -43.088 -58.973  36.164  0.00  0.00    +0.000 NA
ATOM     17  N   UNL     1     -41.531 -67.528  40.892  0.00  0.00    +0.000 N 
ATOM     18  N   UNL     1     -43.458 -65.225  40.111  0.00  0.00    +0.000 N 
ATOM     19  N   UNL     1     -45.225 -63.342  38.778  0.00  0.00    +0.000 NA
ATOM     20  N   UNL     1     -44.299 -61.702  35.535  0.00  0.00    +0.000 NA
ATOM     21  N   UNL     1     -38.384 -65.015  36.040  0.00  0.00    +0.000 NA
ATOM     22  N   UNL     1     -40.148 -67.243  38.126  0.00  0.00    +0.000 NA
ATOM     23  C   UNL     1     -39.008 -59.520  32.842  0.00  0.00    +0.000 C 
ATOM     24  C   UNL     1     -36.529 -60.031  34.916  0.00  0.00    +0.000 C 
ATOM     25  C   UNL     1     -41.169 -57.622  35.289  0.00  0.00    +0.000 C 
ATOM     26  C   UNL     1     -39.316 -59.571  31.495  0.00  0.00    +0.000 C 
ATOM     27  C   UNL     1     -36.486 -58.933  35.907  0.00  0.00    +0.000 C 
ATOM     28  C   UNL     1     -40.061 -58.972  33.545  0.00  0.00    +0.000 C 
ATOM     29  C   UNL     1     -36.597 -60.129  33.567  0.00  0.00    +0.000 C 
ATOM     30  C   UNL     1     -35.063 -62.542  35.418  0.00  0.00    +0.000 C 
ATOM     31  C   UNL     1     -35.521 -61.424  36.051  0.00  0.00    +0.000 C 
ATOM     32  C   UNL     1     -42.285 -57.816  36.262  0.00  0.00    +0.000 C 
ATOM     33  C   UNL     1     -38.028 -59.314  30.932  0.00  0.00    +0.000 C 
ATOM     34  C   UNL     1     -40.486 -58.904  31.342  0.00  0.00    +0.000 C 
ATOM     35  C   UNL     1     -37.200 -59.359  32.044  0.00  0.00    +0.000 C 
ATOM     36  C   UNL     1     -34.958 -59.641  36.216  0.00  0.00    +0.000 C 
ATOM     37  C   UNL     1     -44.257 -59.093  35.371  0.00  0.00    +0.000 C 
ATOM     38  C   UNL     1     -43.775 -66.548  40.281  0.00  0.00    +0.000 A 
ATOM     39  C   UNL     1     -36.555 -63.588  34.691  0.00  0.00    +0.000 C 
ATOM     40  C   UNL     1     -40.626 -68.352  40.176  0.00  0.00    +0.000 C 
ATOM     41  C   UNL     1     -44.572 -62.984  39.910  0.00  0.00    +0.000 C 
ATOM     42  C   UNL     1     -34.570 -64.402  35.790  0.00  0.00    +0.000 C 
ATOM     43  C   UNL     1     -45.037 -67.203  40.153  0.00  0.00    +0.000 A 
ATOM     44  C   UNL     1     -40.277 -69.573  41.469  0.00  0.00    +0.000 C 
ATOM     45  C   UNL     1     -37.705 -64.450  35.089  0.00  0.00    +0.000 C 
ATOM     46  C   UNL     1     -45.645 -62.958  40.964  0.00  0.00    +0.000 C 
ATOM     47  C   UNL     1     -44.756 -57.842  34.899  0.00  0.00    +0.000 C 
ATOM     48  C   UNL     1     -42.863 -67.557  40.575  0.00  0.00    +0.000 A 
ATOM     49  C   UNL     1     -44.747 -60.318  35.054  0.00  0.00    +0.000 C 
ATOM     50  C   UNL     1     -44.248 -64.225  40.433  0.00  0.00    +0.000 C 
ATOM     51  C   UNL     1     -40.028 -68.355  38.938  0.00  0.00    +0.000 C 
ATOM     52  C   UNL     1     -44.713 -61.911  36.926  0.00  0.00    +0.000 C 
ATOM     53  C   UNL     1     -46.372 -66.625  39.766  0.00  0.00    +0.000 C 
ATOM     54  C   UNL     1     -44.827 -68.546  40.339  0.00  0.00    +0.000 A 
ATOM     55  C   UNL     1     -45.288 -62.097  38.210  0.00  0.00    +0.000 C 
ATOM     56  C   UNL     1     -39.630 -67.115  36.948  0.00  0.00    +0.000 C 
ATOM     57  C   UNL     1     -37.428 -64.492  33.750  0.00  0.00    +0.000 C 
ATOM     58  C   UNL     1     -41.114 -68.515  41.717  0.00  0.00    +0.000 C 
ATOM     59  C   UNL     1     -44.531 -56.665  34.876  0.00  0.00    +0.000 C 
ATOM     60  C   UNL     1     -38.890 -66.237  35.958  0.00  0.00    +0.000 C 
ATOM     61  C   UNL     1     -46.701 -63.171  39.274  0.00  0.00    +0.000 C 
ATOM     62  C   UNL     1     -45.293 -61.704  34.667  0.00  0.00    +0.000 C 
ATOM     63  C   UNL     1     -39.328 -67.763  35.796  0.00  0.00    +0.000 C 
ATOM     64  H   UNL     1     -42.518 -59.810  36.041  0.00  0.00    +0.000 HD
ATOM     65  H   UNL     1     -42.668 -65.027  39.502  0.00  0.00    +0.000 HD
ATOM     66  H   UNL     1     -38.310 -64.607  36.968  0.00  0.00    +0.000 HD
ATOM     67  H   UNL     1     -40.355 -66.412  38.672  0.00  0.00    +0.000 HD
ATOM     68  C   UNL     1     -41.350 -56.524  34.608  0.00  0.00    +0.000 C 
ATOM     69  C   UNL     1     -42.364 -55.531  34.502  0.00  0.00    +0.000 C 
ATOM     70  C   UNL     1     -43.465 -55.878  35.422  0.00  0.00    +0.000 C 
ATOM     71  C   UNL     1     -35.933 -57.358  36.028  0.00  0.00    +0.000 C 
ATOM     72  C   UNL     1     -36.519 -56.358  36.685  0.00  0.00    +0.000 C 
ATOM     73  C   UNL     1     -34.958 -58.308  36.347  0.00  0.00    +0.000 C 
ATOM     74  C   UNL     1     -33.778 -63.247  35.506  0.00  0.00    +0.000 C 
ATOM     75  C   UNL     1     -33.315 -64.441  34.970  0.00  0.00    +0.000 C 
ATOM     76  C   UNL     1     -31.992 -65.078  35.446  0.00  0.00    +0.000 C 
ATOM     77  C   UNL     1     -34.312 -65.392  34.861  0.00  0.00    +0.000 C 
ATOM     78  C   UNL     1     -46.808 -62.057  41.595  0.00  0.00    +0.000 C 
ATOM     79  C   UNL     1     -47.367 -61.954  42.798  0.00  0.00    +0.000 C 
ATOM     80  C   UNL     1     -47.231 -62.502  40.342  0.00  0.00    +0.000 C 
ATOM     81  C   UNL     1     -39.441 -70.464  40.930  0.00  0.00    +0.000 C 
ATOM     82  C   UNL     1     -38.915 -71.630  41.700  0.00  0.00    +0.000 C 
ATOM     83  C   UNL     1     -39.060 -70.220  39.588  0.00  0.00    +0.000 C 
ENDROOT
BRANCH  69  84
ATOM     84  C   UNL     1     -42.521 -54.612  33.438  0.00  0.00    +0.000 C 
ATOM     85  C   UNL     1     -42.662 -53.833  32.534  0.00  0.00    +0.000 C 
BRANCH  85  86
ATOM     86  C   UNL     1     -42.847 -52.841  31.381  0.00  0.00    +0.000 C 
ATOM     87  C   UNL     1     -43.006 -51.975  30.382  0.00  0.00    +0.000 C 
ENDBRANCH  85  86
ENDBRANCH  69  84
BRANCH  13  88
ATOM     88  C   UNL     1     -39.840 -59.548  35.893  0.00  0.00    +0.000 C 
BRANCH  88  89
ATOM     89  O   UNL     1     -39.427 -60.412  36.811  0.00  0.00    +0.000 OA
ATOM     90  H   UNL     1     -39.121 -61.232  36.382  0.00  0.00    +0.000 HD
ENDBRANCH  88  89
ENDBRANCH  13  88
TORSDOF 4
ENDMDL
MODEL 4
REMARK VINA RESULT:      -9.5      4.979     10.931
REMARK  Name = Cyclosporin_A.pdbqt.pdb
REMARK  4 active torsions:
REMARK  status: ('A' for Active; 'I' for Inactive)
REMARK    1  A    between atoms: N_13  and  C_36
REMARK    2  A    between atoms: C_36  and  O_70
REMARK    3  A    between atoms: C_72  and  C_73
REMARK    4  A    between atoms: C_75  and  C_76
REMARK                            x       y       z     vdW  Elec       q    Type
REMARK                         _______ _______ _______ _____ _____    ______ ____
ROOT
ATOM      1  O   UNL     1     -40.327 -67.642  35.900  0.00  0.00    +0.000 OA
ATOM      2  O   UNL     1     -45.318 -66.802  36.735  0.00  0.00    +0.000 OA
ATOM      3  O   UNL     1     -45.173 -62.822  39.392  0.00  0.00    +0.000 OA
ATOM      4  O   UNL     1     -37.108 -66.417  39.384  0.00  0.00    +0.000 OA
ATOM      5  O   UNL     1     -45.516 -63.351  34.359  0.00  0.00    +0.000 OA
ATOM      6  O   UNL     1     -38.012 -54.971  33.603  0.00  0.00    +0.000 OA
ATOM      7  O   UNL     1     -35.821 -65.300  34.075  0.00  0.00    +0.000 OA
ATOM      8  O   UNL     1     -35.391 -57.676  36.778  0.00  0.00    +0.000 OA
ATOM      9  O   UNL     1     -42.767 -55.807  33.193  0.00  0.00    +0.000 OA
ATOM     10  O   UNL     1     -34.254 -61.437  35.581  0.00  0.00    +0.000 OA
ATOM     11  O   UNL     1     -43.635 -59.959  32.413  0.00  0.00    +0.000 OA
ATOM     12  N   UNL     1     -43.417 -66.530  36.982  0.00  0.00    +0.000 NA
ATOM     13  N   UNL     1     -40.437 -66.066  37.713  0.00  0.00    +0.000 NA
ATOM     14  N   UNL     1     -45.500 -64.384  38.213  0.00  0.00    +0.000 NA
ATOM     15  N   UNL     1     -45.476 -61.767  36.407  0.00  0.00    +0.000 NA
ATOM     16  N   UNL     1     -37.552 -65.010  37.442  0.00  0.00    +0.000 NA
ATOM     17  N   UNL     1     -39.558 -55.563  35.277  0.00  0.00    +0.000 N 
ATOM     18  N   UNL     1     -37.466 -57.815  35.705  0.00  0.00    +0.000 N 
ATOM     19  N   UNL     1     -35.750 -60.152  35.533  0.00  0.00    +0.000 NA
ATOM     20  N   UNL     1     -37.110 -63.567  34.790  0.00  0.00    +0.000 NA
ATOM     21  N   UNL     1     -43.250 -60.649  34.767  0.00  0.00    +0.000 NA
ATOM     22  N   UNL     1     -41.504 -57.665  34.078  0.00  0.00    +0.000 NA
ATOM     23  C   UNL     1     -42.358 -66.817  36.171  0.00  0.00    +0.000 C 
ATOM     24  C   UNL     1     -44.289 -64.901  37.989  0.00  0.00    +0.000 C 
ATOM     25  C   UNL     1     -39.318 -66.513  38.389  0.00  0.00    +0.000 C 
ATOM     26  C   UNL     1     -42.414 -67.743  35.145  0.00  0.00    +0.000 C 
ATOM     27  C   UNL     1     -43.861 -64.977  39.405  0.00  0.00    +0.000 C 
ATOM     28  C   UNL     1     -41.075 -66.747  36.672  0.00  0.00    +0.000 C 
ATOM     29  C   UNL     1     -44.582 -65.786  37.008  0.00  0.00    +0.000 C 
ATOM     30  C   UNL     1     -46.055 -62.716  37.089  0.00  0.00    +0.000 C 
ATOM     31  C   UNL     1     -45.239 -63.077  38.120  0.00  0.00    +0.000 C 
ATOM     32  C   UNL     1     -38.055 -65.730  38.547  0.00  0.00    +0.000 C 
ATOM     33  C   UNL     1     -43.724 -68.274  35.357  0.00  0.00    +0.000 C 
ATOM     34  C   UNL     1     -41.211 -68.365  35.122  0.00  0.00    +0.000 C 
ATOM     35  C   UNL     1     -44.238 -67.428  36.327  0.00  0.00    +0.000 C 
ATOM     36  C   UNL     1     -45.373 -64.202  39.617  0.00  0.00    +0.000 C 
ATOM     37  C   UNL     1     -36.667 -65.528  36.462  0.00  0.00    +0.000 C 
ATOM     38  C   UNL     1     -37.389 -56.769  34.821  0.00  0.00    +0.000 A 
ATOM     39  C   UNL     1     -45.034 -62.543  35.422  0.00  0.00    +0.000 C 
ATOM     40  C   UNL     1     -40.760 -55.451  34.533  0.00  0.00    +0.000 C 
ATOM     41  C   UNL     1     -36.013 -59.584  36.734  0.00  0.00    +0.000 C 
ATOM     42  C   UNL     1     -46.802 -61.119  36.233  0.00  0.00    +0.000 C 
ATOM     43  C   UNL     1     -36.357 -56.443  33.889  0.00  0.00    +0.000 A 
ATOM     44  C   UNL     1     -41.012 -53.662  34.674  0.00  0.00    +0.000 C 
ATOM     45  C   UNL     1     -44.018 -61.694  34.736  0.00  0.00    +0.000 C 
ATOM     46  C   UNL     1     -34.727 -58.897  37.109  0.00  0.00    +0.000 C 
ATOM     47  C   UNL     1     -36.062 -66.765  36.837  0.00  0.00    +0.000 C 
ATOM     48  C   UNL     1     -38.382 -55.815  34.623  0.00  0.00    +0.000 A 
ATOM     49  C   UNL     1     -36.528 -64.903  35.266  0.00  0.00    +0.000 C 
ATOM     50  C   UNL     1     -36.437 -58.324  36.344  0.00  0.00    +0.000 C 
ATOM     51  C   UNL     1     -41.638 -56.301  33.901  0.00  0.00    +0.000 C 
ATOM     52  C   UNL     1     -36.412 -62.453  35.438  0.00  0.00    +0.000 C 
ATOM     53  C   UNL     1     -35.074 -57.174  33.598  0.00  0.00    +0.000 C 
ATOM     54  C   UNL     1     -36.779 -55.354  33.170  0.00  0.00    +0.000 A 
ATOM     55  C   UNL     1     -35.583 -61.437  35.980  0.00  0.00    +0.000 C 
ATOM     56  C   UNL     1     -42.264 -58.568  33.548  0.00  0.00    +0.000 C 
ATOM     57  C   UNL     1     -44.625 -62.600  33.908  0.00  0.00    +0.000 C 
ATOM     58  C   UNL     1     -39.945 -54.267  35.288  0.00  0.00    +0.000 C 
ATOM     59  C   UNL     1     -36.045 -67.606  37.691  0.00  0.00    +0.000 C 
ATOM     60  C   UNL     1     -43.037 -59.860  33.723  0.00  0.00    +0.000 C 
ATOM     61  C   UNL     1     -34.193 -59.978  35.507  0.00  0.00    +0.000 C 
ATOM     62  C   UNL     1     -36.386 -64.214  33.896  0.00  0.00    +0.000 C 
ATOM     63  C   UNL     1     -42.969 -58.911  32.442  0.00  0.00    +0.000 C 
ATOM     64  H   UNL     1     -38.290 -64.484  36.975  0.00  0.00    +0.000 HD
ATOM     65  H   UNL     1     -38.328 -58.355  35.687  0.00  0.00    +0.000 HD
ATOM     66  H   UNL     1     -43.005 -60.280  35.682  0.00  0.00    +0.000 HD
ATOM     67  H   UNL     1     -41.004 -57.876  34.937  0.00  0.00    +0.000 HD
ATOM     68  C   UNL     1     -39.096 -67.777  38.624  0.00  0.00    +0.000 C 
ATOM     69  C   UNL     1     -37.964 -68.592  38.903  0.00  0.00    +0.000 C 
ATOM     70  C   UNL     1     -36.759 -67.739  38.926  0.00  0.00    +0.000 C 
ATOM     71  C   UNL     1     -44.038 -65.986  40.727  0.00  0.00    +0.000 C 
ATOM     72  C   UNL     1     -43.118 -66.252  41.653  0.00  0.00    +0.000 C 
ATOM     73  C   UNL     1     -45.072 -65.053  40.606  0.00  0.00    +0.000 C 
ATOM     74  C   UNL     1     -47.392 -62.107  37.080  0.00  0.00    +0.000 C 
ATOM     75  C   UNL     1     -48.204 -61.623  36.063  0.00  0.00    +0.000 C 
ATOM     76  C   UNL     1     -49.465 -60.788  36.370  0.00  0.00    +0.000 C 
ATOM     77  C   UNL     1     -47.478 -61.064  35.028  0.00  0.00    +0.000 C 
ATOM     78  C   UNL     1     -33.287 -59.133  37.766  0.00  0.00    +0.000 C 
ATOM     79  C   UNL     1     -32.435 -58.377  38.455  0.00  0.00    +0.000 C 
ATOM     80  C   UNL     1     -33.289 -59.717  36.499  0.00  0.00    +0.000 C 
ATOM     81  C   UNL     1     -42.117 -53.381  33.980  0.00  0.00    +0.000 C 
ATOM     82  C   UNL     1     -42.656 -51.993  33.869  0.00  0.00    +0.000 C 
ATOM     83  C   UNL     1     -42.765 -54.486  33.377  0.00  0.00    +0.000 C 
ENDROOT
BRANCH  69  84
ATOM     84  C   UNL     1     -37.897 -69.999  38.770  0.00  0.00    +0.000 C 
ATOM     85  C   UNL     1     -37.835 -71.194  38.663  0.00  0.00    +0.000 C 
BRANCH  85  86
ATOM     86  C   UNL     1     -37.751 -72.718  38.528  0.00  0.00    +0.000 C 
ATOM     87  C   UNL     1     -37.678 -74.043  38.417  0.00  0.00    +0.000 C 
ENDBRANCH  85  86
ENDBRANCH  69  84
BRANCH  13  88
ATOM     88  C   UNL     1     -40.811 -64.675  37.908  0.00  0.00    +0.000 C 
BRANCH  88  89
ATOM     89  O   UNL     1     -41.128 -63.399  38.087  0.00  0.00    +0.000 OA
ATOM     90  H   UNL     1     -42.033 -63.233  37.767  0.00  0.00    +0.000 HD
ENDBRANCH  88  89
ENDBRANCH  13  88
TORSDOF 4
ENDMDL
MODEL 5
REMARK VINA RESULT:      -9.3     16.861     22.775
REMARK  Name = Cyclosporin_A.pdbqt.pdb
REMARK  4 active torsions:
REMARK  status: ('A' for Active; 'I' for Inactive)
REMARK    1  A    between atoms: N_13  and  C_36
REMARK    2  A    between atoms: C_36  and  O_70
REMARK    3  A    between atoms: C_72  and  C_73
REMARK    4  A    between atoms: C_75  and  C_76
REMARK                            x       y       z     vdW  Elec       q    Type
REMARK                         _______ _______ _______ _____ _____    ______ ____
ROOT
ATOM      1  O   UNL     1     -27.063 -67.214  53.580  0.00  0.00    +0.000 OA
ATOM      2  O   UNL     1     -30.860 -70.625  53.071  0.00  0.00    +0.000 OA
ATOM      3  O   UNL     1     -34.616 -67.752  52.324  0.00  0.00    +0.000 OA
ATOM      4  O   UNL     1     -28.042 -62.877  55.639  0.00  0.00    +0.000 OA
ATOM      5  O   UNL     1     -31.462 -69.902  48.983  0.00  0.00    +0.000 OA
ATOM      6  O   UNL     1     -31.454 -60.005  43.583  0.00  0.00    +0.000 OA
ATOM      7  O   UNL     1     -24.722 -62.996  51.162  0.00  0.00    +0.000 OA
ATOM      8  O   UNL     1     -30.384 -58.134  48.012  0.00  0.00    +0.000 OA
ATOM      9  O   UNL     1     -33.425 -64.424  43.327  0.00  0.00    +0.000 OA
ATOM     10  O   UNL     1     -26.911 -59.385  49.813  0.00  0.00    +0.000 OA
ATOM     11  O   UNL     1     -31.118 -67.368  45.477  0.00  0.00    +0.000 OA
ATOM     12  N   UNL     1     -30.088 -68.861  53.275  0.00  0.00    +0.000 NA
ATOM     13  N   UNL     1     -29.107 -65.968  53.820  0.00  0.00    +0.000 NA
ATOM     14  N   UNL     1     -33.212 -69.145  52.488  0.00  0.00    +0.000 NA
ATOM     15  N   UNL     1     -33.568 -68.454  49.404  0.00  0.00    +0.000 NA
ATOM     16  N   UNL     1     -27.903 -63.191  53.225  0.00  0.00    +0.000 NA
ATOM     17  N   UNL     1     -33.012 -61.014  45.032  0.00  0.00    +0.000 N 
ATOM     18  N   UNL     1     -30.829 -60.242  47.098  0.00  0.00    +0.000 N 
ATOM     19  N   UNL     1     -28.446 -60.010  48.744  0.00  0.00    +0.000 NA
ATOM     20  N   UNL     1     -26.853 -62.992  50.367  0.00  0.00    +0.000 NA
ATOM     21  N   UNL     1     -31.942 -66.627  47.698  0.00  0.00    +0.000 NA
ATOM     22  N   UNL     1     -32.208 -63.995  45.369  0.00  0.00    +0.000 NA
ATOM     23  C   UNL     1     -28.837 -68.393  52.995  0.00  0.00    +0.000 C 
ATOM     24  C   UNL     1     -32.102 -68.473  52.808  0.00  0.00    +0.000 C 
ATOM     25  C   UNL     1     -28.634 -65.050  54.737  0.00  0.00    +0.000 C 
ATOM     26  C   UNL     1     -27.728 -69.211  52.869  0.00  0.00    +0.000 C 
ATOM     27  C   UNL     1     -32.676 -67.705  53.937  0.00  0.00    +0.000 C 
ATOM     28  C   UNL     1     -28.455 -67.149  53.453  0.00  0.00    +0.000 C 
ATOM     29  C   UNL     1     -31.178 -69.450  52.661  0.00  0.00    +0.000 C 
ATOM     30  C   UNL     1     -33.777 -69.162  50.480  0.00  0.00    +0.000 C 
ATOM     31  C   UNL     1     -33.739 -68.336  51.564  0.00  0.00    +0.000 C 
ATOM     32  C   UNL     1     -28.454 -63.592  54.460  0.00  0.00    +0.000 C 
ATOM     33  C   UNL     1     -28.300 -70.467  53.239  0.00  0.00    +0.000 C 
ATOM     34  C   UNL     1     -26.686 -68.531  53.406  0.00  0.00    +0.000 C 
ATOM     35  C   UNL     1     -29.652 -70.172  53.316  0.00  0.00    +0.000 C 
ATOM     36  C   UNL     1     -34.093 -68.503  53.401  0.00  0.00    +0.000 C 
ATOM     37  C   UNL     1     -26.520 -63.030  52.959  0.00  0.00    +0.000 C 
ATOM     38  C   UNL     1     -30.834 -59.964  45.755  0.00  0.00    +0.000 A 
ATOM     39  C   UNL     1     -32.287 -68.780  49.262  0.00  0.00    +0.000 C 
ATOM     40  C   UNL     1     -33.302 -62.183  44.282  0.00  0.00    +0.000 C 
ATOM     41  C   UNL     1     -29.641 -59.568  49.204  0.00  0.00    +0.000 C 
ATOM     42  C   UNL     1     -34.574 -69.285  48.693  0.00  0.00    +0.000 C 
ATOM     43  C   UNL     1     -29.869 -59.263  44.969  0.00  0.00    +0.000 A 
ATOM     44  C   UNL     1     -34.531 -61.489  43.146  0.00  0.00    +0.000 C 
ATOM     45  C   UNL     1     -31.772 -67.764  48.300  0.00  0.00    +0.000 C 
ATOM     46  C   UNL     1     -29.526 -58.068  49.153  0.00  0.00    +0.000 C 
ATOM     47  C   UNL     1     -25.713 -63.006  54.136  0.00  0.00    +0.000 C 
ATOM     48  C   UNL     1     -31.809 -60.383  44.855  0.00  0.00    +0.000 A 
ATOM     49  C   UNL     1     -26.066 -63.002  51.681  0.00  0.00    +0.000 C 
ATOM     50  C   UNL     1     -30.350 -59.439  48.021  0.00  0.00    +0.000 C 
ATOM     51  C   UNL     1     -32.939 -63.509  44.302  0.00  0.00    +0.000 C 
ATOM     52  C   UNL     1     -27.475 -61.681  50.160  0.00  0.00    +0.000 C 
ATOM     53  C   UNL     1     -28.558 -58.656  45.394  0.00  0.00    +0.000 C 
ATOM     54  C   UNL     1     -30.281 -59.319  43.662  0.00  0.00    +0.000 A 
ATOM     55  C   UNL     1     -27.904 -60.344  49.957  0.00  0.00    +0.000 C 
ATOM     56  C   UNL     1     -31.811 -65.218  45.511  0.00  0.00    +0.000 C 
ATOM     57  C   UNL     1     -31.106 -68.959  48.244  0.00  0.00    +0.000 C 
ATOM     58  C   UNL     1     -33.962 -60.708  44.119  0.00  0.00    +0.000 C 
ATOM     59  C   UNL     1     -25.750 -63.119  55.329  0.00  0.00    +0.000 C 
ATOM     60  C   UNL     1     -31.630 -66.411  46.429  0.00  0.00    +0.000 C 
ATOM     61  C   UNL     1     -27.649 -58.662  48.778  0.00  0.00    +0.000 C 
ATOM     62  C   UNL     1     -25.540 -62.997  50.234  0.00  0.00    +0.000 C 
ATOM     63  C   UNL     1     -31.346 -66.313  44.862  0.00  0.00    +0.000 C 
ATOM     64  H   UNL     1     -28.332 -63.694  52.447  0.00  0.00    +0.000 HD
ATOM     65  H   UNL     1     -31.002 -61.211  47.356  0.00  0.00    +0.000 HD
ATOM     66  H   UNL     1     -32.565 -65.957  48.142  0.00  0.00    +0.000 HD
ATOM     67  H   UNL     1     -32.328 -63.411  46.191  0.00  0.00    +0.000 HD
ATOM     68  C   UNL     1     -27.944 -65.396  55.789  0.00  0.00    +0.000 C 
ATOM     69  C   UNL     1     -27.017 -64.770  56.668  0.00  0.00    +0.000 C 
ATOM     70  C   UNL     1     -26.828 -63.370  56.239  0.00  0.00    +0.000 C 
ATOM     71  C   UNL     1     -33.014 -67.907  55.563  0.00  0.00    +0.000 C 
ATOM     72  C   UNL     1     -32.906 -66.984  56.518  0.00  0.00    +0.000 C 
ATOM     73  C   UNL     1     -34.047 -68.345  54.729  0.00  0.00    +0.000 C 
ATOM     74  C   UNL     1     -34.868 -69.968  49.914  0.00  0.00    +0.000 C 
ATOM     75  C   UNL     1     -34.981 -70.727  48.757  0.00  0.00    +0.000 C 
ATOM     76  C   UNL     1     -36.347 -71.261  48.276  0.00  0.00    +0.000 C 
ATOM     77  C   UNL     1     -34.257 -70.199  47.705  0.00  0.00    +0.000 C 
ATOM     78  C   UNL     1     -28.980 -56.792  49.949  0.00  0.00    +0.000 C 
ATOM     79  C   UNL     1     -29.339 -55.514  50.032  0.00  0.00    +0.000 C 
ATOM     80  C   UNL     1     -27.885 -57.481  49.423  0.00  0.00    +0.000 C 
ATOM     81  C   UNL     1     -34.892 -62.481  42.329  0.00  0.00    +0.000 C 
ATOM     82  C   UNL     1     -35.906 -62.295  41.249  0.00  0.00    +0.000 C 
ATOM     83  C   UNL     1     -34.274 -63.733  42.568  0.00  0.00    +0.000 C 
ENDROOT
BRANCH  69  84
ATOM     84  C   UNL     1     -26.111 -65.431  57.531  0.00  0.00    +0.000 C 
ATOM     85  C   UNL     1     -25.336 -65.988  58.260  0.00  0.00    +0.000 C 
BRANCH  85  86
ATOM     86  C   UNL     1     -24.343 -66.699  59.186  0.00  0.00    +0.000 C 
ATOM     87  C   UNL     1     -23.484 -67.315  59.996  0.00  0.00    +0.000 C 
ENDBRANCH  85  86
ENDBRANCH  69  84
BRANCH  13  88
ATOM     88  C   UNL     1     -30.215 -65.547  52.979  0.00  0.00    +0.000 C 
BRANCH  88  89
ATOM     89  O   UNL     1     -31.223 -65.139  52.219  0.00  0.00    +0.000 OA
ATOM     90  H   UNL     1     -31.783 -64.515  52.715  0.00  0.00    +0.000 HD
ENDBRANCH  88  89
ENDBRANCH  13  88
TORSDOF 4
ENDMDL
MODEL 6
REMARK VINA RESULT:      -8.8     23.131     28.531
REMARK  Name = Cyclosporin_A.pdbqt.pdb
REMARK  4 active torsions:
REMARK  status: ('A' for Active; 'I' for Inactive)
REMARK    1  A    between atoms: N_13  and  C_36
REMARK    2  A    between atoms: C_36  and  O_70
REMARK    3  A    between atoms: C_72  and  C_73
REMARK    4  A    between atoms: C_75  and  C_76
REMARK                            x       y       z     vdW  Elec       q    Type
REMARK                         _______ _______ _______ _____ _____    ______ ____
ROOT
ATOM      1  O   UNL     1     -44.950 -41.003  34.274  0.00  0.00    +0.000 OA
ATOM      2  O   UNL     1     -44.556 -37.751  38.222  0.00  0.00    +0.000 OA
ATOM      3  O   UNL     1     -48.015 -34.604  37.201  0.00  0.00    +0.000 OA
ATOM      4  O   UNL     1     -46.288 -39.255  29.897  0.00  0.00    +0.000 OA
ATOM      5  O   UNL     1     -48.207 -38.848  39.972  0.00  0.00    +0.000 OA
ATOM      6  O   UNL     1     -58.021 -40.991  34.853  0.00  0.00    +0.000 OA
ATOM      7  O   UNL     1     -48.461 -44.102  31.593  0.00  0.00    +0.000 OA
ATOM      8  O   UNL     1     -55.488 -40.171  30.708  0.00  0.00    +0.000 OA
ATOM      9  O   UNL     1     -56.254 -39.311  39.041  0.00  0.00    +0.000 OA
ATOM     10  O   UNL     1     -52.292 -42.627  29.920  0.00  0.00    +0.000 OA
ATOM     11  O   UNL     1     -52.183 -40.567  39.717  0.00  0.00    +0.000 OA
ATOM     12  N   UNL     1     -45.190 -38.367  36.499  0.00  0.00    +0.000 NA
ATOM     13  N   UNL     1     -46.167 -39.031  33.629  0.00  0.00    +0.000 NA
ATOM     14  N   UNL     1     -46.620 -35.828  37.902  0.00  0.00    +0.000 NA
ATOM     15  N   UNL     1     -49.427 -36.745  39.081  0.00  0.00    +0.000 NA
ATOM     16  N   UNL     1     -47.848 -40.359  31.411  0.00  0.00    +0.000 NA
ATOM     17  N   UNL     1     -56.859 -38.985  35.269  0.00  0.00    +0.000 N 
ATOM     18  N   UNL     1     -55.073 -40.144  33.011  0.00  0.00    +0.000 N 
ATOM     19  N   UNL     1     -53.215 -41.657  31.368  0.00  0.00    +0.000 NA
ATOM     20  N   UNL     1     -49.744 -42.473  32.529  0.00  0.00    +0.000 NA
ATOM     21  N   UNL     1     -51.238 -38.913  38.125  0.00  0.00    +0.000 NA
ATOM     22  N   UNL     1     -54.598 -39.598  37.307  0.00  0.00    +0.000 NA
ATOM     23  C   UNL     1     -45.266 -39.622  35.969  0.00  0.00    +0.000 C 
ATOM     24  C   UNL     1     -46.417 -36.711  36.919  0.00  0.00    +0.000 C 
ATOM     25  C   UNL     1     -45.872 -39.089  32.281  0.00  0.00    +0.000 C 
ATOM     26  C   UNL     1     -44.520 -40.691  36.432  0.00  0.00    +0.000 C 
ATOM     27  C   UNL     1     -46.217 -35.726  35.831  0.00  0.00    +0.000 C 
ATOM     28  C   UNL     1     -45.533 -39.781  34.625  0.00  0.00    +0.000 C 
ATOM     29  C   UNL     1     -45.652 -37.620  37.567  0.00  0.00    +0.000 C 
ATOM     30  C   UNL     1     -48.282 -36.122  39.128  0.00  0.00    +0.000 C 
ATOM     31  C   UNL     1     -47.951 -35.715  37.870  0.00  0.00    +0.000 C 
ATOM     32  C   UNL     1     -46.875 -39.358  31.206  0.00  0.00    +0.000 C 
ATOM     33  C   UNL     1     -43.693 -40.025  37.388  0.00  0.00    +0.000 C 
ATOM     34  C   UNL     1     -44.182 -41.424  35.343  0.00  0.00    +0.000 C 
ATOM     35  C   UNL     1     -44.248 -38.755  37.433  0.00  0.00    +0.000 C 
ATOM     36  C   UNL     1     -46.606 -34.651  37.106  0.00  0.00    +0.000 C 
ATOM     37  C   UNL     1     -47.691 -41.731  31.090  0.00  0.00    +0.000 C 
ATOM     38  C   UNL     1     -56.234 -40.680  33.507  0.00  0.00    +0.000 A 
ATOM     39  C   UNL     1     -48.926 -37.976  39.113  0.00  0.00    +0.000 C 
ATOM     40  C   UNL     1     -56.823 -39.028  36.686  0.00  0.00    +0.000 C 
ATOM     41  C   UNL     1     -53.521 -40.376  31.051  0.00  0.00    +0.000 C 
ATOM     42  C   UNL     1     -49.793 -36.116  40.376  0.00  0.00    +0.000 C 
ATOM     43  C   UNL     1     -56.915 -41.877  33.128  0.00  0.00    +0.000 A 
ATOM     44  C   UNL     1     -58.471 -38.359  37.029  0.00  0.00    +0.000 C 
ATOM     45  C   UNL     1     -50.069 -38.831  38.682  0.00  0.00    +0.000 C 
ATOM     46  C   UNL     1     -54.403 -40.495  29.837  0.00  0.00    +0.000 C 
ATOM     47  C   UNL     1     -46.571 -41.994  30.245  0.00  0.00    +0.000 C 
ATOM     48  C   UNL     1     -56.971 -40.153  34.563  0.00  0.00    +0.000 A 
ATOM     49  C   UNL     1     -48.508 -42.663  31.643  0.00  0.00    +0.000 C 
ATOM     50  C   UNL     1     -54.705 -40.205  31.751  0.00  0.00    +0.000 C 
ATOM     51  C   UNL     1     -55.912 -39.358  37.661  0.00  0.00    +0.000 C 
ATOM     52  C   UNL     1     -50.869 -41.981  31.728  0.00  0.00    +0.000 C 
ATOM     53  C   UNL     1     -56.531 -42.902  32.095  0.00  0.00    +0.000 C 
ATOM     54  C   UNL     1     -57.985 -42.028  33.973  0.00  0.00    +0.000 A 
ATOM     55  C   UNL     1     -51.944 -41.665  30.857  0.00  0.00    +0.000 C 
ATOM     56  C   UNL     1     -53.645 -39.910  38.125  0.00  0.00    +0.000 C 
ATOM     57  C   UNL     1     -49.193 -39.468  39.518  0.00  0.00    +0.000 C 
ATOM     58  C   UNL     1     -58.024 -38.483  35.738  0.00  0.00    +0.000 C 
ATOM     59  C   UNL     1     -45.632 -41.479  29.707  0.00  0.00    +0.000 C 
ATOM     60  C   UNL     1     -52.205 -39.710  38.555  0.00  0.00    +0.000 C 
ATOM     61  C   UNL     1     -53.723 -42.367  30.067  0.00  0.00    +0.000 C 
ATOM     62  C   UNL     1     -49.414 -43.728  32.288  0.00  0.00    +0.000 C 
ATOM     63  C   UNL     1     -53.333 -40.602  39.247  0.00  0.00    +0.000 C 
ATOM     64  H   UNL     1     -48.268 -40.283  32.338  0.00  0.00    +0.000 HD
ATOM     65  H   UNL     1     -54.369 -39.886  33.699  0.00  0.00    +0.000 HD
ATOM     66  H   UNL     1     -51.505 -38.161  37.495  0.00  0.00    +0.000 HD
ATOM     67  H   UNL     1     -54.370 -39.154  36.423  0.00  0.00    +0.000 HD
ATOM     68  C   UNL     1     -44.665 -39.297  31.832  0.00  0.00    +0.000 C 
ATOM     69  C   UNL     1     -44.080 -39.787  30.631  0.00  0.00    +0.000 C 
ATOM     70  C   UNL     1     -45.159 -40.126  29.682  0.00  0.00    +0.000 C 
ATOM     71  C   UNL     1     -45.003 -34.762  35.205  0.00  0.00    +0.000 C 
ATOM     72  C   UNL     1     -44.802 -34.470  33.921  0.00  0.00    +0.000 C 
ATOM     73  C   UNL     1     -45.698 -34.156  36.255  0.00  0.00    +0.000 C 
ATOM     74  C   UNL     1     -48.583 -35.357  40.346  0.00  0.00    +0.000 C 
ATOM     75  C   UNL     1     -49.031 -35.724  41.607  0.00  0.00    +0.000 C 
ATOM     76  C   UNL     1     -49.517 -34.671  42.626  0.00  0.00    +0.000 C 
ATOM     77  C   UNL     1     -49.886 -36.809  41.569  0.00  0.00    +0.000 C 
ATOM     78  C   UNL     1     -54.385 -40.668  28.246  0.00  0.00    +0.000 C 
ATOM     79  C   UNL     1     -55.191 -40.300  27.254  0.00  0.00    +0.000 C 
ATOM     80  C   UNL     1     -54.016 -41.885  28.822  0.00  0.00    +0.000 C 
ATOM     81  C   UNL     1     -58.612 -38.363  38.356  0.00  0.00    +0.000 C 
ATOM     82  C   UNL     1     -59.851 -37.871  39.028  0.00  0.00    +0.000 C 
ATOM     83  C   UNL     1     -57.499 -38.838  39.093  0.00  0.00    +0.000 C 
ENDROOT
BRANCH  69  84
ATOM     84  C   UNL     1     -42.758 -40.270  30.485  0.00  0.00    +0.000 C 
ATOM     85  C   UNL     1     -41.635 -40.675  30.355  0.00  0.00    +0.000 C 
BRANCH  85  86
ATOM     86  C   UNL     1     -40.202 -41.189  30.184  0.00  0.00    +0.000 C 
ATOM     87  C   UNL     1     -38.956 -41.635  30.031  0.00  0.00    +0.000 C 
ENDBRANCH  85  86
ENDBRANCH  69  84
BRANCH  13  88
ATOM     88  C   UNL     1     -47.397 -38.355  34.006  0.00  0.00    +0.000 C 
BRANCH  88  89
ATOM     89  O   UNL     1     -48.533 -37.752  34.333  0.00  0.00    +0.000 OA
ATOM     90  H   UNL     1     -48.345 -36.928  34.817  0.00  0.00    +0.000 HD
ENDBRANCH  88  89
ENDBRANCH  13  88
TORSDOF 4
ENDMDL
MODEL 7
REMARK VINA RESULT:      -8.7     19.409     22.569
REMARK  Name = Cyclosporin_A.pdbqt.pdb
REMARK  4 active torsions:
REMARK  status: ('A' for Active; 'I' for Inactive)
REMARK    1  A    between atoms: N_13  and  C_36
REMARK    2  A    between atoms: C_36  and  O_70
REMARK    3  A    between atoms: C_72  and  C_73
REMARK    4  A    between atoms: C_75  and  C_76
REMARK                            x       y       z     vdW  Elec       q    Type
REMARK                         _______ _______ _______ _____ _____    ______ ____
ROOT
ATOM      1  O   UNL     1     -63.252 -74.848  42.981  0.00  0.00    +0.000 OA
ATOM      2  O   UNL     1     -67.736 -72.369  43.208  0.00  0.00    +0.000 OA
ATOM      3  O   UNL     1     -67.138 -69.026  39.834  0.00  0.00    +0.000 OA
ATOM      4  O   UNL     1     -59.204 -72.316  41.880  0.00  0.00    +0.000 OA
ATOM      5  O   UNL     1     -69.083 -73.695  39.464  0.00  0.00    +0.000 OA
ATOM      6  O   UNL     1     -63.202 -74.701  29.898  0.00  0.00    +0.000 OA
ATOM      7  O   UNL     1     -59.890 -77.349  39.579  0.00  0.00    +0.000 OA
ATOM      8  O   UNL     1     -59.399 -73.195  32.643  0.00  0.00    +0.000 OA
ATOM      9  O   UNL     1     -67.704 -73.836  31.469  0.00  0.00    +0.000 OA
ATOM     10  O   UNL     1     -58.332 -75.527  35.851  0.00  0.00    +0.000 OA
ATOM     11  O   UNL     1     -68.334 -75.267  35.489  0.00  0.00    +0.000 OA
ATOM     12  N   UNL     1     -65.902 -72.652  42.655  0.00  0.00    +0.000 NA
ATOM     13  N   UNL     1     -62.917 -72.770  41.817  0.00  0.00    +0.000 NA
ATOM     14  N   UNL     1     -67.671 -70.382  41.181  0.00  0.00    +0.000 NA
ATOM     15  N   UNL     1     -68.531 -71.444  38.309  0.00  0.00    +0.000 NA
ATOM     16  N   UNL     1     -60.418 -73.647  40.236  0.00  0.00    +0.000 NA
ATOM     17  N   UNL     1     -64.028 -72.825  31.056  0.00  0.00    +0.000 N 
ATOM     18  N   UNL     1     -61.686 -73.591  32.943  0.00  0.00    +0.000 N 
ATOM     19  N   UNL     1     -59.886 -74.817  34.866  0.00  0.00    +0.000 NA
ATOM     20  N   UNL     1     -61.043 -75.892  38.267  0.00  0.00    +0.000 NA
ATOM     21  N   UNL     1     -67.114 -73.371  36.528  0.00  0.00    +0.000 NA
ATOM     22  N   UNL     1     -66.027 -73.837  33.207  0.00  0.00    +0.000 NA
ATOM     23  C   UNL     1     -65.151 -73.790  42.593  0.00  0.00    +0.000 C 
ATOM     24  C   UNL     1     -66.556 -71.076  41.424  0.00  0.00    +0.000 C 
ATOM     25  C   UNL     1     -61.595 -72.590  42.177  0.00  0.00    +0.000 C 
ATOM     26  C   UNL     1     -65.448 -74.938  43.306  0.00  0.00    +0.000 C 
ATOM     27  C   UNL     1     -65.675 -69.916  41.687  0.00  0.00    +0.000 C 
ATOM     28  C   UNL     1     -63.789 -73.699  42.393  0.00  0.00    +0.000 C 
ATOM     29  C   UNL     1     -67.065 -72.102  42.147  0.00  0.00    +0.000 C 
ATOM     30  C   UNL     1     -68.744 -70.861  39.457  0.00  0.00    +0.000 C 
ATOM     31  C   UNL     1     -67.597 -70.241  39.854  0.00  0.00    +0.000 C 
ATOM     32  C   UNL     1     -60.444 -72.643  41.227  0.00  0.00    +0.000 C 
ATOM     33  C   UNL     1     -66.547 -74.470  44.090  0.00  0.00    +0.000 C 
ATOM     34  C   UNL     1     -64.262 -75.469  43.690  0.00  0.00    +0.000 C 
ATOM     35  C   UNL     1     -66.795 -73.219  43.545  0.00  0.00    +0.000 C 
ATOM     36  C   UNL     1     -67.102 -69.081  41.245  0.00  0.00    +0.000 C 
ATOM     37  C   UNL     1     -59.862 -74.941  40.396  0.00  0.00    +0.000 C 
ATOM     38  C   UNL     1     -62.021 -74.186  31.753  0.00  0.00    +0.000 A 
ATOM     39  C   UNL     1     -68.363 -72.670  38.797  0.00  0.00    +0.000 C 
ATOM     40  C   UNL     1     -65.414 -73.123  31.022  0.00  0.00    +0.000 C 
ATOM     41  C   UNL     1     -59.792 -73.494  34.588  0.00  0.00    +0.000 C 
ATOM     42  C   UNL     1     -69.900 -71.052  37.885  0.00  0.00    +0.000 C 
ATOM     43  C   UNL     1     -61.400 -75.283  31.081  0.00  0.00    +0.000 A 
ATOM     44  C   UNL     1     -65.794 -72.497  29.364  0.00  0.00    +0.000 C 
ATOM     45  C   UNL     1     -67.731 -73.412  37.669  0.00  0.00    +0.000 C 
ATOM     46  C   UNL     1     -58.536 -73.377  33.767  0.00  0.00    +0.000 C 
ATOM     47  C   UNL     1     -59.038 -75.067  41.554  0.00  0.00    +0.000 C 
ATOM     48  C   UNL     1     -63.118 -73.845  30.970  0.00  0.00    +0.000 A 
ATOM     49  C   UNL     1     -60.198 -75.942  39.543  0.00  0.00    +0.000 C 
ATOM     50  C   UNL     1     -60.454 -73.431  33.372  0.00  0.00    +0.000 C 
ATOM     51  C   UNL     1     -66.356 -73.640  31.880  0.00  0.00    +0.000 C 
ATOM     52  C   UNL     1     -60.293 -75.244  37.188  0.00  0.00    +0.000 C 
ATOM     53  C   UNL     1     -60.217 -76.111  31.506  0.00  0.00    +0.000 C 
ATOM     54  C   UNL     1     -62.152 -75.564  29.969  0.00  0.00    +0.000 A 
ATOM     55  C   UNL     1     -59.443 -74.756  36.161  0.00  0.00    +0.000 C 
ATOM     56  C   UNL     1     -66.819 -74.307  34.115  0.00  0.00    +0.000 C 
ATOM     57  C   UNL     1     -68.479 -74.205  38.496  0.00  0.00    +0.000 C 
ATOM     58  C   UNL     1     -64.525 -72.394  29.875  0.00  0.00    +0.000 C 
ATOM     59  C   UNL     1     -58.647 -74.481  42.524  0.00  0.00    +0.000 C 
ATOM     60  C   UNL     1     -67.347 -74.215  35.533  0.00  0.00    +0.000 C 
ATOM     61  C   UNL     1     -58.456 -75.272  34.417  0.00  0.00    +0.000 C 
ATOM     62  C   UNL     1     -60.596 -77.089  38.597  0.00  0.00    +0.000 C 
ATOM     63  C   UNL     1     -67.811 -75.196  34.364  0.00  0.00    +0.000 C 
ATOM     64  H   UNL     1     -61.322 -73.731  39.770  0.00  0.00    +0.000 HD
ATOM     65  H   UNL     1     -62.441 -73.473  33.614  0.00  0.00    +0.000 HD
ATOM     66  H   UNL     1     -66.618 -72.513  36.300  0.00  0.00    +0.000 HD
ATOM     67  H   UNL     1     -65.249 -73.244  33.483  0.00  0.00    +0.000 HD
ATOM     68  C   UNL     1     -61.174 -72.736  43.404  0.00  0.00    +0.000 C 
ATOM     69  C   UNL     1     -59.934 -73.012  44.043  0.00  0.00    +0.000 C 
ATOM     70  C   UNL     1     -58.889 -73.155  43.010  0.00  0.00    +0.000 C 
ATOM     71  C   UNL     1     -65.291 -68.877  42.941  0.00  0.00    +0.000 C 
ATOM     72  C   UNL     1     -64.092 -68.363  43.208  0.00  0.00    +0.000 C 
ATOM     73  C   UNL     1     -66.399 -68.457  42.199  0.00  0.00    +0.000 C 
ATOM     74  C   UNL     1     -70.064 -70.323  39.103  0.00  0.00    +0.000 C 
ATOM     75  C   UNL     1     -71.216 -70.903  38.589  0.00  0.00    +0.000 C 
ATOM     76  C   UNL     1     -72.384 -70.042  38.062  0.00  0.00    +0.000 C 
ATOM     77  C   UNL     1     -70.941 -71.947  37.726  0.00  0.00    +0.000 C 
ATOM     78  C   UNL     1     -56.943 -73.260  33.863  0.00  0.00    +0.000 C 
ATOM     79  C   UNL     1     -55.996 -72.705  33.111  0.00  0.00    +0.000 C 
ATOM     80  C   UNL     1     -57.306 -74.568  34.191  0.00  0.00    +0.000 C 
ATOM     81  C   UNL     1     -67.091 -72.738  29.158  0.00  0.00    +0.000 C 
ATOM     82  C   UNL     1     -67.781 -72.352  27.892  0.00  0.00    +0.000 C 
ATOM     83  C   UNL     1     -67.781 -73.357  30.228  0.00  0.00    +0.000 C 
ENDROOT
BRANCH  69  84
ATOM     84  C   UNL     1     -59.766 -73.485  45.366  0.00  0.00    +0.000 C 
ATOM     85  C   UNL     1     -59.618 -73.893  46.486  0.00  0.00    +0.000 C 
BRANCH  85  86
ATOM     86  C   UNL     1     -59.429 -74.417  47.914  0.00  0.00    +0.000 C 
ATOM     87  C   UNL     1     -59.267 -74.877  49.153  0.00  0.00    +0.000 C 
ENDBRANCH  85  86
ENDBRANCH  69  84
BRANCH  13  88
ATOM     88  C   UNL     1     -63.350 -72.151  40.575  0.00  0.00    +0.000 C 
BRANCH  88  89
ATOM     89  O   UNL     1     -63.730 -71.600  39.430  0.00  0.00    +0.000 OA
ATOM     90  H   UNL     1     -63.047 -70.983  39.114  0.00  0.00    +0.000 HD
ENDBRANCH  88  89
ENDBRANCH  13  88
TORSDOF 4
ENDMDL
MODEL 8
REMARK VINA RESULT:      -8.7     23.415     28.452
REMARK  Name = Cyclosporin_A.pdbqt.pdb
REMARK  4 active torsions:
REMARK  status: ('A' for Active; 'I' for Inactive)
REMARK    1  A    between atoms: N_13  and  C_36
REMARK    2  A    between atoms: C_36  and  O_70
REMARK    3  A    between atoms: C_72  and  C_73
REMARK    4  A    between atoms: C_75  and  C_76
REMARK                            x       y       z     vdW  Elec       q    Type
REMARK                         _______ _______ _______ _____ _____    ______ ____
ROOT
ATOM      1  O   UNL     1     -69.309 -72.574  40.407  0.00  0.00    +0.000 OA
ATOM      2  O   UNL     1     -64.390 -71.303  39.698  0.00  0.00    +0.000 OA
ATOM      3  O   UNL     1     -63.361 -69.158  43.852  0.00  0.00    +0.000 OA
ATOM      4  O   UNL     1     -72.147 -69.625  43.101  0.00  0.00    +0.000 OA
ATOM      5  O   UNL     1     -62.894 -74.028  42.514  0.00  0.00    +0.000 OA
ATOM      6  O   UNL     1     -67.086 -76.561  52.668  0.00  0.00    +0.000 OA
ATOM      7  O   UNL     1     -72.642 -75.136  43.791  0.00  0.00    +0.000 OA
ATOM      8  O   UNL     1     -70.660 -73.398  51.450  0.00  0.00    +0.000 OA
ATOM      9  O   UNL     1     -62.871 -76.353  50.288  0.00  0.00    +0.000 OA
ATOM     10  O   UNL     1     -72.914 -74.268  48.129  0.00  0.00    +0.000 OA
ATOM     11  O   UNL     1     -63.399 -76.547  46.012  0.00  0.00    +0.000 OA
ATOM     12  N   UNL     1     -66.101 -71.298  40.604  0.00  0.00    +0.000 NA
ATOM     13  N   UNL     1     -68.793 -70.954  42.109  0.00  0.00    +0.000 NA
ATOM     14  N   UNL     1     -63.502 -70.105  42.114  0.00  0.00    +0.000 NA
ATOM     15  N   UNL     1     -62.531 -72.194  44.306  0.00  0.00    +0.000 NA
ATOM     16  N   UNL     1     -71.133 -71.657  43.991  0.00  0.00    +0.000 NA
ATOM     17  N   UNL     1     -65.939 -74.672  51.858  0.00  0.00    +0.000 N 
ATOM     18  N   UNL     1     -68.688 -74.216  50.492  0.00  0.00    +0.000 N 
ATOM     19  N   UNL     1     -71.074 -74.301  48.838  0.00  0.00    +0.000 NA
ATOM     20  N   UNL     1     -70.895 -74.491  45.097  0.00  0.00    +0.000 NA
ATOM     21  N   UNL     1     -64.142 -74.185  45.834  0.00  0.00    +0.000 NA
ATOM     22  N   UNL     1     -64.738 -75.400  49.088  0.00  0.00    +0.000 NA
ATOM     23  C   UNL     1     -67.141 -72.181  40.560  0.00  0.00    +0.000 C 
ATOM     24  C   UNL     1     -64.800 -70.398  41.991  0.00  0.00    +0.000 C 
ATOM     25  C   UNL     1     -70.038 -70.357  42.151  0.00  0.00    +0.000 C 
ATOM     26  C   UNL     1     -67.333 -73.081  39.527  0.00  0.00    +0.000 C 
ATOM     27  C   UNL     1     -65.318 -69.038  42.263  0.00  0.00    +0.000 C 
ATOM     28  C   UNL     1     -68.356 -71.834  41.114  0.00  0.00    +0.000 C 
ATOM     29  C   UNL     1     -64.758 -71.233  40.926  0.00  0.00    +0.000 C 
ATOM     30  C   UNL     1     -62.349 -71.348  43.330  0.00  0.00    +0.000 C 
ATOM     31  C   UNL     1     -63.303 -70.377  43.407  0.00  0.00    +0.000 C 
ATOM     32  C   UNL     1     -70.972 -70.429  43.315  0.00  0.00    +0.000 C 
ATOM     33  C   UNL     1     -66.294 -72.667  38.637  0.00  0.00    +0.000 C 
ATOM     34  C   UNL     1     -68.671 -73.162  39.332  0.00  0.00    +0.000 C 
ATOM     35  C   UNL     1     -65.588 -71.751  39.403  0.00  0.00    +0.000 C 
ATOM     36  C   UNL     1     -63.651 -68.754  42.529  0.00  0.00    +0.000 C 
ATOM     37  C   UNL     1     -72.075 -72.661  43.651  0.00  0.00    +0.000 C 
ATOM     38  C   UNL     1     -68.353 -75.218  51.366  0.00  0.00    +0.000 A 
ATOM     39  C   UNL     1     -63.144 -73.124  43.580  0.00  0.00    +0.000 C 
ATOM     40  C   UNL     1     -64.724 -75.289  51.465  0.00  0.00    +0.000 C 
ATOM     41  C   UNL     1     -70.714 -73.152  49.459  0.00  0.00    +0.000 C 
ATOM     42  C   UNL     1     -61.057 -72.297  44.457  0.00  0.00    +0.000 C 
ATOM     43  C   UNL     1     -69.153 -76.288  51.870  0.00  0.00    +0.000 A 
ATOM     44  C   UNL     1     -63.896 -75.330  53.076  0.00  0.00    +0.000 C 
ATOM     45  C   UNL     1     -63.770 -74.011  44.603  0.00  0.00    +0.000 C 
ATOM     46  C   UNL     1     -71.715 -73.002  50.572  0.00  0.00    +0.000 C 
ATOM     47  C   UNL     1     -73.083 -72.213  42.745  0.00  0.00    +0.000 C 
ATOM     48  C   UNL     1     -67.087 -75.416  51.908  0.00  0.00    +0.000 A 
ATOM     49  C   UNL     1     -71.919 -73.929  44.106  0.00  0.00    +0.000 C 
ATOM     50  C   UNL     1     -69.867 -73.637  50.443  0.00  0.00    +0.000 C 
ATOM     51  C   UNL     1     -64.144 -75.718  50.295  0.00  0.00    +0.000 C 
ATOM     52  C   UNL     1     -71.218 -74.056  46.459  0.00  0.00    +0.000 C 
ATOM     53  C   UNL     1     -70.586 -76.630  51.560  0.00  0.00    +0.000 C 
ATOM     54  C   UNL     1     -68.345 -77.078  52.647  0.00  0.00    +0.000 A 
ATOM     55  C   UNL     1     -71.691 -73.729  47.756  0.00  0.00    +0.000 C 
ATOM     56  C   UNL     1     -64.293 -75.736  47.921  0.00  0.00    +0.000 C 
ATOM     57  C   UNL     1     -63.450 -74.657  43.440  0.00  0.00    +0.000 C 
ATOM     58  C   UNL     1     -65.141 -74.769  52.946  0.00  0.00    +0.000 C 
ATOM     59  C   UNL     1     -73.436 -71.275  42.088  0.00  0.00    +0.000 C 
ATOM     60  C   UNL     1     -64.011 -75.330  46.488  0.00  0.00    +0.000 C 
ATOM     61  C   UNL     1     -72.477 -74.516  49.502  0.00  0.00    +0.000 C 
ATOM     62  C   UNL     1     -71.734 -75.377  44.597  0.00  0.00    +0.000 C 
ATOM     63  C   UNL     1     -63.675 -76.712  47.211  0.00  0.00    +0.000 C 
ATOM     64  H   UNL     1     -70.232 -72.099  44.176  0.00  0.00    +0.000 HD
ATOM     65  H   UNL     1     -68.058 -74.077  49.706  0.00  0.00    +0.000 HD
ATOM     66  H   UNL     1     -64.308 -73.350  46.391  0.00  0.00    +0.000 HD
ATOM     67  H   UNL     1     -65.334 -74.583  49.178  0.00  0.00    +0.000 HD
ATOM     68  C   UNL     1     -70.686 -70.002  41.076  0.00  0.00    +0.000 C 
ATOM     69  C   UNL     1     -72.042 -69.755  40.721  0.00  0.00    +0.000 C 
ATOM     70  C   UNL     1     -72.889 -69.962  41.913  0.00  0.00    +0.000 C 
ATOM     71  C   UNL     1     -65.575 -67.596  41.456  0.00  0.00    +0.000 C 
ATOM     72  C   UNL     1     -66.588 -66.751  41.639  0.00  0.00    +0.000 C 
ATOM     73  C   UNL     1     -64.283 -67.711  41.976  0.00  0.00    +0.000 C 
ATOM     74  C   UNL     1     -60.888 -71.282  43.465  0.00  0.00    +0.000 C 
ATOM     75  C   UNL     1     -59.897 -72.254  43.507  0.00  0.00    +0.000 C 
ATOM     76  C   UNL     1     -58.451 -71.911  43.924  0.00  0.00    +0.000 C 
ATOM     77  C   UNL     1     -60.325 -73.419  44.114  0.00  0.00    +0.000 C 
ATOM     78  C   UNL     1     -73.190 -72.482  50.914  0.00  0.00    +0.000 C 
ATOM     79  C   UNL     1     -73.781 -71.982  51.996  0.00  0.00    +0.000 C 
ATOM     80  C   UNL     1     -73.303 -73.665  50.182  0.00  0.00    +0.000 C 
ATOM     81  C   UNL     1     -62.719 -75.927  52.881  0.00  0.00    +0.000 C 
ATOM     82  C   UNL     1     -61.739 -76.139  53.987  0.00  0.00    +0.000 C 
ATOM     83  C   UNL     1     -62.442 -76.324  51.550  0.00  0.00    +0.000 C 
ENDROOT
BRANCH  69  84
ATOM     84  C   UNL     1     -72.568 -69.731  39.408  0.00  0.00    +0.000 C 
ATOM     85  C   UNL     1     -73.022 -69.712  38.296  0.00  0.00    +0.000 C 
BRANCH  85  86
ATOM     86  C   UNL     1     -73.605 -69.691  36.879  0.00  0.00    +0.000 C 
ATOM     87  C   UNL     1     -74.110 -69.667  35.647  0.00  0.00    +0.000 C 
ENDBRANCH  85  86
ENDBRANCH  69  84
BRANCH  13  88
ATOM     88  C   UNL     1     -67.987 -70.882  43.317  0.00  0.00    +0.000 C 
BRANCH  88  89
ATOM     89  O   UNL     1     -67.260 -70.839  44.425  0.00  0.00    +0.000 OA
ATOM     90  H   UNL     1     -67.154 -69.916  44.718  0.00  0.00    +0.000 HD
ENDBRANCH  88  89
ENDBRANCH  13  88
TORSDOF 4
ENDMDL
MODEL 9
REMARK VINA RESULT:      -8.7     22.321     27.105
REMARK  Name = Cyclosporin_A.pdbqt.pdb
REMARK  4 active torsions:
REMARK  status: ('A' for Active; 'I' for Inactive)
REMARK    1  A    between atoms: N_13  and  C_36
REMARK    2  A    between atoms: C_36  and  O_70
REMARK    3  A    between atoms: C_72  and  C_73
REMARK    4  A    between atoms: C_75  and  C_76
REMARK                            x       y       z     vdW  Elec       q    Type
REMARK                         _______ _______ _______ _____ _____    ______ ____
ROOT
ATOM      1  O   UNL     1     -68.862 -73.085  40.703  0.00  0.00    +0.000 OA
ATOM      2  O   UNL     1     -64.347 -71.284  39.065  0.00  0.00    +0.000 OA
ATOM      3  O   UNL     1     -62.747 -69.046  42.983  0.00  0.00    +0.000 OA
ATOM      4  O   UNL     1     -71.405 -70.467  43.972  0.00  0.00    +0.000 OA
ATOM      5  O   UNL     1     -62.038 -73.834  41.467  0.00  0.00    +0.000 OA
ATOM      6  O   UNL     1     -63.832 -76.824  52.188  0.00  0.00    +0.000 OA
ATOM      7  O   UNL     1     -71.162 -76.001  44.619  0.00  0.00    +0.000 OA
ATOM      8  O   UNL     1     -67.894 -74.068  51.774  0.00  0.00    +0.000 OA
ATOM      9  O   UNL     1     -60.222 -76.153  49.027  0.00  0.00    +0.000 OA
ATOM     10  O   UNL     1     -70.658 -75.173  48.944  0.00  0.00    +0.000 OA
ATOM     11  O   UNL     1     -61.566 -76.397  44.936  0.00  0.00    +0.000 OA
ATOM     12  N   UNL     1     -65.834 -71.467  40.292  0.00  0.00    +0.000 NA
ATOM     13  N   UNL     1     -68.194 -71.421  42.306  0.00  0.00    +0.000 NA
ATOM     14  N   UNL     1     -63.129 -70.000  41.285  0.00  0.00    +0.000 NA
ATOM     15  N   UNL     1     -61.524 -71.974  43.193  0.00  0.00    +0.000 NA
ATOM     16  N   UNL     1     -70.024 -72.378  44.597  0.00  0.00    +0.000 NA
ATOM     17  N   UNL     1     -63.077 -74.819  51.211  0.00  0.00    +0.000 N 
ATOM     18  N   UNL     1     -66.076 -74.664  50.426  0.00  0.00    +0.000 N 
ATOM     19  N   UNL     1     -68.721 -75.007  49.275  0.00  0.00    +0.000 NA
ATOM     20  N   UNL     1     -69.269 -75.171  45.569  0.00  0.00    +0.000 NA
ATOM     21  N   UNL     1     -62.578 -74.131  44.963  0.00  0.00    +0.000 NA
ATOM     22  N   UNL     1     -62.381 -75.409  48.242  0.00  0.00    +0.000 NA
ATOM     23  C   UNL     1     -66.761 -72.458  40.434  0.00  0.00    +0.000 C 
ATOM     24  C   UNL     1     -64.387 -70.432  41.414  0.00  0.00    +0.000 C 
ATOM     25  C   UNL     1     -69.462 -70.963  42.608  0.00  0.00    +0.000 C 
ATOM     26  C   UNL     1     -67.058 -73.372  39.439  0.00  0.00    +0.000 C 
ATOM     27  C   UNL     1     -64.982 -69.138  41.816  0.00  0.00    +0.000 C 
ATOM     28  C   UNL     1     -67.872 -72.247  41.225  0.00  0.00    +0.000 C 
ATOM     29  C   UNL     1     -64.469 -71.256  40.343  0.00  0.00    +0.000 C 
ATOM     30  C   UNL     1     -61.632 -71.111  42.221  0.00  0.00    +0.000 C 
ATOM     31  C   UNL     1     -62.649 -70.250  42.507  0.00  0.00    +0.000 C 
ATOM     32  C   UNL     1     -70.133 -71.139  43.932  0.00  0.00    +0.000 C 
ATOM     33  C   UNL     1     -66.267 -72.847  38.371  0.00  0.00    +0.000 C 
ATOM     34  C   UNL     1     -68.392 -73.598  39.510  0.00  0.00    +0.000 C 
ATOM     35  C   UNL     1     -65.525 -71.860  39.003  0.00  0.00    +0.000 C 
ATOM     36  C   UNL     1     -63.336 -68.674  41.753  0.00  0.00    +0.000 C 
ATOM     37  C   UNL     1     -70.902 -73.478  44.427  0.00  0.00    +0.000 C 
ATOM     38  C   UNL     1     -65.468 -75.625  51.193  0.00  0.00    +0.000 A 
ATOM     39  C   UNL     1     -62.166 -72.964  42.582  0.00  0.00    +0.000 C 
ATOM     40  C   UNL     1     -61.906 -75.299  50.572  0.00  0.00    +0.000 C 
ATOM     41  C   UNL     1     -68.368 -73.826  49.839  0.00  0.00    +0.000 C 
ATOM     42  C   UNL     1     -60.047 -71.915  43.048  0.00  0.00    +0.000 C 
ATOM     43  C   UNL     1     -66.034 -76.777  51.821  0.00  0.00    +0.000 A 
ATOM     44  C   UNL     1     -60.775 -75.252  51.986  0.00  0.00    +0.000 C 
ATOM     45  C   UNL     1     -62.478 -73.915  43.688  0.00  0.00    +0.000 C 
ATOM     46  C   UNL     1     -69.139 -73.788  51.130  0.00  0.00    +0.000 C 
ATOM     47  C   UNL     1     -72.112 -73.142  43.749  0.00  0.00    +0.000 C 
ATOM     48  C   UNL     1     -64.106 -75.685  51.470  0.00  0.00    +0.000 A 
ATOM     49  C   UNL     1     -70.525 -74.723  44.813  0.00  0.00    +0.000 C 
ATOM     50  C   UNL     1     -67.296 -74.217  50.624  0.00  0.00    +0.000 C 
ATOM     51  C   UNL     1     -61.528 -75.662  49.300  0.00  0.00    +0.000 C 
ATOM     52  C   UNL     1     -69.360 -74.776  46.977  0.00  0.00    +0.000 C 
ATOM     53  C   UNL     1     -67.455 -77.273  51.792  0.00  0.00    +0.000 C 
ATOM     54  C   UNL     1     -65.008 -77.475  52.404  0.00  0.00    +0.000 A 
ATOM     55  C   UNL     1     -69.598 -74.504  48.350  0.00  0.00    +0.000 C 
ATOM     56  C   UNL     1     -62.144 -75.692  47.003  0.00  0.00    +0.000 C 
ATOM     57  C   UNL     1     -62.329 -74.521  42.469  0.00  0.00    +0.000 C 
ATOM     58  C   UNL     1     -62.073 -74.831  52.117  0.00  0.00    +0.000 C 
ATOM     59  C   UNL     1     -72.687 -72.247  43.196  0.00  0.00    +0.000 C 
ATOM     60  C   UNL     1     -62.198 -75.255  45.552  0.00  0.00    +0.000 C 
ATOM     61  C   UNL     1     -69.932 -75.375  50.197  0.00  0.00    +0.000 C 
ATOM     62  C   UNL     1     -70.092 -76.143  45.223  0.00  0.00    +0.000 C 
ATOM     63  C   UNL     1     -61.579 -76.593  46.163  0.00  0.00    +0.000 C 
ATOM     64  H   UNL     1     -69.063 -72.719  44.590  0.00  0.00    +0.000 HD
ATOM     65  H   UNL     1     -65.633 -74.457  49.534  0.00  0.00    +0.000 HD
ATOM     66  H   UNL     1     -62.717 -73.320  45.561  0.00  0.00    +0.000 HD
ATOM     67  H   UNL     1     -63.031 -74.661  48.467  0.00  0.00    +0.000 HD
ATOM     68  C   UNL     1     -70.345 -70.680  41.690  0.00  0.00    +0.000 C 
ATOM     69  C   UNL     1     -71.763 -70.582  41.616  0.00  0.00    +0.000 C 
ATOM     70  C   UNL     1     -72.329 -70.882  42.946  0.00  0.00    +0.000 C 
ATOM     71  C   UNL     1     -65.547 -67.731  41.108  0.00  0.00    +0.000 C 
ATOM     72  C   UNL     1     -66.588 -67.002  41.508  0.00  0.00    +0.000 C 
ATOM     73  C   UNL     1     -64.172 -67.705  41.360  0.00  0.00    +0.000 C 
ATOM     74  C   UNL     1     -60.188 -70.887  42.066  0.00  0.00    +0.000 C 
ATOM     75  C   UNL     1     -59.111 -71.745  41.888  0.00  0.00    +0.000 C 
ATOM     76  C   UNL     1     -57.656 -71.246  42.019  0.00  0.00    +0.000 C 
ATOM     77  C   UNL     1     -59.283 -72.950  42.541  0.00  0.00    +0.000 C 
ATOM     78  C   UNL     1     -70.563 -73.432  51.769  0.00  0.00    +0.000 C 
ATOM     79  C   UNL     1     -70.976 -73.002  52.958  0.00  0.00    +0.000 C 
ATOM     80  C   UNL     1     -70.692 -74.620  51.047  0.00  0.00    +0.000 C 
ATOM     81  C   UNL     1     -59.603 -75.717  51.548  0.00  0.00    +0.000 C 
ATOM     82  C   UNL     1     -58.406 -75.823  52.434  0.00  0.00    +0.000 C 
ATOM     83  C   UNL     1     -59.556 -76.079  50.179  0.00  0.00    +0.000 C 
ENDROOT
BRANCH  69  84
ATOM     84  C   UNL     1     -72.539 -70.613  40.433  0.00  0.00    +0.000 C 
ATOM     85  C   UNL     1     -73.199 -70.632  39.430  0.00  0.00    +0.000 C 
BRANCH  85  86
ATOM     86  C   UNL     1     -74.043 -70.651  38.151  0.00  0.00    +0.000 C 
ATOM     87  C   UNL     1     -74.774 -70.663  37.038  0.00  0.00    +0.000 C 
ENDBRANCH  85  86
ENDBRANCH  69  84
BRANCH  13  88
ATOM     88  C   UNL     1     -67.176 -71.263  43.333  0.00  0.00    +0.000 C 
BRANCH  88  89
ATOM     89  O   UNL     1     -66.255 -71.141  44.278  0.00  0.00    +0.000 OA
ATOM     90  H   UNL     1     -65.552 -70.535  43.983  0.00  0.00    +0.000 HD
ENDBRANCH  88  89
ENDBRANCH  13  88
TORSDOF 4
ENDMDL
