MODEL 1
REMARK VINA RESULT:      -6.8      0.000      0.000
REMARK  Name = Danazol.pdbqt.pdb
REMARK  2 active torsions:
REMARK  status: ('A' for Active; 'I' for Inactive)
REMARK    1  A    between atoms: C_9  and  O_23
REMARK    2  A    between atoms: C_9  and  C_25
REMARK                            x       y       z     vdW  Elec       q    Type
REMARK                         _______ _______ _______ _____ _____    ______ ____
ROOT
ATOM      1  O   UNL     1     -48.620 -64.750  32.416  0.00  0.00    +0.000 OA
ATOM      2  N   UNL     1     -47.804 -65.804  31.953  0.00  0.00    +0.000 NA
ATOM      3  C   UNL     1     -46.022 -62.420  39.180  0.00  0.00    +0.000 C 
ATOM      4  C   UNL     1     -44.582 -62.983  39.657  0.00  0.00    +0.000 C 
ATOM      5  C   UNL     1     -46.402 -62.299  37.760  0.00  0.00    +0.000 C 
ATOM      6  C   UNL     1     -45.613 -62.801  36.582  0.00  0.00    +0.000 C 
ATOM      7  C   UNL     1     -45.990 -62.527  35.107  0.00  0.00    +0.000 C 
ATOM      8  C   UNL     1     -43.974 -63.546  38.441  0.00  0.00    +0.000 C 
ATOM      9  C   UNL     1     -44.955 -64.053  40.832  0.00  0.00    +0.000 C 
ATOM     10  C   UNL     1     -44.425 -63.458  37.005  0.00  0.00    +0.000 C 
ATOM     11  C   UNL     1     -46.988 -62.697  40.188  0.00  0.00    +0.000 C 
ATOM     12  C   UNL     1     -47.661 -61.779  37.380  0.00  0.00    +0.000 C 
ATOM     13  C   UNL     1     -46.334 -63.634  41.160  0.00  0.00    +0.000 C 
ATOM     14  C   UNL     1     -47.583 -62.131  34.855  0.00  0.00    +0.000 C 
ATOM     15  C   UNL     1     -43.775 -61.730  40.156  0.00  0.00    +0.000 C 
ATOM     16  C   UNL     1     -48.267 -61.682  36.012  0.00  0.00    +0.000 C 
ATOM     17  C   UNL     1     -45.798 -63.775  34.285  0.00  0.00    +0.000 C 
ATOM     18  C   UNL     1     -45.134 -61.347  34.565  0.00  0.00    +0.000 C 
ATOM     19  C   UNL     1     -48.244 -62.869  33.990  0.00  0.00    +0.000 C 
ATOM     20  C   UNL     1     -46.613 -64.526  33.388  0.00  0.00    +0.000 A 
ATOM     21  C   UNL     1     -47.876 -64.019  33.254  0.00  0.00    +0.000 A 
ATOM     22  C   UNL     1     -46.605 -65.637  32.550  0.00  0.00    +0.000 A 
ENDROOT
BRANCH   9  23
ATOM     23  O   UNL     1     -44.143 -63.960  42.013  0.00  0.00    +0.000 OA
ATOM     24  H   UNL     1     -43.306 -64.423  41.832  0.00  0.00    +0.000 HD
ENDBRANCH   9  23
BRANCH   9  25
ATOM     25  C   UNL     1     -44.924 -65.445  40.322  0.00  0.00    +0.000 C 
ATOM     26  C   UNL     1     -44.922 -66.573  39.925  0.00  0.00    +0.000 C 
ENDBRANCH   9  25
TORSDOF 2
ENDMDL
MODEL 2
REMARK VINA RESULT:      -6.8      1.629      2.614
REMARK  Name = Danazol.pdbqt.pdb
REMARK  2 active torsions:
REMARK  status: ('A' for Active; 'I' for Inactive)
REMARK    1  A    between atoms: C_9  and  O_23
REMARK    2  A    between atoms: C_9  and  C_25
REMARK                            x       y       z     vdW  Elec       q    Type
REMARK                         _______ _______ _______ _____ _____    ______ ____
ROOT
ATOM      1  O   UNL     1     -48.920 -67.513  31.346  0.00  0.00    +0.000 OA
ATOM      2  N   UNL     1     -48.304 -68.773  31.494  0.00  0.00    +0.000 NA
ATOM      3  C   UNL     1     -46.371 -62.877  36.819  0.00  0.00    +0.000 C 
ATOM      4  C   UNL     1     -45.111 -63.386  37.696  0.00  0.00    +0.000 C 
ATOM      5  C   UNL     1     -46.622 -63.335  35.439  0.00  0.00    +0.000 C 
ATOM      6  C   UNL     1     -45.872 -64.417  34.711  0.00  0.00    +0.000 C 
ATOM      7  C   UNL     1     -46.086 -64.764  33.219  0.00  0.00    +0.000 C 
ATOM      8  C   UNL     1     -44.548 -64.510  36.933  0.00  0.00    +0.000 C 
ATOM      9  C   UNL     1     -45.771 -63.760  39.141  0.00  0.00    +0.000 C 
ATOM     10  C   UNL     1     -44.873 -64.994  35.542  0.00  0.00    +0.000 C 
ATOM     11  C   UNL     1     -47.441 -62.532  37.694  0.00  0.00    +0.000 C 
ATOM     12  C   UNL     1     -47.722 -62.850  34.694  0.00  0.00    +0.000 C 
ATOM     13  C   UNL     1     -47.056 -63.036  39.054  0.00  0.00    +0.000 C 
ATOM     14  C   UNL     1     -47.544 -64.281  32.591  0.00  0.00    +0.000 C 
ATOM     15  C   UNL     1     -44.104 -62.180  37.739  0.00  0.00    +0.000 C 
ATOM     16  C   UNL     1     -48.201 -63.272  33.337  0.00  0.00    +0.000 C 
ATOM     17  C   UNL     1     -46.093 -66.259  33.034  0.00  0.00    +0.000 C 
ATOM     18  C   UNL     1     -44.974 -64.087  32.367  0.00  0.00    +0.000 C 
ATOM     19  C   UNL     1     -48.280 -65.213  32.026  0.00  0.00    +0.000 C 
ATOM     20  C   UNL     1     -46.980 -67.193  32.423  0.00  0.00    +0.000 A 
ATOM     21  C   UNL     1     -48.103 -66.611  31.903  0.00  0.00    +0.000 A 
ATOM     22  C   UNL     1     -47.139 -68.546  32.138  0.00  0.00    +0.000 A 
ENDROOT
BRANCH   9  23
ATOM     23  O   UNL     1     -45.039 -63.284  40.281  0.00  0.00    +0.000 OA
ATOM     24  H   UNL     1     -45.641 -63.301  41.046  0.00  0.00    +0.000 HD
ENDBRANCH   9  23
BRANCH   9  25
ATOM     25  C   UNL     1     -45.987 -65.222  39.271  0.00  0.00    +0.000 C 
ATOM     26  C   UNL     1     -46.144 -66.404  39.356  0.00  0.00    +0.000 C 
ENDBRANCH   9  25
TORSDOF 2
ENDMDL
MODEL 3
REMARK VINA RESULT:      -6.5      5.520      7.784
REMARK  Name = Danazol.pdbqt.pdb
REMARK  2 active torsions:
REMARK  status: ('A' for Active; 'I' for Inactive)
REMARK    1  A    between atoms: C_9  and  O_23
REMARK    2  A    between atoms: C_9  and  C_25
REMARK                            x       y       z     vdW  Elec       q    Type
REMARK                         _______ _______ _______ _____ _____    ______ ____
ROOT
ATOM      1  O   UNL     1     -45.682 -59.179  30.238  0.00  0.00    +0.000 OA
ATOM      2  N   UNL     1     -44.674 -59.212  29.251  0.00  0.00    +0.000 NA
ATOM      3  C   UNL     1     -47.504 -66.324  32.130  0.00  0.00    +0.000 C 
ATOM      4  C   UNL     1     -46.544 -67.504  31.582  0.00  0.00    +0.000 C 
ATOM      5  C   UNL     1     -47.030 -64.943  32.346  0.00  0.00    +0.000 C 
ATOM      6  C   UNL     1     -45.681 -64.396  31.964  0.00  0.00    +0.000 C 
ATOM      7  C   UNL     1     -45.185 -62.979  32.337  0.00  0.00    +0.000 C 
ATOM      8  C   UNL     1     -45.320 -66.821  31.137  0.00  0.00    +0.000 C 
ATOM      9  C   UNL     1     -47.433 -68.216  30.413  0.00  0.00    +0.000 C 
ATOM     10  C   UNL     1     -44.892 -65.387  31.319  0.00  0.00    +0.000 C 
ATOM     11  C   UNL     1     -48.847 -66.596  31.742  0.00  0.00    +0.000 C 
ATOM     12  C   UNL     1     -47.892 -63.942  32.849  0.00  0.00    +0.000 C 
ATOM     13  C   UNL     1     -48.784 -67.725  30.757  0.00  0.00    +0.000 C 
ATOM     14  C   UNL     1     -46.385 -61.890  32.695  0.00  0.00    +0.000 C 
ATOM     15  C   UNL     1     -46.248 -68.426  32.821  0.00  0.00    +0.000 C 
ATOM     16  C   UNL     1     -47.631 -62.477  33.030  0.00  0.00    +0.000 C 
ATOM     17  C   UNL     1     -44.475 -62.356  31.164  0.00  0.00    +0.000 C 
ATOM     18  C   UNL     1     -44.260 -63.067  33.585  0.00  0.00    +0.000 C 
ATOM     19  C   UNL     1     -46.392 -60.772  32.004  0.00  0.00    +0.000 C 
ATOM     20  C   UNL     1     -44.589 -61.124  30.456  0.00  0.00    +0.000 A 
ATOM     21  C   UNL     1     -45.592 -60.322  30.927  0.00  0.00    +0.000 A 
ATOM     22  C   UNL     1     -44.032 -60.389  29.414  0.00  0.00    +0.000 A 
ENDROOT
BRANCH   9  23
ATOM     23  O   UNL     1     -47.433 -69.652  30.443  0.00  0.00    +0.000 OA
ATOM     24  H   UNL     1     -48.258 -69.938  30.872  0.00  0.00    +0.000 HD
ENDBRANCH   9  23
BRANCH   9  25
ATOM     25  C   UNL     1     -47.021 -67.752  29.066  0.00  0.00    +0.000 C 
ATOM     26  C   UNL     1     -46.715 -67.376  27.973  0.00  0.00    +0.000 C 
ENDBRANCH   9  25
TORSDOF 2
ENDMDL
MODEL 4
REMARK VINA RESULT:      -6.2     23.077     27.114
REMARK  Name = Danazol.pdbqt.pdb
REMARK  2 active torsions:
REMARK  status: ('A' for Active; 'I' for Inactive)
REMARK    1  A    between atoms: C_9  and  O_23
REMARK    2  A    between atoms: C_9  and  C_25
REMARK                            x       y       z     vdW  Elec       q    Type
REMARK                         _______ _______ _______ _____ _____    ______ ____
ROOT
ATOM      1  O   UNL     1     -26.379 -54.854  58.027  0.00  0.00    +0.000 OA
ATOM      2  N   UNL     1     -26.720 -56.223  57.984  0.00  0.00    +0.000 NA
ATOM      3  C   UNL     1     -30.911 -51.044  53.244  0.00  0.00    +0.000 C 
ATOM      4  C   UNL     1     -32.176 -51.840  52.627  0.00  0.00    +0.000 C 
ATOM      5  C   UNL     1     -30.299 -51.396  54.539  0.00  0.00    +0.000 C 
ATOM      6  C   UNL     1     -30.634 -52.595  55.384  0.00  0.00    +0.000 C 
ATOM      7  C   UNL     1     -30.060 -52.846  56.799  0.00  0.00    +0.000 C 
ATOM      8  C   UNL     1     -32.317 -53.038  53.468  0.00  0.00    +0.000 C 
ATOM      9  C   UNL     1     -31.748 -52.102  51.073  0.00  0.00    +0.000 C 
ATOM     10  C   UNL     1     -31.626 -53.400  54.759  0.00  0.00    +0.000 C 
ATOM     11  C   UNL     1     -30.138 -50.499  52.180  0.00  0.00    +0.000 C 
ATOM     12  C   UNL     1     -29.208 -50.662  55.059  0.00  0.00    +0.000 C 
ATOM     13  C   UNL     1     -30.663 -51.112  50.915  0.00  0.00    +0.000 C 
ATOM     14  C   UNL     1     -28.649 -52.038  57.132  0.00  0.00    +0.000 C 
ATOM     15  C   UNL     1     -33.413 -50.885  52.805  0.00  0.00    +0.000 C 
ATOM     16  C   UNL     1     -28.391 -50.931  56.287  0.00  0.00    +0.000 C 
ATOM     17  C   UNL     1     -29.688 -54.297  56.954  0.00  0.00    +0.000 C 
ATOM     18  C   UNL     1     -31.103 -52.404  57.865  0.00  0.00    +0.000 C 
ATOM     19  C   UNL     1     -27.630 -52.771  57.525  0.00  0.00    +0.000 C 
ATOM     20  C   UNL     1     -28.515 -54.997  57.362  0.00  0.00    +0.000 A 
ATOM     21  C   UNL     1     -27.467 -54.169  57.658  0.00  0.00    +0.000 A 
ATOM     22  C   UNL     1     -28.010 -56.274  57.588  0.00  0.00    +0.000 A 
ENDROOT
BRANCH   9  23
ATOM     23  O   UNL     1     -32.777 -51.829  50.109  0.00  0.00    +0.000 OA
ATOM     24  H   UNL     1     -33.635 -51.945  50.554  0.00  0.00    +0.000 HD
ENDBRANCH   9  23
BRANCH   9  25
ATOM     25  C   UNL     1     -31.246 -53.484  50.879  0.00  0.00    +0.000 C 
ATOM     26  C   UNL     1     -30.867 -54.607  50.727  0.00  0.00    +0.000 C 
ENDBRANCH   9  25
TORSDOF 2
ENDMDL
MODEL 5
REMARK VINA RESULT:      -5.8     27.042     29.786
REMARK  Name = Danazol.pdbqt.pdb
REMARK  2 active torsions:
REMARK  status: ('A' for Active; 'I' for Inactive)
REMARK    1  A    between atoms: C_9  and  O_23
REMARK    2  A    between atoms: C_9  and  C_25
REMARK                            x       y       z     vdW  Elec       q    Type
REMARK                         _______ _______ _______ _____ _____    ______ ____
ROOT
ATOM      1  O   UNL     1     -44.266 -81.363  60.210  0.00  0.00    +0.000 OA
ATOM      2  N   UNL     1     -42.966 -81.870  59.997  0.00  0.00    +0.000 NA
ATOM      3  C   UNL     1     -43.812 -75.269  64.748  0.00  0.00    +0.000 C 
ATOM      4  C   UNL     1     -42.339 -74.667  65.038  0.00  0.00    +0.000 C 
ATOM      5  C   UNL     1     -44.140 -76.026  63.525  0.00  0.00    +0.000 C 
ATOM      6  C   UNL     1     -43.166 -76.477  62.470  0.00  0.00    +0.000 C 
ATOM      7  C   UNL     1     -43.580 -77.149  61.140  0.00  0.00    +0.000 C 
ATOM      8  C   UNL     1     -41.473 -75.276  64.016  0.00  0.00    +0.000 C 
ATOM      9  C   UNL     1     -42.040 -75.103  66.583  0.00  0.00    +0.000 C 
ATOM     10  C   UNL     1     -41.837 -76.103  62.809  0.00  0.00    +0.000 C 
ATOM     11  C   UNL     1     -44.456 -75.543  65.988  0.00  0.00    +0.000 C 
ATOM     12  C   UNL     1     -45.445 -76.517  63.295  0.00  0.00    +0.000 C 
ATOM     13  C   UNL     1     -43.406 -75.414  67.051  0.00  0.00    +0.000 C 
ATOM     14  C   UNL     1     -45.084 -77.852  61.152  0.00  0.00    +0.000 C 
ATOM     15  C   UNL     1     -42.458 -73.115  64.815  0.00  0.00    +0.000 C 
ATOM     16  C   UNL     1     -45.941 -77.391  62.181  0.00  0.00    +0.000 C 
ATOM     17  C   UNL     1     -42.652 -78.294  60.830  0.00  0.00    +0.000 C 
ATOM     18  C   UNL     1     -43.580 -76.088  60.003  0.00  0.00    +0.000 C 
ATOM     19  C   UNL     1     -45.143 -79.122  60.816  0.00  0.00    +0.000 C 
ATOM     20  C   UNL     1     -42.825 -79.672  60.508  0.00  0.00    +0.000 A 
ATOM     21  C   UNL     1     -44.136 -80.064  60.504  0.00  0.00    +0.000 A 
ATOM     22  C   UNL     1     -42.126 -80.828  60.177  0.00  0.00    +0.000 A 
ENDROOT
BRANCH   9  23
ATOM     23  O   UNL     1     -41.486 -74.065  67.406  0.00  0.00    +0.000 OA
ATOM     24  H   UNL     1     -40.634 -74.386  67.751  0.00  0.00    +0.000 HD
ENDBRANCH   9  23
BRANCH   9  25
ATOM     25  C   UNL     1     -41.165 -76.300  66.644  0.00  0.00    +0.000 C 
ATOM     26  C   UNL     1     -40.477 -77.275  66.713  0.00  0.00    +0.000 C 
ENDBRANCH   9  25
TORSDOF 2
ENDMDL
MODEL 6
REMARK VINA RESULT:      -5.7      6.938      8.847
REMARK  Name = Danazol.pdbqt.pdb
REMARK  2 active torsions:
REMARK  status: ('A' for Active; 'I' for Inactive)
REMARK    1  A    between atoms: C_9  and  O_23
REMARK    2  A    between atoms: C_9  and  C_25
REMARK                            x       y       z     vdW  Elec       q    Type
REMARK                         _______ _______ _______ _____ _____    ______ ____
ROOT
ATOM      1  O   UNL     1     -42.665 -59.711  28.445  0.00  0.00    +0.000 OA
ATOM      2  N   UNL     1     -41.594 -59.812  29.359  0.00  0.00    +0.000 NA
ATOM      3  C   UNL     1     -47.283 -65.685  29.403  0.00  0.00    +0.000 C 
ATOM      4  C   UNL     1     -47.035 -66.615  30.703  0.00  0.00    +0.000 C 
ATOM      5  C   UNL     1     -46.903 -64.260  29.354  0.00  0.00    +0.000 C 
ATOM      6  C   UNL     1     -46.118 -63.513  30.398  0.00  0.00    +0.000 C 
ATOM      7  C   UNL     1     -45.864 -61.988  30.363  0.00  0.00    +0.000 C 
ATOM      8  C   UNL     1     -46.165 -65.816  31.579  0.00  0.00    +0.000 C 
ATOM      9  C   UNL     1     -46.376 -67.975  30.086  0.00  0.00    +0.000 C 
ATOM     10  C   UNL     1     -45.742 -64.372  31.466  0.00  0.00    +0.000 C 
ATOM     11  C   UNL     1     -47.263 -66.500  28.235  0.00  0.00    +0.000 C 
ATOM     12  C   UNL     1     -47.157 -63.473  28.208  0.00  0.00    +0.000 C 
ATOM     13  C   UNL     1     -46.754 -67.845  28.663  0.00  0.00    +0.000 C 
ATOM     14  C   UNL     1     -46.014 -61.289  28.864  0.00  0.00    +0.000 C 
ATOM     15  C   UNL     1     -48.449 -66.821  31.358  0.00  0.00    +0.000 C 
ATOM     16  C   UNL     1     -46.751 -62.056  27.929  0.00  0.00    +0.000 C 
ATOM     17  C   UNL     1     -44.439 -61.693  30.754  0.00  0.00    +0.000 C 
ATOM     18  C   UNL     1     -46.875 -61.274  31.304  0.00  0.00    +0.000 C 
ATOM     19  C   UNL     1     -44.980 -60.604  28.428  0.00  0.00    +0.000 C 
ATOM     20  C   UNL     1     -43.369 -60.951  30.175  0.00  0.00    +0.000 A 
ATOM     21  C   UNL     1     -43.691 -60.392  28.969  0.00  0.00    +0.000 A 
ATOM     22  C   UNL     1     -42.052 -60.556  30.388  0.00  0.00    +0.000 A 
ENDROOT
BRANCH   9  23
ATOM     23  O   UNL     1     -46.918 -69.198  30.607  0.00  0.00    +0.000 OA
ATOM     24  H   UNL     1     -46.824 -69.879  29.917  0.00  0.00    +0.000 HD
ENDBRANCH   9  23
BRANCH   9  25
ATOM     25  C   UNL     1     -44.901 -67.981  30.251  0.00  0.00    +0.000 C 
ATOM     26  C   UNL     1     -43.711 -67.993  30.358  0.00  0.00    +0.000 C 
ENDBRANCH   9  25
TORSDOF 2
ENDMDL
MODEL 7
REMARK VINA RESULT:      -5.6     28.150     31.433
REMARK  Name = Danazol.pdbqt.pdb
REMARK  2 active torsions:
REMARK  status: ('A' for Active; 'I' for Inactive)
REMARK    1  A    between atoms: C_9  and  O_23
REMARK    2  A    between atoms: C_9  and  C_25
REMARK                            x       y       z     vdW  Elec       q    Type
REMARK                         _______ _______ _______ _____ _____    ______ ____
ROOT
ATOM      1  O   UNL     1     -70.604 -52.965  14.966  0.00  0.00    +0.000 OA
ATOM      2  N   UNL     1     -70.563 -52.700  13.580  0.00  0.00    +0.000 NA
ATOM      3  C   UNL     1     -64.172 -50.421  18.143  0.00  0.00    +0.000 C 
ATOM      4  C   UNL     1     -63.209 -49.494  17.232  0.00  0.00    +0.000 C 
ATOM      5  C   UNL     1     -65.627 -50.521  17.924  0.00  0.00    +0.000 C 
ATOM      6  C   UNL     1     -66.396 -49.929  16.774  0.00  0.00    +0.000 C 
ATOM      7  C   UNL     1     -67.939 -49.946  16.663  0.00  0.00    +0.000 C 
ATOM      8  C   UNL     1     -64.046 -49.084  16.094  0.00  0.00    +0.000 C 
ATOM      9  C   UNL     1     -61.951 -50.472  16.880  0.00  0.00    +0.000 C 
ATOM     10  C   UNL     1     -65.527 -49.259  15.869  0.00  0.00    +0.000 C 
ATOM     11  C   UNL     1     -63.420 -51.518  18.651  0.00  0.00    +0.000 C 
ATOM     12  C   UNL     1     -66.441 -51.323  18.756  0.00  0.00    +0.000 C 
ATOM     13  C   UNL     1     -62.112 -51.514  17.916  0.00  0.00    +0.000 C 
ATOM     14  C   UNL     1     -68.691 -51.113  17.573  0.00  0.00    +0.000 C 
ATOM     15  C   UNL     1     -62.836 -48.256  18.125  0.00  0.00    +0.000 C 
ATOM     16  C   UNL     1     -67.902 -51.636  18.627  0.00  0.00    +0.000 C 
ATOM     17  C   UNL     1     -68.350 -50.272  15.251  0.00  0.00    +0.000 C 
ATOM     18  C   UNL     1     -68.505 -48.573  17.122  0.00  0.00    +0.000 C 
ATOM     19  C   UNL     1     -69.493 -51.934  16.931  0.00  0.00    +0.000 C 
ATOM     20  C   UNL     1     -69.220 -51.229  14.651  0.00  0.00    +0.000 A 
ATOM     21  C   UNL     1     -69.803 -52.072  15.558  0.00  0.00    +0.000 A 
ATOM     22  C   UNL     1     -69.729 -51.649  13.426  0.00  0.00    +0.000 A 
ENDROOT
BRANCH   9  23
ATOM     23  O   UNL     1     -60.657 -49.866  17.021  0.00  0.00    +0.000 OA
ATOM     24  H   UNL     1     -60.082 -50.234  16.327  0.00  0.00    +0.000 HD
ENDBRANCH   9  23
BRANCH   9  25
ATOM     25  C   UNL     1     -62.080 -51.046  15.518  0.00  0.00    +0.000 C 
ATOM     26  C   UNL     1     -62.161 -51.524  14.426  0.00  0.00    +0.000 C 
ENDBRANCH   9  25
TORSDOF 2
ENDMDL
MODEL 8
REMARK VINA RESULT:      -5.5     22.237     23.979
REMARK  Name = Danazol.pdbqt.pdb
REMARK  2 active torsions:
REMARK  status: ('A' for Active; 'I' for Inactive)
REMARK    1  A    between atoms: C_9  and  O_23
REMARK    2  A    between atoms: C_9  and  C_25
REMARK                            x       y       z     vdW  Elec       q    Type
REMARK                         _______ _______ _______ _____ _____    ______ ____
ROOT
ATOM      1  O   UNL     1     -52.978 -41.103  32.407  0.00  0.00    +0.000 OA
ATOM      2  N   UNL     1     -54.380 -41.166  32.265  0.00  0.00    +0.000 NA
ATOM      3  C   UNL     1     -51.302 -39.993  39.749  0.00  0.00    +0.000 C 
ATOM      4  C   UNL     1     -52.507 -40.146  40.816  0.00  0.00    +0.000 C 
ATOM      5  C   UNL     1     -51.294 -40.688  38.447  0.00  0.00    +0.000 C 
ATOM      6  C   UNL     1     -52.424 -41.490  37.860  0.00  0.00    +0.000 C 
ATOM      7  C   UNL     1     -52.316 -42.311  36.554  0.00  0.00    +0.000 C 
ATOM      8  C   UNL     1     -53.579 -40.835  40.082  0.00  0.00    +0.000 C 
ATOM      9  C   UNL     1     -52.821 -38.609  41.268  0.00  0.00    +0.000 C 
ATOM     10  C   UNL     1     -53.557 -41.481  38.719  0.00  0.00    +0.000 C 
ATOM     11  C   UNL     1     -50.689 -38.719  39.915  0.00  0.00    +0.000 C 
ATOM     12  C   UNL     1     -50.212 -40.549  37.548  0.00  0.00    +0.000 C 
ATOM     13  C   UNL     1     -51.582 -37.933  40.829  0.00  0.00    +0.000 C 
ATOM     14  C   UNL     1     -51.092 -41.843  35.534  0.00  0.00    +0.000 C 
ATOM     15  C   UNL     1     -51.946 -41.056  41.969  0.00  0.00    +0.000 C 
ATOM     16  C   UNL     1     -50.072 -41.078  36.152  0.00  0.00    +0.000 C 
ATOM     17  C   UNL     1     -53.561 -42.129  35.726  0.00  0.00    +0.000 C 
ATOM     18  C   UNL     1     -52.074 -43.807  36.903  0.00  0.00    +0.000 C 
ATOM     19  C   UNL     1     -51.436 -41.540  34.302  0.00  0.00    +0.000 C 
ATOM     20  C   UNL     1     -53.827 -41.754  34.377  0.00  0.00    +0.000 A 
ATOM     21  C   UNL     1     -52.696 -41.462  33.665  0.00  0.00    +0.000 A 
ATOM     22  C   UNL     1     -54.859 -41.566  33.462  0.00  0.00    +0.000 A 
ENDROOT
BRANCH   9  23
ATOM     23  O   UNL     1     -52.987 -38.416  42.681  0.00  0.00    +0.000 OA
ATOM     24  H   UNL     1     -52.298 -37.796  42.976  0.00  0.00    +0.000 HD
ENDBRANCH   9  23
BRANCH   9  25
ATOM     25  C   UNL     1     -54.006 -38.071  40.555  0.00  0.00    +0.000 C 
ATOM     26  C   UNL     1     -54.962 -37.617  40.000  0.00  0.00    +0.000 C 
ENDBRANCH   9  25
TORSDOF 2
ENDMDL
MODEL 9
REMARK VINA RESULT:      -5.4     21.818     23.808
REMARK  Name = Danazol.pdbqt.pdb
REMARK  2 active torsions:
REMARK  status: ('A' for Active; 'I' for Inactive)
REMARK    1  A    between atoms: C_9  and  O_23
REMARK    2  A    between atoms: C_9  and  C_25
REMARK                            x       y       z     vdW  Elec       q    Type
REMARK                         _______ _______ _______ _____ _____    ______ ____
ROOT
ATOM      1  O   UNL     1     -45.285 -39.953  38.619  0.00  0.00    +0.000 OA
ATOM      2  N   UNL     1     -44.753 -41.132  38.056  0.00  0.00    +0.000 NA
ATOM      3  C   UNL     1     -52.878 -40.220  38.157  0.00  0.00    +0.000 C 
ATOM      4  C   UNL     1     -53.547 -41.629  37.728  0.00  0.00    +0.000 C 
ATOM      5  C   UNL     1     -51.563 -40.128  38.820  0.00  0.00    +0.000 C 
ATOM      6  C   UNL     1     -50.604 -41.263  39.054  0.00  0.00    +0.000 C 
ATOM      7  C   UNL     1     -49.299 -41.139  39.875  0.00  0.00    +0.000 C 
ATOM      8  C   UNL     1     -52.474 -42.622  37.890  0.00  0.00    +0.000 C 
ATOM      9  C   UNL     1     -54.055 -41.366  36.199  0.00  0.00    +0.000 C 
ATOM     10  C   UNL     1     -51.110 -42.479  38.518  0.00  0.00    +0.000 C 
ATOM     11  C   UNL     1     -53.343 -39.197  37.283  0.00  0.00    +0.000 C 
ATOM     12  C   UNL     1     -51.021 -38.880  39.203  0.00  0.00    +0.000 C 
ATOM     13  C   UNL     1     -54.052 -39.889  36.157  0.00  0.00    +0.000 C 
ATOM     14  C   UNL     1     -48.715 -39.593  40.029  0.00  0.00    +0.000 C 
ATOM     15  C   UNL     1     -54.706 -41.885  38.759  0.00  0.00    +0.000 C 
ATOM     16  C   UNL     1     -49.670 -38.576  39.779  0.00  0.00    +0.000 C 
ATOM     17  C   UNL     1     -48.182 -41.876  39.183  0.00  0.00    +0.000 C 
ATOM     18  C   UNL     1     -49.539 -41.683  41.312  0.00  0.00    +0.000 C 
ATOM     19  C   UNL     1     -47.476 -39.389  39.640  0.00  0.00    +0.000 C 
ATOM     20  C   UNL     1     -46.860 -41.541  38.768  0.00  0.00    +0.000 A 
ATOM     21  C   UNL     1     -46.526 -40.240  39.029  0.00  0.00    +0.000 A 
ATOM     22  C   UNL     1     -45.721 -42.068  38.167  0.00  0.00    +0.000 A 
ENDROOT
BRANCH   9  23
ATOM     23  O   UNL     1     -55.379 -41.842  35.912  0.00  0.00    +0.000 OA
ATOM     24  H   UNL     1     -55.852 -41.925  36.759  0.00  0.00    +0.000 HD
ENDBRANCH   9  23
BRANCH   9  25
ATOM     25  C   UNL     1     -53.103 -41.932  35.211  0.00  0.00    +0.000 C 
ATOM     26  C   UNL     1     -52.318 -42.390  34.435  0.00  0.00    +0.000 C 
ENDBRANCH   9  25
TORSDOF 2
ENDMDL
