MODEL 1
REMARK VINA RESULT:      -7.4      0.000      0.000
REMARK  Name = Dasatinib.pdbqt.pdb
REMARK  5 active torsions:
REMARK  status: ('A' for Active; 'I' for Inactive)
REMARK    1  A    between atoms: N_1  and  C_3
REMARK    2  A    between atoms: N_13  and  C_16
REMARK    3  A    between atoms: C_17  and  O_18
REMARK    4  A    between atoms: C_22  and  C_25
REMARK    5  A    between atoms: N_27  and  C_29
REMARK                            x       y       z     vdW  Elec       q    Type
REMARK                         _______ _______ _______ _____ _____    ______ ____
ROOT
ATOM      1  N   UNL     1     -34.115 -45.228  53.280  0.00  0.00    +0.000 N 
ATOM      2  H   UNL     1     -34.894 -45.443  53.890  0.00  0.00    +0.000 HD
ATOM      3  C   UNL     1     -33.471 -46.286  52.736  0.00  0.00    +0.000 A 
ATOM      4  S   UNL     1     -33.917 -47.882  53.231  0.00  0.00    +0.000 S 
ATOM      5  C   UNL     1     -32.728 -48.547  52.192  0.00  0.00    +0.000 A 
ATOM      6  C   UNL     1     -32.075 -47.517  51.557  0.00  0.00    +0.000 A 
ATOM      7  N   UNL     1     -32.472 -46.245  51.883  0.00  0.00    +0.000 NA
ENDROOT
BRANCH   1   8
ATOM      8  C   UNL     1     -34.227 -43.959  52.671  0.00  0.00    +0.000 A 
ATOM      9  N   UNL     1     -33.475 -42.923  53.063  0.00  0.00    +0.000 NA
ATOM     10  C   UNL     1     -33.694 -41.747  52.464  0.00  0.00    +0.000 A 
ATOM     11  N   UNL     1     -34.589 -41.524  51.494  0.00  0.00    +0.000 NA
ATOM     12  C   UNL     1     -32.841 -40.586  52.884  0.00  0.00    +0.000 C 
ATOM     13  C   UNL     1     -35.330 -42.572  51.095  0.00  0.00    +0.000 A 
ATOM     14  C   UNL     1     -35.180 -43.820  51.680  0.00  0.00    +0.000 A 
ATOM     15  N   UNL     1     -36.330 -42.401  50.100  0.00  0.00    +0.000 N 
ATOM     16  C   UNL     1     -36.587 -43.526  49.161  0.00  0.00    +0.000 C 
ATOM     17  C   UNL     1     -36.659 -43.481  47.611  0.00  0.00    +0.000 C 
ATOM     18  N   UNL     1     -36.498 -42.379  46.622  0.00  0.00    +0.000 N 
ATOM     19  C   UNL     1     -36.249 -41.293  47.611  0.00  0.00    +0.000 C 
ATOM     20  C   UNL     1     -36.164 -41.262  49.159  0.00  0.00    +0.000 C 
BRANCH  18  21
ATOM     21  C   UNL     1     -37.817 -42.132  46.053  0.00  0.00    +0.000 C 
ATOM     22  C   UNL     1     -39.205 -41.874  45.454  0.00  0.00    +0.000 C 
BRANCH  22  23
ATOM     23  O   UNL     1     -40.406 -41.653  44.933  0.00  0.00    +0.000 OA
ATOM     24  H   UNL     1     -41.021 -41.343  45.619  0.00  0.00    +0.000 HD
ENDBRANCH  22  23
ENDBRANCH  18  21
ENDBRANCH   1   8
BRANCH   5  25
ATOM     25  C   UNL     1     -32.549 -49.976  52.077  0.00  0.00    +0.000 C 
ATOM     26  O   UNL     1     -33.280 -50.694  51.398  0.00  0.00    +0.000 OA
ATOM     27  N   UNL     1     -31.527 -50.491  52.866  0.00  0.00    +0.000 N 
ATOM     28  H   UNL     1     -31.349 -49.990  53.736  0.00  0.00    +0.000 HD
BRANCH  27  29
ATOM     29  C   UNL     1     -31.165 -51.872  52.898  0.00  0.00    +0.000 A 
ATOM     30  C   UNL     1     -31.704 -52.671  53.928  0.00  0.00    +0.000 A 
ATOM     31  C   UNL     1     -31.427 -54.034  54.012  0.00  0.00    +0.000 A 
ATOM     32  C   UNL     1     -32.623 -52.066  54.970  0.00  0.00    +0.000 C 
ATOM     33  C   UNL     1     -30.586 -54.627  53.078  0.00  0.00    +0.000 A 
ATOM     34  C   UNL     1     -29.990 -53.844  52.096  0.00  0.00    +0.000 A 
ATOM     35  C   UNL     1     -30.264 -52.476  52.006  0.00  0.00    +0.000 A 
ATOM     36 CL   UNL     1     -29.252 -51.589  50.922  0.00  0.00    +0.000 Cl
ENDBRANCH  27  29
ENDBRANCH   5  25
TORSDOF 5
ENDMDL
MODEL 2
REMARK VINA RESULT:      -7.3     41.852     44.925
REMARK  Name = Dasatinib.pdbqt.pdb
REMARK  5 active torsions:
REMARK  status: ('A' for Active; 'I' for Inactive)
REMARK    1  A    between atoms: N_1  and  C_3
REMARK    2  A    between atoms: N_13  and  C_16
REMARK    3  A    between atoms: C_17  and  O_18
REMARK    4  A    between atoms: C_22  and  C_25
REMARK    5  A    between atoms: N_27  and  C_29
REMARK                            x       y       z     vdW  Elec       q    Type
REMARK                         _______ _______ _______ _____ _____    ______ ____
ROOT
ATOM      1  N   UNL     1     -59.904 -71.820  23.050  0.00  0.00    +0.000 N 
ATOM      2  H   UNL     1     -60.331 -72.652  22.660  0.00  0.00    +0.000 HD
ATOM      3  C   UNL     1     -60.592 -71.201  24.037  0.00  0.00    +0.000 A 
ATOM      4  S   UNL     1     -62.173 -71.772  24.441  0.00  0.00    +0.000 S 
ATOM      5  C   UNL     1     -62.318 -70.553  25.636  0.00  0.00    +0.000 A 
ATOM      6  C   UNL     1     -61.170 -69.799  25.635  0.00  0.00    +0.000 A 
ATOM      7  N   UNL     1     -60.209 -70.143  24.718  0.00  0.00    +0.000 NA
ENDROOT
BRANCH   1   8
ATOM      8  C   UNL     1     -58.497 -71.815  22.928  0.00  0.00    +0.000 A 
ATOM      9  N   UNL     1     -57.883 -71.219  21.900  0.00  0.00    +0.000 NA
ATOM     10  C   UNL     1     -56.550 -71.317  21.843  0.00  0.00    +0.000 A 
ATOM     11  N   UNL     1     -55.779 -71.946  22.737  0.00  0.00    +0.000 NA
ATOM     12  C   UNL     1     -55.853 -70.634  20.702  0.00  0.00    +0.000 C 
ATOM     13  C   UNL     1     -56.401 -72.530  23.776  0.00  0.00    +0.000 A 
ATOM     14  C   UNL     1     -57.781 -72.493  23.897  0.00  0.00    +0.000 A 
ATOM     15  N   UNL     1     -55.651 -73.253  24.742  0.00  0.00    +0.000 N 
ATOM     16  C   UNL     1     -56.117 -73.231  26.154  0.00  0.00    +0.000 C 
ATOM     17  C   UNL     1     -55.291 -72.912  27.430  0.00  0.00    +0.000 C 
ATOM     18  N   UNL     1     -53.864 -72.543  27.645  0.00  0.00    +0.000 N 
ATOM     19  C   UNL     1     -53.456 -72.584  26.213  0.00  0.00    +0.000 C 
ATOM     20  C   UNL     1     -54.217 -72.892  24.897  0.00  0.00    +0.000 C 
BRANCH  18  21
ATOM     21  C   UNL     1     -53.231 -73.684  28.294  0.00  0.00    +0.000 C 
ATOM     22  C   UNL     1     -52.562 -74.884  28.976  0.00  0.00    +0.000 C 
BRANCH  22  23
ATOM     23  O   UNL     1     -51.981 -75.922  29.566  0.00  0.00    +0.000 OA
ATOM     24  H   UNL     1     -52.375 -76.080  30.440  0.00  0.00    +0.000 HD
ENDBRANCH  22  23
ENDBRANCH  18  21
ENDBRANCH   1   8
BRANCH   5  25
ATOM     25  C   UNL     1     -63.502 -70.449  26.459  0.00  0.00    +0.000 C 
ATOM     26  O   UNL     1     -64.468 -69.749  26.163  0.00  0.00    +0.000 OA
ATOM     27  N   UNL     1     -63.426 -71.143  27.660  0.00  0.00    +0.000 N 
ATOM     28  H   UNL     1     -62.493 -71.227  28.062  0.00  0.00    +0.000 HD
BRANCH  27  29
ATOM     29  C   UNL     1     -64.484 -71.191  28.619  0.00  0.00    +0.000 A 
ATOM     30  C   UNL     1     -64.412 -70.319  29.725  0.00  0.00    +0.000 A 
ATOM     31  C   UNL     1     -65.419 -70.280  30.688  0.00  0.00    +0.000 A 
ATOM     32  C   UNL     1     -63.236 -69.377  29.887  0.00  0.00    +0.000 C 
ATOM     33  C   UNL     1     -66.512 -71.129  30.579  0.00  0.00    +0.000 A 
ATOM     34  C   UNL     1     -66.570 -72.045  29.534  0.00  0.00    +0.000 A 
ATOM     35  C   UNL     1     -65.564 -72.089  28.564  0.00  0.00    +0.000 A 
ATOM     36 CL   UNL     1     -65.626 -73.445  27.494  0.00  0.00    +0.000 Cl
ENDBRANCH  27  29
ENDBRANCH   5  25
TORSDOF 5
ENDMDL
MODEL 3
REMARK VINA RESULT:      -7.1      7.557     14.191
REMARK  Name = Dasatinib.pdbqt.pdb
REMARK  5 active torsions:
REMARK  status: ('A' for Active; 'I' for Inactive)
REMARK    1  A    between atoms: N_1  and  C_3
REMARK    2  A    between atoms: N_13  and  C_16
REMARK    3  A    between atoms: C_17  and  O_18
REMARK    4  A    between atoms: C_22  and  C_25
REMARK    5  A    between atoms: N_27  and  C_29
REMARK                            x       y       z     vdW  Elec       q    Type
REMARK                         _______ _______ _______ _____ _____    ______ ____
ROOT
ATOM      1  N   UNL     1     -39.367 -40.332  50.225  0.00  0.00    +0.000 N 
ATOM      2  H   UNL     1     -38.807 -39.488  50.243  0.00  0.00    +0.000 HD
ATOM      3  C   UNL     1     -40.707 -40.163  50.313  0.00  0.00    +0.000 A 
ATOM      4  S   UNL     1     -41.333 -38.576  50.595  0.00  0.00    +0.000 S 
ATOM      5  C   UNL     1     -42.930 -39.196  50.591  0.00  0.00    +0.000 A 
ATOM      6  C   UNL     1     -42.873 -40.554  50.388  0.00  0.00    +0.000 A 
ATOM      7  N   UNL     1     -41.623 -41.104  50.260  0.00  0.00    +0.000 NA
ENDROOT
BRANCH   1   8
ATOM      8  C   UNL     1     -38.737 -41.397  49.545  0.00  0.00    +0.000 A 
ATOM      9  N   UNL     1     -38.532 -41.363  48.223  0.00  0.00    +0.000 NA
ATOM     10  C   UNL     1     -37.979 -42.445  47.662  0.00  0.00    +0.000 A 
ATOM     11  N   UNL     1     -37.598 -43.549  48.314  0.00  0.00    +0.000 NA
ATOM     12  C   UNL     1     -37.728 -42.406  46.182  0.00  0.00    +0.000 C 
ATOM     13  C   UNL     1     -37.792 -43.571  49.644  0.00  0.00    +0.000 A 
ATOM     14  C   UNL     1     -38.380 -42.499  50.299  0.00  0.00    +0.000 A 
ATOM     15  N   UNL     1     -37.452 -44.726  50.396  0.00  0.00    +0.000 N 
ATOM     16  C   UNL     1     -36.951 -44.540  51.784  0.00  0.00    +0.000 C 
ATOM     17  C   UNL     1     -35.676 -45.145  52.431  0.00  0.00    +0.000 C 
ATOM     18  N   UNL     1     -34.607 -46.044  51.913  0.00  0.00    +0.000 N 
ATOM     19  C   UNL     1     -35.160 -46.195  50.538  0.00  0.00    +0.000 C 
ATOM     20  C   UNL     1     -36.416 -45.627  49.826  0.00  0.00    +0.000 C 
BRANCH  18  21
ATOM     21  C   UNL     1     -34.781 -47.328  52.577  0.00  0.00    +0.000 C 
ATOM     22  C   UNL     1     -34.967 -48.680  53.278  0.00  0.00    +0.000 C 
BRANCH  22  23
ATOM     23  O   UNL     1     -35.129 -49.850  53.885  0.00  0.00    +0.000 OA
ATOM     24  H   UNL     1     -36.020 -50.199  53.716  0.00  0.00    +0.000 HD
ENDBRANCH  22  23
ENDBRANCH  18  21
ENDBRANCH   1   8
BRANCH   5  25
ATOM     25  C   UNL     1     -44.071 -38.326  50.766  0.00  0.00    +0.000 C 
ATOM     26  O   UNL     1     -43.988 -37.194  51.238  0.00  0.00    +0.000 OA
ATOM     27  N   UNL     1     -45.289 -38.905  50.433  0.00  0.00    +0.000 N 
ATOM     28  H   UNL     1     -45.350 -39.913  50.573  0.00  0.00    +0.000 HD
BRANCH  27  29
ATOM     29  C   UNL     1     -46.543 -38.225  50.514  0.00  0.00    +0.000 A 
ATOM     30  C   UNL     1     -47.060 -37.652  49.333  0.00  0.00    +0.000 A 
ATOM     31  C   UNL     1     -48.291 -37.000  49.320  0.00  0.00    +0.000 A 
ATOM     32  C   UNL     1     -46.292 -37.749  48.031  0.00  0.00    +0.000 C 
ATOM     33  C   UNL     1     -49.026 -36.887  50.493  0.00  0.00    +0.000 A 
ATOM     34  C   UNL     1     -48.503 -37.383  51.682  0.00  0.00    +0.000 A 
ATOM     35  C   UNL     1     -47.269 -38.039  51.703  0.00  0.00    +0.000 A 
ATOM     36 CL   UNL     1     -46.625 -38.355  53.275  0.00  0.00    +0.000 Cl
ENDBRANCH  27  29
ENDBRANCH   5  25
TORSDOF 5
ENDMDL
MODEL 4
REMARK VINA RESULT:      -7.1     40.353     42.562
REMARK  Name = Dasatinib.pdbqt.pdb
REMARK  5 active torsions:
REMARK  status: ('A' for Active; 'I' for Inactive)
REMARK    1  A    between atoms: N_1  and  C_3
REMARK    2  A    between atoms: N_13  and  C_16
REMARK    3  A    between atoms: C_17  and  O_18
REMARK    4  A    between atoms: C_22  and  C_25
REMARK    5  A    between atoms: N_27  and  C_29
REMARK                            x       y       z     vdW  Elec       q    Type
REMARK                         _______ _______ _______ _____ _____    ______ ____
ROOT
ATOM      1  N   UNL     1     -68.248 -69.891  41.652  0.00  0.00    +0.000 N 
ATOM      2  H   UNL     1     -68.063 -70.732  41.118  0.00  0.00    +0.000 HD
ATOM      3  C   UNL     1     -67.339 -68.895  41.534  0.00  0.00    +0.000 A 
ATOM      4  S   UNL     1     -65.895 -69.185  40.628  0.00  0.00    +0.000 S 
ATOM      5  C   UNL     1     -65.354 -67.595  40.966  0.00  0.00    +0.000 A 
ATOM      6  C   UNL     1     -66.296 -66.967  41.746  0.00  0.00    +0.000 A 
ATOM      7  N   UNL     1     -67.399 -67.706  42.090  0.00  0.00    +0.000 NA
ENDROOT
BRANCH   1   8
ATOM      8  C   UNL     1     -69.622 -69.695  41.912  0.00  0.00    +0.000 A 
ATOM      9  N   UNL     1     -70.056 -69.245  43.095  0.00  0.00    +0.000 NA
ATOM     10  C   UNL     1     -71.379 -69.146  43.265  0.00  0.00    +0.000 A 
ATOM     11  N   UNL     1     -72.304 -69.442  42.344  0.00  0.00    +0.000 NA
ATOM     12  C   UNL     1     -71.872 -68.624  44.583  0.00  0.00    +0.000 C 
ATOM     13  C   UNL     1     -71.862 -69.879  41.153  0.00  0.00    +0.000 A 
ATOM     14  C   UNL     1     -70.506 -70.031  40.904  0.00  0.00    +0.000 A 
ATOM     15  N   UNL     1     -72.786 -70.253  40.141  0.00  0.00    +0.000 N 
ATOM     16  C   UNL     1     -72.417 -70.002  38.722  0.00  0.00    +0.000 C 
ATOM     17  C   UNL     1     -73.258 -69.294  37.626  0.00  0.00    +0.000 C 
ATOM     18  N   UNL     1     -74.611 -68.672  37.632  0.00  0.00    +0.000 N 
ATOM     19  C   UNL     1     -74.925 -68.955  39.061  0.00  0.00    +0.000 C 
ATOM     20  C   UNL     1     -74.143 -69.651  40.205  0.00  0.00    +0.000 C 
BRANCH  18  21
ATOM     21  C   UNL     1     -75.472 -69.535  36.836  0.00  0.00    +0.000 C 
ATOM     22  C   UNL     1     -76.380 -70.443  35.997  0.00  0.00    +0.000 C 
BRANCH  22  23
ATOM     23  O   UNL     1     -77.168 -71.229  35.273  0.00  0.00    +0.000 OA
ATOM     24  H   UNL     1     -76.755 -72.100  35.146  0.00  0.00    +0.000 HD
ENDBRANCH  22  23
ENDBRANCH  18  21
ENDBRANCH   1   8
BRANCH   5  25
ATOM     25  C   UNL     1     -64.098 -67.104  40.444  0.00  0.00    +0.000 C 
ATOM     26  O   UNL     1     -63.655 -67.426  39.344  0.00  0.00    +0.000 OA
ATOM     27  N   UNL     1     -63.387 -66.300  41.326  0.00  0.00    +0.000 N 
ATOM     28  H   UNL     1     -63.518 -66.508  42.315  0.00  0.00    +0.000 HD
BRANCH  27  29
ATOM     29  C   UNL     1     -62.130 -65.696  41.015  0.00  0.00    +0.000 A 
ATOM     30  C   UNL     1     -62.137 -64.369  40.536  0.00  0.00    +0.000 A 
ATOM     31  C   UNL     1     -60.953 -63.696  40.240  0.00  0.00    +0.000 A 
ATOM     32  C   UNL     1     -63.444 -63.626  40.346  0.00  0.00    +0.000 C 
ATOM     33  C   UNL     1     -59.734 -64.342  40.397  0.00  0.00    +0.000 A 
ATOM     34  C   UNL     1     -59.708 -65.672  40.802  0.00  0.00    +0.000 A 
ATOM     35  C   UNL     1     -60.891 -66.353  41.101  0.00  0.00    +0.000 A 
ATOM     36 CL   UNL     1     -60.728 -68.059  41.323  0.00  0.00    +0.000 Cl
ENDBRANCH  27  29
ENDBRANCH   5  25
TORSDOF 5
ENDMDL
MODEL 5
REMARK VINA RESULT:      -7.0     39.759     41.908
REMARK  Name = Dasatinib.pdbqt.pdb
REMARK  5 active torsions:
REMARK  status: ('A' for Active; 'I' for Inactive)
REMARK    1  A    between atoms: N_1  and  C_3
REMARK    2  A    between atoms: N_13  and  C_16
REMARK    3  A    between atoms: C_17  and  O_18
REMARK    4  A    between atoms: C_22  and  C_25
REMARK    5  A    between atoms: N_27  and  C_29
REMARK                            x       y       z     vdW  Elec       q    Type
REMARK                         _______ _______ _______ _____ _____    ______ ____
ROOT
ATOM      1  N   UNL     1     -67.699 -69.576  42.727  0.00  0.00    +0.000 N 
ATOM      2  H   UNL     1     -67.294 -70.480  42.940  0.00  0.00    +0.000 HD
ATOM      3  C   UNL     1     -66.829 -68.596  42.388  0.00  0.00    +0.000 A 
ATOM      4  S   UNL     1     -65.132 -68.911  42.491  0.00  0.00    +0.000 S 
ATOM      5  C   UNL     1     -64.795 -67.316  41.965  0.00  0.00    +0.000 A 
ATOM      6  C   UNL     1     -65.986 -66.660  41.763  0.00  0.00    +0.000 A 
ATOM      7  N   UNL     1     -67.130 -67.369  42.027  0.00  0.00    +0.000 NA
ENDROOT
BRANCH   1   8
ATOM      8  C   UNL     1     -69.028 -69.664  42.260  0.00  0.00    +0.000 A 
ATOM      9  N   UNL     1     -69.307 -69.969  40.988  0.00  0.00    +0.000 NA
ATOM     10  C   UNL     1     -70.596 -69.972  40.628  0.00  0.00    +0.000 A 
ATOM     11  N   UNL     1     -71.629 -69.713  41.438  0.00  0.00    +0.000 NA
ATOM     12  C   UNL     1     -70.917 -70.333  39.207  0.00  0.00    +0.000 C 
ATOM     13  C   UNL     1     -71.343 -69.422  42.718  0.00  0.00    +0.000 A 
ATOM     14  C   UNL     1     -70.032 -69.377  43.167  0.00  0.00    +0.000 A 
ATOM     15  N   UNL     1     -72.385 -69.095  43.626  0.00  0.00    +0.000 N 
ATOM     16  C   UNL     1     -72.236 -69.506  45.048  0.00  0.00    +0.000 C 
ATOM     17  C   UNL     1     -73.256 -70.267  45.937  0.00  0.00    +0.000 C 
ATOM     18  N   UNL     1     -74.621 -70.804  45.678  0.00  0.00    +0.000 N 
ATOM     19  C   UNL     1     -74.714 -70.364  44.258  0.00  0.00    +0.000 C 
ATOM     20  C   UNL     1     -73.745 -69.607  43.312  0.00  0.00    +0.000 C 
BRANCH  18  21
ATOM     21  C   UNL     1     -75.548 -69.973  46.435  0.00  0.00    +0.000 C 
ATOM     22  C   UNL     1     -76.523 -69.099  47.233  0.00  0.00    +0.000 C 
BRANCH  22  23
ATOM     23  O   UNL     1     -77.366 -68.343  47.927  0.00  0.00    +0.000 OA
ATOM     24  H   UNL     1     -76.910 -67.560  48.278  0.00  0.00    +0.000 HD
ENDBRANCH  22  23
ENDBRANCH  18  21
ENDBRANCH   1   8
BRANCH   5  25
ATOM     25  C   UNL     1     -63.435 -66.858  41.787  0.00  0.00    +0.000 C 
ATOM     26  O   UNL     1     -62.462 -67.606  41.831  0.00  0.00    +0.000 OA
ATOM     27  N   UNL     1     -63.309 -65.482  41.644  0.00  0.00    +0.000 N 
ATOM     28  H   UNL     1     -64.010 -64.923  42.129  0.00  0.00    +0.000 HD
BRANCH  27  29
ATOM     29  C   UNL     1     -62.063 -64.813  41.441  0.00  0.00    +0.000 A 
ATOM     30  C   UNL     1     -61.557 -64.026  42.497  0.00  0.00    +0.000 A 
ATOM     31  C   UNL     1     -60.333 -63.369  42.393  0.00  0.00    +0.000 A 
ATOM     32  C   UNL     1     -62.330 -63.890  43.793  0.00  0.00    +0.000 C 
ATOM     33  C   UNL     1     -59.595 -63.466  41.220  0.00  0.00    +0.000 A 
ATOM     34  C   UNL     1     -60.107 -64.180  40.143  0.00  0.00    +0.000 A 
ATOM     35  C   UNL     1     -61.334 -64.842  40.241  0.00  0.00    +0.000 A 
ATOM     36 CL   UNL     1     -61.967 -65.452  38.752  0.00  0.00    +0.000 Cl
ENDBRANCH  27  29
ENDBRANCH   5  25
TORSDOF 5
ENDMDL
MODEL 6
REMARK VINA RESULT:      -6.8     22.111     24.586
REMARK  Name = Dasatinib.pdbqt.pdb
REMARK  5 active torsions:
REMARK  status: ('A' for Active; 'I' for Inactive)
REMARK    1  A    between atoms: N_1  and  C_3
REMARK    2  A    between atoms: N_13  and  C_16
REMARK    3  A    between atoms: C_17  and  O_18
REMARK    4  A    between atoms: C_22  and  C_25
REMARK    5  A    between atoms: N_27  and  C_29
REMARK                            x       y       z     vdW  Elec       q    Type
REMARK                         _______ _______ _______ _____ _____    ______ ____
ROOT
ATOM      1  N   UNL     1     -43.543 -57.673  34.836  0.00  0.00    +0.000 N 
ATOM      2  H   UNL     1     -44.190 -57.599  35.612  0.00  0.00    +0.000 HD
ATOM      3  C   UNL     1     -43.925 -58.472  33.813  0.00  0.00    +0.000 A 
ATOM      4  S   UNL     1     -45.377 -59.398  33.971  0.00  0.00    +0.000 S 
ATOM      5  C   UNL     1     -45.131 -60.067  32.413  0.00  0.00    +0.000 A 
ATOM      6  C   UNL     1     -43.968 -59.552  31.893  0.00  0.00    +0.000 A 
ATOM      7  N   UNL     1     -43.274 -58.677  32.690  0.00  0.00    +0.000 NA
ENDROOT
BRANCH   1   8
ATOM      8  C   UNL     1     -42.713 -56.539  34.701  0.00  0.00    +0.000 A 
ATOM      9  N   UNL     1     -41.426 -56.562  35.065  0.00  0.00    +0.000 NA
ATOM     10  C   UNL     1     -40.737 -55.422  34.951  0.00  0.00    +0.000 A 
ATOM     11  N   UNL     1     -41.222 -54.264  34.487  0.00  0.00    +0.000 NA
ATOM     12  C   UNL     1     -39.288 -55.446  35.340  0.00  0.00    +0.000 C 
ATOM     13  C   UNL     1     -42.512 -54.251  34.108  0.00  0.00    +0.000 A 
ATOM     14  C   UNL     1     -43.301 -55.386  34.215  0.00  0.00    +0.000 A 
ATOM     15  N   UNL     1     -43.108 -53.048  33.645  0.00  0.00    +0.000 N 
ATOM     16  C   UNL     1     -44.151 -53.140  32.589  0.00  0.00    +0.000 C 
ATOM     17  C   UNL     1     -44.237 -52.348  31.256  0.00  0.00    +0.000 C 
ATOM     18  N   UNL     1     -43.363 -51.313  30.636  0.00  0.00    +0.000 N 
ATOM     19  C   UNL     1     -42.351 -51.263  31.729  0.00  0.00    +0.000 C 
ATOM     20  C   UNL     1     -42.201 -52.016  33.076  0.00  0.00    +0.000 C 
BRANCH  18  21
ATOM     21  C   UNL     1     -44.099 -50.057  30.690  0.00  0.00    +0.000 C 
ATOM     22  C   UNL     1     -44.873 -48.734  30.747  0.00  0.00    +0.000 C 
BRANCH  22  23
ATOM     23  O   UNL     1     -45.542 -47.589  30.799  0.00  0.00    +0.000 OA
ATOM     24  H   UNL     1     -45.331 -47.037  30.028  0.00  0.00    +0.000 HD
ENDBRANCH  22  23
ENDBRANCH  18  21
ENDBRANCH   1   8
BRANCH   5  25
ATOM     25  C   UNL     1     -46.075 -61.000  31.842  0.00  0.00    +0.000 C 
ATOM     26  O   UNL     1     -47.014 -60.655  31.127  0.00  0.00    +0.000 OA
ATOM     27  N   UNL     1     -45.886 -62.320  32.234  0.00  0.00    +0.000 N 
ATOM     28  H   UNL     1     -45.492 -62.449  33.165  0.00  0.00    +0.000 HD
BRANCH  27  29
ATOM     29  C   UNL     1     -46.691 -63.409  31.780  0.00  0.00    +0.000 A 
ATOM     30  C   UNL     1     -47.700 -63.886  32.643  0.00  0.00    +0.000 A 
ATOM     31  C   UNL     1     -48.551 -64.923  32.263  0.00  0.00    +0.000 A 
ATOM     32  C   UNL     1     -47.902 -63.265  34.010  0.00  0.00    +0.000 C 
ATOM     33  C   UNL     1     -48.398 -65.522  31.019  0.00  0.00    +0.000 A 
ATOM     34  C   UNL     1     -47.366 -65.113  30.182  0.00  0.00    +0.000 A 
ATOM     35  C   UNL     1     -46.510 -64.073  30.556  0.00  0.00    +0.000 A 
ATOM     36 CL   UNL     1     -45.121 -63.860  29.550  0.00  0.00    +0.000 Cl
ENDBRANCH  27  29
ENDBRANCH   5  25
TORSDOF 5
ENDMDL
MODEL 7
REMARK VINA RESULT:      -6.7     19.843     21.828
REMARK  Name = Dasatinib.pdbqt.pdb
REMARK  5 active torsions:
REMARK  status: ('A' for Active; 'I' for Inactive)
REMARK    1  A    between atoms: N_1  and  C_3
REMARK    2  A    between atoms: N_13  and  C_16
REMARK    3  A    between atoms: C_17  and  O_18
REMARK    4  A    between atoms: C_22  and  C_25
REMARK    5  A    between atoms: N_27  and  C_29
REMARK                            x       y       z     vdW  Elec       q    Type
REMARK                         _______ _______ _______ _____ _____    ______ ____
ROOT
ATOM      1  N   UNL     1     -41.822 -57.917  34.480  0.00  0.00    +0.000 N 
ATOM      2  H   UNL     1     -41.249 -58.415  33.810  0.00  0.00    +0.000 HD
ATOM      3  C   UNL     1     -42.310 -58.646  35.510  0.00  0.00    +0.000 A 
ATOM      4  S   UNL     1     -42.052 -60.357  35.520  0.00  0.00    +0.000 S 
ATOM      5  C   UNL     1     -42.916 -60.487  36.993  0.00  0.00    +0.000 A 
ATOM      6  C   UNL     1     -43.345 -59.235  37.363  0.00  0.00    +0.000 A 
ATOM      7  N   UNL     1     -43.030 -58.203  36.516  0.00  0.00    +0.000 NA
ENDROOT
BRANCH   1   8
ATOM      8  C   UNL     1     -41.519 -56.540  34.547  0.00  0.00    +0.000 A 
ATOM      9  N   UNL     1     -40.370 -56.097  35.069  0.00  0.00    +0.000 NA
ATOM     10  C   UNL     1     -40.199 -54.772  35.140  0.00  0.00    +0.000 A 
ATOM     11  N   UNL     1     -41.074 -53.853  34.716  0.00  0.00    +0.000 NA
ATOM     12  C   UNL     1     -38.904 -54.269  35.707  0.00  0.00    +0.000 C 
ATOM     13  C   UNL     1     -42.221 -54.304  34.178  0.00  0.00    +0.000 A 
ATOM     14  C   UNL     1     -42.484 -55.662  34.088  0.00  0.00    +0.000 A 
ATOM     15  N   UNL     1     -43.215 -53.386  33.746  0.00  0.00    +0.000 N 
ATOM     16  C   UNL     1     -44.039 -53.748  32.561  0.00  0.00    +0.000 C 
ATOM     17  C   UNL     1     -44.330 -52.891  31.300  0.00  0.00    +0.000 C 
ATOM     18  N   UNL     1     -43.906 -51.524  30.885  0.00  0.00    +0.000 N 
ATOM     19  C   UNL     1     -43.098 -51.218  32.098  0.00  0.00    +0.000 C 
ATOM     20  C   UNL     1     -42.765 -52.016  33.386  0.00  0.00    +0.000 C 
BRANCH  18  21
ATOM     21  C   UNL     1     -45.093 -50.682  30.950  0.00  0.00    +0.000 C 
ATOM     22  C   UNL     1     -46.344 -49.796  31.017  0.00  0.00    +0.000 C 
BRANCH  22  23
ATOM     23  O   UNL     1     -47.427 -49.031  31.074  0.00  0.00    +0.000 OA
ATOM     24  H   UNL     1     -47.625 -48.657  30.199  0.00  0.00    +0.000 HD
ENDBRANCH  22  23
ENDBRANCH  18  21
ENDBRANCH   1   8
BRANCH   5  25
ATOM     25  C   UNL     1     -43.085 -61.763  37.652  0.00  0.00    +0.000 C 
ATOM     26  O   UNL     1     -42.153 -62.530  37.881  0.00  0.00    +0.000 OA
ATOM     27  N   UNL     1     -44.406 -62.092  37.932  0.00  0.00    +0.000 N 
ATOM     28  H   UNL     1     -45.099 -61.722  37.283  0.00  0.00    +0.000 HD
BRANCH  27  29
ATOM     29  C   UNL     1     -44.803 -63.296  38.591  0.00  0.00    +0.000 A 
ATOM     30  C   UNL     1     -45.433 -64.294  37.818  0.00  0.00    +0.000 A 
ATOM     31  C   UNL     1     -45.822 -65.510  38.377  0.00  0.00    +0.000 A 
ATOM     32  C   UNL     1     -45.689 -64.075  36.340  0.00  0.00    +0.000 C 
ATOM     33  C   UNL     1     -45.609 -65.748  39.728  0.00  0.00    +0.000 A 
ATOM     34  C   UNL     1     -45.052 -64.752  40.523  0.00  0.00    +0.000 A 
ATOM     35  C   UNL     1     -44.659 -63.530  39.969  0.00  0.00    +0.000 A 
ATOM     36 CL   UNL     1     -44.243 -62.300  41.109  0.00  0.00    +0.000 Cl
ENDBRANCH  27  29
ENDBRANCH   5  25
TORSDOF 5
ENDMDL
MODEL 8
REMARK VINA RESULT:      -6.7      2.029      2.352
REMARK  Name = Dasatinib.pdbqt.pdb
REMARK  5 active torsions:
REMARK  status: ('A' for Active; 'I' for Inactive)
REMARK    1  A    between atoms: N_1  and  C_3
REMARK    2  A    between atoms: N_13  and  C_16
REMARK    3  A    between atoms: C_17  and  O_18
REMARK    4  A    between atoms: C_22  and  C_25
REMARK    5  A    between atoms: N_27  and  C_29
REMARK                            x       y       z     vdW  Elec       q    Type
REMARK                         _______ _______ _______ _____ _____    ______ ____
ROOT
ATOM      1  N   UNL     1     -34.416 -45.040  52.893  0.00  0.00    +0.000 N 
ATOM      2  H   UNL     1     -35.320 -45.425  53.137  0.00  0.00    +0.000 HD
ATOM      3  C   UNL     1     -33.386 -45.917  52.839  0.00  0.00    +0.000 A 
ATOM      4  S   UNL     1     -33.656 -47.554  53.326  0.00  0.00    +0.000 S 
ATOM      5  C   UNL     1     -32.015 -47.929  53.003  0.00  0.00    +0.000 A 
ATOM      6  C   UNL     1     -31.383 -46.791  52.563  0.00  0.00    +0.000 A 
ATOM      7  N   UNL     1     -32.145 -45.652  52.497  0.00  0.00    +0.000 NA
ENDROOT
BRANCH   1   8
ATOM      8  C   UNL     1     -34.509 -43.866  52.115  0.00  0.00    +0.000 A 
ATOM      9  N   UNL     1     -33.436 -43.113  51.847  0.00  0.00    +0.000 NA
ATOM     10  C   UNL     1     -33.636 -41.989  51.150  0.00  0.00    +0.000 A 
ATOM     11  N   UNL     1     -34.816 -41.563  50.683  0.00  0.00    +0.000 NA
ATOM     12  C   UNL     1     -32.434 -41.150  50.828  0.00  0.00    +0.000 C 
ATOM     13  C   UNL     1     -35.888 -42.332  50.943  0.00  0.00    +0.000 A 
ATOM     14  C   UNL     1     -35.770 -43.501  51.678  0.00  0.00    +0.000 A 
ATOM     15  N   UNL     1     -37.180 -41.923  50.517  0.00  0.00    +0.000 N 
ATOM     16  C   UNL     1     -38.153 -42.973  50.112  0.00  0.00    +0.000 C 
ATOM     17  C   UNL     1     -39.001 -43.042  48.814  0.00  0.00    +0.000 C 
ATOM     18  N   UNL     1     -39.109 -42.149  47.626  0.00  0.00    +0.000 N 
ATOM     19  C   UNL     1     -38.127 -41.128  48.087  0.00  0.00    +0.000 C 
ATOM     20  C   UNL     1     -37.250 -40.992  49.359  0.00  0.00    +0.000 C 
BRANCH  18  21
ATOM     21  C   UNL     1     -40.424 -41.524  47.692  0.00  0.00    +0.000 C 
ATOM     22  C   UNL     1     -41.808 -40.868  47.762  0.00  0.00    +0.000 C 
BRANCH  22  23
ATOM     23  O   UNL     1     -43.008 -40.302  47.824  0.00  0.00    +0.000 OA
ATOM     24  H   UNL     1     -43.043 -39.518  47.250  0.00  0.00    +0.000 HD
ENDBRANCH  22  23
ENDBRANCH  18  21
ENDBRANCH   1   8
BRANCH   5  25
ATOM     25  C   UNL     1     -31.503 -49.269  53.188  0.00  0.00    +0.000 C 
ATOM     26  O   UNL     1     -30.514 -49.522  53.871  0.00  0.00    +0.000 OA
ATOM     27  N   UNL     1     -32.174 -50.243  52.460  0.00  0.00    +0.000 N 
ATOM     28  H   UNL     1     -32.575 -49.934  51.575  0.00  0.00    +0.000 HD
BRANCH  27  29
ATOM     29  C   UNL     1     -31.848 -51.634  52.502  0.00  0.00    +0.000 A 
ATOM     30  C   UNL     1     -31.362 -52.233  51.322  0.00  0.00    +0.000 A 
ATOM     31  C   UNL     1     -30.990 -53.576  51.287  0.00  0.00    +0.000 A 
ATOM     32  C   UNL     1     -31.212 -51.421  50.052  0.00  0.00    +0.000 C 
ATOM     33  C   UNL     1     -31.116 -54.357  52.429  0.00  0.00    +0.000 A 
ATOM     34  C   UNL     1     -31.657 -53.803  53.584  0.00  0.00    +0.000 A 
ATOM     35  C   UNL     1     -32.032 -52.457  53.626  0.00  0.00    +0.000 A 
ATOM     36 CL   UNL     1     -32.933 -51.982  55.022  0.00  0.00    +0.000 Cl
ENDBRANCH  27  29
ENDBRANCH   5  25
TORSDOF 5
ENDMDL
MODEL 9
REMARK VINA RESULT:      -6.6     39.944     42.254
REMARK  Name = Dasatinib.pdbqt.pdb
REMARK  5 active torsions:
REMARK  status: ('A' for Active; 'I' for Inactive)
REMARK    1  A    between atoms: N_1  and  C_3
REMARK    2  A    between atoms: N_13  and  C_16
REMARK    3  A    between atoms: C_17  and  O_18
REMARK    4  A    between atoms: C_22  and  C_25
REMARK    5  A    between atoms: N_27  and  C_29
REMARK                            x       y       z     vdW  Elec       q    Type
REMARK                         _______ _______ _______ _____ _____    ______ ____
ROOT
ATOM      1  N   UNL     1     -67.436 -70.146  41.136  0.00  0.00    +0.000 N 
ATOM      2  H   UNL     1     -66.977 -70.999  41.431  0.00  0.00    +0.000 HD
ATOM      3  C   UNL     1     -66.668 -69.031  41.108  0.00  0.00    +0.000 A 
ATOM      4  S   UNL     1     -65.049 -69.117  41.709  0.00  0.00    +0.000 S 
ATOM      5  C   UNL     1     -64.824 -67.454  41.364  0.00  0.00    +0.000 A 
ATOM      6  C   UNL     1     -65.989 -66.955  40.832  0.00  0.00    +0.000 A 
ATOM      7  N   UNL     1     -67.036 -67.833  40.714  0.00  0.00    +0.000 NA
ENDROOT
BRANCH   1   8
ATOM      8  C   UNL     1     -68.539 -70.379  40.285  0.00  0.00    +0.000 A 
ATOM      9  N   UNL     1     -68.420 -71.092  39.159  0.00  0.00    +0.000 NA
ATOM     10  C   UNL     1     -69.509 -71.210  38.392  0.00  0.00    +0.000 A 
ATOM     11  N   UNL     1     -70.711 -70.690  38.664  0.00  0.00    +0.000 NA
ATOM     12  C   UNL     1     -69.387 -72.024  37.137  0.00  0.00    +0.000 C 
ATOM     13  C   UNL     1     -70.828 -69.988  39.804  0.00  0.00    +0.000 A 
ATOM     14  C   UNL     1     -69.742 -69.800  40.645  0.00  0.00    +0.000 A 
ATOM     15  N   UNL     1     -72.063 -69.370  40.138  0.00  0.00    +0.000 N 
ATOM     16  C   UNL     1     -72.439 -69.281  41.575  0.00  0.00    +0.000 C 
ATOM     17  C   UNL     1     -73.779 -69.696  42.241  0.00  0.00    +0.000 C 
ATOM     18  N   UNL     1     -75.038 -70.283  41.702  0.00  0.00    +0.000 N 
ATOM     19  C   UNL     1     -74.605 -70.344  40.278  0.00  0.00    +0.000 C 
ATOM     20  C   UNL     1     -73.296 -69.952  39.545  0.00  0.00    +0.000 C 
BRANCH  18  21
ATOM     21  C   UNL     1     -76.054 -69.243  41.787  0.00  0.00    +0.000 C 
ATOM     22  C   UNL     1     -77.123 -68.146  41.874  0.00  0.00    +0.000 C 
BRANCH  22  23
ATOM     23  O   UNL     1     -78.047 -67.195  41.949  0.00  0.00    +0.000 OA
ATOM     24  H   UNL     1     -78.300 -66.898  41.059  0.00  0.00    +0.000 HD
ENDBRANCH  22  23
ENDBRANCH  18  21
ENDBRANCH   1   8
BRANCH   5  25
ATOM     25  C   UNL     1     -63.560 -66.800  41.621  0.00  0.00    +0.000 C 
ATOM     26  O   UNL     1     -62.618 -67.355  42.182  0.00  0.00    +0.000 OA
ATOM     27  N   UNL     1     -63.524 -65.460  41.256  0.00  0.00    +0.000 N 
ATOM     28  H   UNL     1     -64.413 -64.964  41.316  0.00  0.00    +0.000 HD
BRANCH  27  29
ATOM     29  C   UNL     1     -62.375 -64.625  41.405  0.00  0.00    +0.000 A 
ATOM     30  C   UNL     1     -61.436 -64.601  40.353  0.00  0.00    +0.000 A 
ATOM     31  C   UNL     1     -60.305 -63.789  40.405  0.00  0.00    +0.000 A 
ATOM     32  C   UNL     1     -61.645 -65.451  39.116  0.00  0.00    +0.000 C 
ATOM     33  C   UNL     1     -60.075 -62.996  41.522  0.00  0.00    +0.000 A 
ATOM     34  C   UNL     1     -60.951 -63.057  42.600  0.00  0.00    +0.000 A 
ATOM     35  C   UNL     1     -62.088 -63.869  42.554  0.00  0.00    +0.000 A 
ATOM     36 CL   UNL     1     -62.928 -64.052  44.054  0.00  0.00    +0.000 Cl
ENDBRANCH  27  29
ENDBRANCH   5  25
TORSDOF 5
ENDMDL
