MODEL 1
REMARK VINA RESULT:      -5.9      0.000      0.000
REMARK  Name = Decitabine.pdbqt.pdb
REMARK  4 active torsions:
REMARK  status: ('A' for Active; 'I' for Inactive)
REMARK    1  A    between atoms: N_2  and  C1*_8
REMARK    2  A    between atoms: C4*_10  and  C5*_13
REMARK    3  A    between atoms: C3*_11  and  O3*_16
REMARK    4  A    between atoms: C5*_13  and  O5*_14
REMARK                            x       y       z     vdW  Elec       q    Type
REMARK                         _______ _______ _______ _____ _____    ______ ____
ROOT
ATOM      1  O   UNL     1     -31.295 -48.976  53.275  0.00  0.00    +0.000 OA
ATOM      2  N   UNL     1     -33.198 -50.268  53.542  0.00  0.00    +0.000 N 
ATOM      3  N   UNL     1     -33.336 -48.020  52.890  0.00  0.00    +0.000 NA
ATOM      4  N   UNL     1     -35.306 -49.325  53.180  0.00  0.00    +0.000 NA
ATOM      5  C   UNL     1     -32.516 -49.093  53.241  0.00  0.00    +0.000 A 
ATOM      6  C   UNL     1     -34.519 -50.144  53.445  0.00  0.00    +0.000 A 
ATOM      7  C   UNL     1     -34.637 -48.158  52.856  0.00  0.00    +0.000 A 
ATOM      8  N   UNL     1     -35.390 -47.085  52.503  0.00  0.00    +0.000 N 
ATOM      9  H   UNL     1     -36.331 -47.094  52.875  0.00  0.00    +0.000 HD
ATOM     10  H   UNL     1     -34.902 -46.203  52.601  0.00  0.00    +0.000 HD
ENDROOT
BRANCH   2  11
ATOM     11  C1* UNL     1     -32.641 -51.451  53.910  0.00  0.00    +0.000 A 
ATOM     12  O4* UNL     1     -32.690 -51.919  55.227  0.00  0.00    +0.000 OA
ATOM     13  C4* UNL     1     -32.033 -53.155  55.245  0.00  0.00    +0.000 A 
ATOM     14  C3* UNL     1     -31.561 -53.459  53.918  0.00  0.00    +0.000 A 
ATOM     15  C2* UNL     1     -31.965 -52.388  53.102  0.00  0.00    +0.000 A 
BRANCH  14  16
ATOM     16  O3* UNL     1     -31.448 -54.751  53.490  0.00  0.00    +0.000 OA
ATOM     17  H3* UNL     1     -30.680 -55.188  53.897  0.00  0.00    +0.000 HD
ENDBRANCH  14  16
BRANCH  13  18
ATOM     18  C5* UNL     1     -32.036 -53.999  56.373  0.00  0.00    +0.000 C 
BRANCH  18  19
ATOM     19  O5* UNL     1     -32.037 -54.793  57.440  0.00  0.00    +0.000 OA
ATOM     20  H5* UNL     1     -31.755 -55.690  57.192  0.00  0.00    +0.000 HD
ENDBRANCH  18  19
ENDBRANCH  13  18
ENDBRANCH   2  11
TORSDOF 4
ENDMDL
MODEL 2
REMARK VINA RESULT:      -5.1      7.091     10.215
REMARK  Name = Decitabine.pdbqt.pdb
REMARK  4 active torsions:
REMARK  status: ('A' for Active; 'I' for Inactive)
REMARK    1  A    between atoms: N_2  and  C1*_8
REMARK    2  A    between atoms: C4*_10  and  C5*_13
REMARK    3  A    between atoms: C3*_11  and  O3*_16
REMARK    4  A    between atoms: C5*_13  and  O5*_14
REMARK                            x       y       z     vdW  Elec       q    Type
REMARK                         _______ _______ _______ _____ _____    ______ ____
ROOT
ATOM      1  O   UNL     1     -33.954 -43.537  50.425  0.00  0.00    +0.000 OA
ATOM      2  N   UNL     1     -35.921 -44.673  50.873  0.00  0.00    +0.000 N 
ATOM      3  N   UNL     1     -33.919 -45.235  51.956  0.00  0.00    +0.000 NA
ATOM      4  N   UNL     1     -35.927 -46.429  52.415  0.00  0.00    +0.000 NA
ATOM      5  C   UNL     1     -34.564 -44.410  51.033  0.00  0.00    +0.000 A 
ATOM      6  C   UNL     1     -36.352 -45.675  51.632  0.00  0.00    +0.000 A 
ATOM      7  C   UNL     1     -34.581 -46.162  52.599  0.00  0.00    +0.000 A 
ATOM      8  N   UNL     1     -33.909 -46.934  53.491  0.00  0.00    +0.000 N 
ATOM      9  H   UNL     1     -34.314 -47.849  53.640  0.00  0.00    +0.000 HD
ATOM     10  H   UNL     1     -32.906 -46.930  53.349  0.00  0.00    +0.000 HD
ENDROOT
BRANCH   2  11
ATOM     11  C1* UNL     1     -36.775 -44.019  50.042  0.00  0.00    +0.000 A 
ATOM     12  O4* UNL     1     -36.699 -44.143  48.651  0.00  0.00    +0.000 OA
ATOM     13  C4* UNL     1     -37.721 -43.349  48.116  0.00  0.00    +0.000 A 
ATOM     14  C3* UNL     1     -38.441 -42.716  49.191  0.00  0.00    +0.000 A 
ATOM     15  C2* UNL     1     -37.840 -43.161  50.382  0.00  0.00    +0.000 A 
BRANCH  14  16
ATOM     16  O3* UNL     1     -39.766 -42.410  49.068  0.00  0.00    +0.000 OA
ATOM     17  H3* UNL     1     -40.242 -42.578  49.900  0.00  0.00    +0.000 HD
ENDBRANCH  14  16
BRANCH  13  18
ATOM     18  C5* UNL     1     -38.056 -43.364  46.747  0.00  0.00    +0.000 C 
BRANCH  18  19
ATOM     19  O5* UNL     1     -38.370 -43.374  45.455  0.00  0.00    +0.000 OA
ATOM     20  H5* UNL     1     -39.181 -43.890  45.310  0.00  0.00    +0.000 HD
ENDBRANCH  18  19
ENDBRANCH  13  18
ENDBRANCH   2  11
TORSDOF 4
ENDMDL
MODEL 3
REMARK VINA RESULT:      -5.0      4.418      6.240
REMARK  Name = Decitabine.pdbqt.pdb
REMARK  4 active torsions:
REMARK  status: ('A' for Active; 'I' for Inactive)
REMARK    1  A    between atoms: N_2  and  C1*_8
REMARK    2  A    between atoms: C4*_10  and  C5*_13
REMARK    3  A    between atoms: C3*_11  and  O3*_16
REMARK    4  A    between atoms: C5*_13  and  O5*_14
REMARK                            x       y       z     vdW  Elec       q    Type
REMARK                         _______ _______ _______ _____ _____    ______ ____
ROOT
ATOM      1  O   UNL     1     -33.444 -43.881  53.884  0.00  0.00    +0.000 OA
ATOM      2  N   UNL     1     -34.694 -44.571  52.062  0.00  0.00    +0.000 N 
ATOM      3  N   UNL     1     -34.684 -42.330  52.751  0.00  0.00    +0.000 NA
ATOM      4  N   UNL     1     -35.994 -43.023  50.888  0.00  0.00    +0.000 NA
ATOM      5  C   UNL     1     -34.214 -43.626  52.964  0.00  0.00    +0.000 A 
ATOM      6  C   UNL     1     -35.525 -44.056  51.161  0.00  0.00    +0.000 A 
ATOM      7  C   UNL     1     -35.505 -42.071  51.766  0.00  0.00    +0.000 A 
ATOM      8  N   UNL     1     -35.929 -40.793  51.597  0.00  0.00    +0.000 N 
ATOM      9  H   UNL     1     -36.825 -40.707  51.136  0.00  0.00    +0.000 HD
ATOM     10  H   UNL     1     -35.821 -40.222  52.427  0.00  0.00    +0.000 HD
ENDROOT
BRANCH   2  11
ATOM     11  C1* UNL     1     -34.393 -45.896  52.047  0.00  0.00    +0.000 A 
ATOM     12  O4* UNL     1     -34.908 -46.786  52.996  0.00  0.00    +0.000 OA
ATOM     13  C4* UNL     1     -34.404 -48.054  52.680  0.00  0.00    +0.000 A 
ATOM     14  C3* UNL     1     -33.557 -47.950  51.519  0.00  0.00    +0.000 A 
ATOM     15  C2* UNL     1     -33.578 -46.597  51.136  0.00  0.00    +0.000 A 
BRANCH  14  16
ATOM     16  O3* UNL     1     -33.427 -48.993  50.647  0.00  0.00    +0.000 OA
ATOM     17  H3* UNL     1     -32.521 -49.042  50.294  0.00  0.00    +0.000 HD
ENDBRANCH  14  16
BRANCH  13  18
ATOM     18  C5* UNL     1     -34.847 -49.227  53.321  0.00  0.00    +0.000 C 
BRANCH  18  19
ATOM     19  O5* UNL     1     -35.264 -50.333  53.931  0.00  0.00    +0.000 OA
ATOM     20  H5* UNL     1     -34.509 -50.914  54.127  0.00  0.00    +0.000 HD
ENDBRANCH  18  19
ENDBRANCH  13  18
ENDBRANCH   2  11
TORSDOF 4
ENDMDL
MODEL 4
REMARK VINA RESULT:      -5.0      2.726      4.144
REMARK  Name = Decitabine.pdbqt.pdb
REMARK  4 active torsions:
REMARK  status: ('A' for Active; 'I' for Inactive)
REMARK    1  A    between atoms: N_2  and  C1*_8
REMARK    2  A    between atoms: C4*_10  and  C5*_13
REMARK    3  A    between atoms: C3*_11  and  O3*_16
REMARK    4  A    between atoms: C5*_13  and  O5*_14
REMARK                            x       y       z     vdW  Elec       q    Type
REMARK                         _______ _______ _______ _____ _____    ______ ____
ROOT
ATOM      1  O   UNL     1     -32.274 -45.504  51.781  0.00  0.00    +0.000 OA
ATOM      2  N   UNL     1     -34.282 -46.621  52.063  0.00  0.00    +0.000 N 
ATOM      3  N   UNL     1     -34.215 -44.295  51.780  0.00  0.00    +0.000 NA
ATOM      4  N   UNL     1     -36.289 -45.423  52.090  0.00  0.00    +0.000 NA
ATOM      5  C   UNL     1     -33.498 -45.489  51.868  0.00  0.00    +0.000 A 
ATOM      6  C   UNL     1     -35.582 -46.350  52.137  0.00  0.00    +0.000 A 
ATOM      7  C   UNL     1     -35.520 -44.292  51.874  0.00  0.00    +0.000 A 
ATOM      8  N   UNL     1     -36.172 -43.105  51.776  0.00  0.00    +0.000 N 
ATOM      9  H   UNL     1     -37.067 -43.080  52.247  0.00  0.00    +0.000 HD
ATOM     10  H   UNL     1     -35.576 -42.305  51.951  0.00  0.00    +0.000 HD
ENDROOT
BRANCH   2  11
ATOM     11  C1* UNL     1     -33.836 -47.900  52.181  0.00  0.00    +0.000 A 
ATOM     12  O4* UNL     1     -34.013 -48.643  53.352  0.00  0.00    +0.000 OA
ATOM     13  C4* UNL     1     -33.445 -49.903  53.123  0.00  0.00    +0.000 A 
ATOM     14  C3* UNL     1     -32.901 -49.942  51.790  0.00  0.00    +0.000 A 
ATOM     15  C2* UNL     1     -33.170 -48.685  51.219  0.00  0.00    +0.000 A 
BRANCH  14  16
ATOM     16  O3* UNL     1     -32.848 -51.110  51.085  0.00  0.00    +0.000 OA
ATOM     17  H3* UNL     1     -32.277 -51.761  51.529  0.00  0.00    +0.000 HD
ENDBRANCH  14  16
BRANCH  13  18
ATOM     18  C5* UNL     1     -33.588 -50.975  54.027  0.00  0.00    +0.000 C 
BRANCH  18  19
ATOM     19  O5* UNL     1     -33.728 -51.985  54.880  0.00  0.00    +0.000 OA
ATOM     20  H5* UNL     1     -32.960 -52.579  54.826  0.00  0.00    +0.000 HD
ENDBRANCH  18  19
ENDBRANCH  13  18
ENDBRANCH   2  11
TORSDOF 4
ENDMDL
MODEL 5
REMARK VINA RESULT:      -4.9      1.677      2.758
REMARK  Name = Decitabine.pdbqt.pdb
REMARK  4 active torsions:
REMARK  status: ('A' for Active; 'I' for Inactive)
REMARK    1  A    between atoms: N_2  and  C1*_8
REMARK    2  A    between atoms: C4*_10  and  C5*_13
REMARK    3  A    between atoms: C3*_11  and  O3*_16
REMARK    4  A    between atoms: C5*_13  and  O5*_14
REMARK                            x       y       z     vdW  Elec       q    Type
REMARK                         _______ _______ _______ _____ _____    ______ ____
ROOT
ATOM      1  O   UNL     1     -30.888 -48.398  53.113  0.00  0.00    +0.000 OA
ATOM      2  N   UNL     1     -32.945 -49.447  52.941  0.00  0.00    +0.000 N 
ATOM      3  N   UNL     1     -32.778 -47.112  53.057  0.00  0.00    +0.000 NA
ATOM      4  N   UNL     1     -34.904 -48.173  52.903  0.00  0.00    +0.000 NA
ATOM      5  C   UNL     1     -32.112 -48.338  53.040  0.00  0.00    +0.000 A 
ATOM      6  C   UNL     1     -34.235 -49.128  52.888  0.00  0.00    +0.000 A 
ATOM      7  C   UNL     1     -34.083 -47.061  52.979  0.00  0.00    +0.000 A 
ATOM      8  N   UNL     1     -34.683 -45.843  52.994  0.00  0.00    +0.000 N 
ATOM      9  H   UNL     1     -35.633 -45.850  53.341  0.00  0.00    +0.000 HD
ATOM     10  H   UNL     1     -34.096 -45.112  53.376  0.00  0.00    +0.000 HD
ENDROOT
BRANCH   2  11
ATOM     11  C1* UNL     1     -32.553 -50.748  52.903  0.00  0.00    +0.000 A 
ATOM     12  O4* UNL     1     -32.257 -51.400  51.701  0.00  0.00    +0.000 OA
ATOM     13  C4* UNL     1     -31.886 -52.710  52.030  0.00  0.00    +0.000 A 
ATOM     14  C3* UNL     1     -31.958 -52.877  53.459  0.00  0.00    +0.000 A 
ATOM     15  C2* UNL     1     -32.363 -51.636  53.980  0.00  0.00    +0.000 A 
BRANCH  14  16
ATOM     16  O3* UNL     1     -31.132 -53.751  54.108  0.00  0.00    +0.000 OA
ATOM     17  H3* UNL     1     -30.198 -53.534  53.947  0.00  0.00    +0.000 HD
ENDBRANCH  14  16
BRANCH  13  18
ATOM     18  C5* UNL     1     -31.355 -53.608  51.083  0.00  0.00    +0.000 C 
BRANCH  18  19
ATOM     19  O5* UNL     1     -30.856 -54.453  50.186  0.00  0.00    +0.000 OA
ATOM     20  H5* UNL     1     -31.056 -55.370  50.440  0.00  0.00    +0.000 HD
ENDBRANCH  18  19
ENDBRANCH  13  18
ENDBRANCH   2  11
TORSDOF 4
ENDMDL
MODEL 6
REMARK VINA RESULT:      -4.7     45.004     46.113
REMARK  Name = Decitabine.pdbqt.pdb
REMARK  4 active torsions:
REMARK  status: ('A' for Active; 'I' for Inactive)
REMARK    1  A    between atoms: N_2  and  C1*_8
REMARK    2  A    between atoms: C4*_10  and  C5*_13
REMARK    3  A    between atoms: C3*_11  and  O3*_16
REMARK    4  A    between atoms: C5*_13  and  O5*_14
REMARK                            x       y       z     vdW  Elec       q    Type
REMARK                         _______ _______ _______ _____ _____    ______ ____
ROOT
ATOM      1  O   UNL     1     -62.441 -72.830  24.715  0.00  0.00    +0.000 OA
ATOM      2  N   UNL     1     -62.338 -70.719  25.660  0.00  0.00    +0.000 N 
ATOM      3  N   UNL     1     -60.530 -71.601  24.455  0.00  0.00    +0.000 NA
ATOM      4  N   UNL     1     -60.396 -69.437  25.438  0.00  0.00    +0.000 NA
ATOM      5  C   UNL     1     -61.828 -71.790  24.932  0.00  0.00    +0.000 A 
ATOM      6  C   UNL     1     -61.481 -69.708  25.771  0.00  0.00    +0.000 A 
ATOM      7  C   UNL     1     -59.887 -70.488  24.694  0.00  0.00    +0.000 A 
ATOM      8  N   UNL     1     -58.629 -70.351  24.203  0.00  0.00    +0.000 N 
ATOM      9  H   UNL     1     -58.043 -69.713  24.726  0.00  0.00    +0.000 HD
ATOM     10  H   UNL     1     -58.192 -71.234  23.968  0.00  0.00    +0.000 HD
ENDROOT
BRANCH   2  11
ATOM     11  C1* UNL     1     -63.569 -70.646  26.230  0.00  0.00    +0.000 A 
ATOM     12  O4* UNL     1     -64.738 -70.567  25.466  0.00  0.00    +0.000 OA
ATOM     13  C4* UNL     1     -65.810 -70.514  26.367  0.00  0.00    +0.000 A 
ATOM     14  C3* UNL     1     -65.299 -70.555  27.713  0.00  0.00    +0.000 A 
ATOM     15  C2* UNL     1     -63.900 -70.651  27.600  0.00  0.00    +0.000 A 
BRANCH  14  16
ATOM     16  O3* UNL     1     -66.027 -71.110  28.726  0.00  0.00    +0.000 OA
ATOM     17  H3* UNL     1     -65.501 -71.765  29.217  0.00  0.00    +0.000 HD
ENDBRANCH  14  16
BRANCH  13  18
ATOM     18  C5* UNL     1     -67.153 -70.601  25.952  0.00  0.00    +0.000 C 
BRANCH  18  19
ATOM     19  O5* UNL     1     -68.421 -70.680  25.558  0.00  0.00    +0.000 OA
ATOM     20  H5* UNL     1     -68.504 -70.390  24.633  0.00  0.00    +0.000 HD
ENDBRANCH  18  19
ENDBRANCH  13  18
ENDBRANCH   2  11
TORSDOF 4
ENDMDL
MODEL 7
REMARK VINA RESULT:      -4.7      2.142      2.897
REMARK  Name = Decitabine.pdbqt.pdb
REMARK  4 active torsions:
REMARK  status: ('A' for Active; 'I' for Inactive)
REMARK    1  A    between atoms: N_2  and  C1*_8
REMARK    2  A    between atoms: C4*_10  and  C5*_13
REMARK    3  A    between atoms: C3*_11  and  O3*_16
REMARK    4  A    between atoms: C5*_13  and  O5*_14
REMARK                            x       y       z     vdW  Elec       q    Type
REMARK                         _______ _______ _______ _____ _____    ______ ____
ROOT
ATOM      1  O   UNL     1     -29.680 -49.939  54.410  0.00  0.00    +0.000 OA
ATOM      2  N   UNL     1     -31.605 -51.225  54.411  0.00  0.00    +0.000 N 
ATOM      3  N   UNL     1     -31.274 -49.534  52.821  0.00  0.00    +0.000 NA
ATOM      4  N   UNL     1     -33.270 -50.831  52.818  0.00  0.00    +0.000 NA
ATOM      5  C   UNL     1     -30.771 -50.223  53.926  0.00  0.00    +0.000 A 
ATOM      6  C   UNL     1     -32.740 -51.336  53.726  0.00  0.00    +0.000 A 
ATOM      7  C   UNL     1     -32.438 -49.846  52.313  0.00  0.00    +0.000 A 
ATOM      8  N   UNL     1     -32.880 -49.151  51.235  0.00  0.00    +0.000 N 
ATOM      9  H   UNL     1     -33.886 -49.122  51.139  0.00  0.00    +0.000 HD
ATOM     10  H   UNL     1     -32.416 -48.258  51.116  0.00  0.00    +0.000 HD
ENDROOT
BRANCH   2  11
ATOM     11  C1* UNL     1     -31.355 -52.040  55.469  0.00  0.00    +0.000 A 
ATOM     12  O4* UNL     1     -30.618 -51.611  56.579  0.00  0.00    +0.000 OA
ATOM     13  C4* UNL     1     -30.561 -52.690  57.470  0.00  0.00    +0.000 A 
ATOM     14  C3* UNL     1     -31.269 -53.809  56.904  0.00  0.00    +0.000 A 
ATOM     15  C2* UNL     1     -31.765 -53.374  55.663  0.00  0.00    +0.000 A 
BRANCH  14  16
ATOM     16  O3* UNL     1     -31.893 -54.725  57.702  0.00  0.00    +0.000 OA
ATOM     17  H3* UNL     1     -31.245 -55.281  58.169  0.00  0.00    +0.000 HD
ENDBRANCH  14  16
BRANCH  13  18
ATOM     18  C5* UNL     1     -30.043 -52.569  58.774  0.00  0.00    +0.000 C 
BRANCH  18  19
ATOM     19  O5* UNL     1     -29.559 -52.456  60.008  0.00  0.00    +0.000 OA
ATOM     20  H5* UNL     1     -28.669 -52.065  59.985  0.00  0.00    +0.000 HD
ENDBRANCH  18  19
ENDBRANCH  13  18
ENDBRANCH   2  11
TORSDOF 4
ENDMDL
MODEL 8
REMARK VINA RESULT:      -4.6     11.774     13.392
REMARK  Name = Decitabine.pdbqt.pdb
REMARK  4 active torsions:
REMARK  status: ('A' for Active; 'I' for Inactive)
REMARK    1  A    between atoms: N_2  and  C1*_8
REMARK    2  A    between atoms: C4*_10  and  C5*_13
REMARK    3  A    between atoms: C3*_11  and  O3*_16
REMARK    4  A    between atoms: C5*_13  and  O5*_14
REMARK                            x       y       z     vdW  Elec       q    Type
REMARK                         _______ _______ _______ _____ _____    ______ ____
ROOT
ATOM      1  O   UNL     1     -31.848 -59.081  44.435  0.00  0.00    +0.000 OA
ATOM      2  N   UNL     1     -33.539 -59.696  45.892  0.00  0.00    +0.000 N 
ATOM      3  N   UNL     1     -31.808 -58.268  46.573  0.00  0.00    +0.000 NA
ATOM      4  N   UNL     1     -33.526 -58.907  48.092  0.00  0.00    +0.000 NA
ATOM      5  C   UNL     1     -32.370 -59.026  45.544  0.00  0.00    +0.000 A 
ATOM      6  C   UNL     1     -33.901 -59.492  47.155  0.00  0.00    +0.000 A 
ATOM      7  C   UNL     1     -32.375 -58.218  47.751  0.00  0.00    +0.000 A 
ATOM      8  N   UNL     1     -31.792 -57.462  48.715  0.00  0.00    +0.000 N 
ATOM      9  H   UNL     1     -31.994 -57.762  49.660  0.00  0.00    +0.000 HD
ATOM     10  H   UNL     1     -30.817 -57.260  48.532  0.00  0.00    +0.000 HD
ENDROOT
BRANCH   2  11
ATOM     11  C1* UNL     1     -34.280 -60.496  45.081  0.00  0.00    +0.000 A 
ATOM     12  O4* UNL     1     -34.892 -60.014  43.919  0.00  0.00    +0.000 OA
ATOM     13  C4* UNL     1     -35.559 -61.096  43.332  0.00  0.00    +0.000 A 
ATOM     14  C3* UNL     1     -35.365 -62.269  44.145  0.00  0.00    +0.000 A 
ATOM     15  C2* UNL     1     -34.552 -61.872  45.221  0.00  0.00    +0.000 A 
BRANCH  14  16
ATOM     16  O3* UNL     1     -35.345 -63.516  43.588  0.00  0.00    +0.000 OA
ATOM     17  H3* UNL     1     -36.175 -63.992  43.769  0.00  0.00    +0.000 HD
ENDBRANCH  14  16
BRANCH  13  18
ATOM     18  C5* UNL     1     -36.147 -61.021  42.054  0.00  0.00    +0.000 C 
BRANCH  18  19
ATOM     19  O5* UNL     1     -36.705 -60.953  40.849  0.00  0.00    +0.000 OA
ATOM     20  H5* UNL     1     -36.686 -60.038  40.520  0.00  0.00    +0.000 HD
ENDBRANCH  18  19
ENDBRANCH  13  18
ENDBRANCH   2  11
TORSDOF 4
ENDMDL
MODEL 9
REMARK VINA RESULT:      -4.6     47.027     48.055
REMARK  Name = Decitabine.pdbqt.pdb
REMARK  4 active torsions:
REMARK  status: ('A' for Active; 'I' for Inactive)
REMARK    1  A    between atoms: N_2  and  C1*_8
REMARK    2  A    between atoms: C4*_10  and  C5*_13
REMARK    3  A    between atoms: C3*_11  and  O3*_16
REMARK    4  A    between atoms: C5*_13  and  O5*_14
REMARK                            x       y       z     vdW  Elec       q    Type
REMARK                         _______ _______ _______ _____ _____    ______ ____
ROOT
ATOM      1  O   UNL     1     -66.948 -69.667  25.913  0.00  0.00    +0.000 OA
ATOM      2  N   UNL     1     -66.132 -71.518  27.038  0.00  0.00    +0.000 N 
ATOM      3  N   UNL     1     -64.689 -69.867  26.206  0.00  0.00    +0.000 NA
ATOM      4  N   UNL     1     -63.828 -71.775  27.341  0.00  0.00    +0.000 NA
ATOM      5  C   UNL     1     -66.004 -70.311  26.358  0.00  0.00    +0.000 A 
ATOM      6  C   UNL     1     -64.964 -72.032  27.413  0.00  0.00    +0.000 A 
ATOM      7  C   UNL     1     -63.691 -70.563  26.686  0.00  0.00    +0.000 A 
ATOM      8  N   UNL     1     -62.431 -70.086  26.516  0.00  0.00    +0.000 N 
ATOM      9  H   UNL     1     -61.712 -70.797  26.514  0.00  0.00    +0.000 HD
ATOM     10  H   UNL     1     -62.358 -69.404  25.771  0.00  0.00    +0.000 HD
ENDROOT
BRANCH   2  11
ATOM     11  C1* UNL     1     -67.293 -72.165  27.320  0.00  0.00    +0.000 A 
ATOM     12  O4* UNL     1     -67.513 -72.795  28.549  0.00  0.00    +0.000 OA
ATOM     13  C4* UNL     1     -68.800 -73.346  28.499  0.00  0.00    +0.000 A 
ATOM     14  C3* UNL     1     -69.388 -73.058  27.215  0.00  0.00    +0.000 A 
ATOM     15  C2* UNL     1     -68.434 -72.309  26.505  0.00  0.00    +0.000 A 
BRANCH  14  16
ATOM     16  O3* UNL     1     -70.739 -72.911  27.076  0.00  0.00    +0.000 OA
ATOM     17  H3* UNL     1     -71.030 -72.040  27.399  0.00  0.00    +0.000 HD
ENDBRANCH  14  16
BRANCH  13  18
ATOM     18  C5* UNL     1     -69.427 -73.912  29.626  0.00  0.00    +0.000 C 
BRANCH  18  19
ATOM     19  O5* UNL     1     -70.024 -74.445  30.688  0.00  0.00    +0.000 OA
ATOM     20  H5* UNL     1     -69.994 -75.415  30.639  0.00  0.00    +0.000 HD
ENDBRANCH  18  19
ENDBRANCH  13  18
ENDBRANCH   2  11
TORSDOF 4
ENDMDL
