MODEL 1
REMARK VINA RESULT:      -5.4      0.000      0.000
REMARK  Name = Deferoxamine.pdbqt.pdb
REMARK  19 active torsions:
REMARK  status: ('A' for Active; 'I' for Inactive)
REMARK    1  A    between atoms: C_1  and  C_2
REMARK    2  A    between atoms: C_3  and  C_4
REMARK    3  A    between atoms: C_4  and  N_5
REMARK    4  A    between atoms: C_6  and  C_9
REMARK    5  A    between atoms: C_10  and  C_11
REMARK    6  A    between atoms: N_13  and  O_14
REMARK    7  A    between atoms: N_13  and  C_16
REMARK    8  A    between atoms: C_17  and  C_18
REMARK    9  A    between atoms: C_19  and  C_20
REMARK   10  A    between atoms: C_20  and  N_21
REMARK   11  A    between atoms: C_24  and  N_25
REMARK   12  A    between atoms: N_25  and  O_28
REMARK   13  A    between atoms: C_26  and  C_30
REMARK   14  A    between atoms: C_31  and  C_32
REMARK   15  A    between atoms: N_34  and  C_36
REMARK   16  A    between atoms: C_37  and  C_38
REMARK   17  A    between atoms: C_38  and  C_39
REMARK   18  A    between atoms: C_40  and  N_41
REMARK   19  A    between atoms: N_41  and  O_45
REMARK                            x       y       z     vdW  Elec       q    Type
REMARK                         _______ _______ _______ _____ _____    ______ ____
ROOT
ATOM      1  C   UNL     1     -36.654 -45.047  50.459  0.00  0.00    +0.000 C 
ATOM      2  C   UNL     1     -37.438 -44.273  49.979  0.00  0.00    +0.000 C 
ENDROOT
BRANCH   2   3
ATOM      3  N   UNL     1     -38.318 -43.405  49.438  0.00  0.00    +0.000 N 
ATOM      4  C   UNL     1     -39.118 -43.513  48.314  0.00  0.00    +0.000 C 
ATOM      5  O   UNL     1     -39.033 -44.406  47.477  0.00  0.00    +0.000 OA
BRANCH   4   6
ATOM      6  C   UNL     1     -40.104 -42.475  48.094  0.00  0.00    +0.000 C 
ATOM      7  C   UNL     1     -40.929 -41.624  47.904  0.00  0.00    +0.000 C 
BRANCH   7   8
ATOM      8  C   UNL     1     -41.924 -40.610  47.654  0.00  0.00    +0.000 C 
ATOM      9  O   UNL     1     -41.673 -39.714  46.862  0.00  0.00    +0.000 OA
ATOM     10  N   UNL     1     -43.099 -40.757  48.357  0.00  0.00    +0.000 N 
ATOM     11  H   UNL     1     -43.154 -41.558  48.973  0.00  0.00    +0.000 HD
BRANCH  10  12
ATOM     12  C   UNL     1     -44.204 -39.980  48.339  0.00  0.00    +0.000 C 
ATOM     13  C   UNL     1     -45.189 -39.294  48.322  0.00  0.00    +0.000 C 
BRANCH  13  14
ATOM     14  C   UNL     1     -46.451 -38.427  48.300  0.00  0.00    +0.000 C 
BRANCH  14  15
ATOM     15  C   UNL     1     -47.710 -37.555  48.285  0.00  0.00    +0.000 C 
ATOM     16  C   UNL     1     -48.698 -36.874  48.273  0.00  0.00    +0.000 C 
BRANCH  16  17
ATOM     17  N   UNL     1     -49.811 -36.115  48.261  0.00  0.00    +0.000 N 
ATOM     18  C   UNL     1     -50.410 -35.369  49.248  0.00  0.00    +0.000 C 
ATOM     19  O   UNL     1     -50.082 -35.195  50.408  0.00  0.00    +0.000 OA
ATOM     20  C   UNL     1     -51.677 -34.613  48.933  0.00  0.00    +0.000 C 
BRANCH  17  21
ATOM     21  O   UNL     1     -50.395 -36.160  46.968  0.00  0.00    +0.000 OA
ATOM     22  H   UNL     1     -50.127 -37.041  46.634  0.00  0.00    +0.000 HD
ENDBRANCH  17  21
ENDBRANCH  16  17
ENDBRANCH  14  15
ENDBRANCH  13  14
ENDBRANCH  10  12
ENDBRANCH   7   8
ENDBRANCH   4   6
BRANCH   3  23
ATOM     23  O   UNL     1     -38.683 -42.444  50.408  0.00  0.00    +0.000 OA
ATOM     24  H   UNL     1     -38.285 -41.634  50.037  0.00  0.00    +0.000 HD
ENDBRANCH   3  23
ENDBRANCH   2   3
BRANCH   1  25
ATOM     25  C   UNL     1     -35.645 -46.029  51.059  0.00  0.00    +0.000 C 
ATOM     26  C   UNL     1     -34.864 -46.809  51.529  0.00  0.00    +0.000 C 
BRANCH  26  27
ATOM     27  C   UNL     1     -33.876 -47.815  52.129  0.00  0.00    +0.000 C 
BRANCH  27  28
ATOM     28  N   UNL     1     -33.003 -48.709  52.641  0.00  0.00    +0.000 N 
ATOM     29  C   UNL     1     -31.720 -48.507  53.092  0.00  0.00    +0.000 C 
ATOM     30  O   UNL     1     -31.128 -47.437  53.106  0.00  0.00    +0.000 OA
ATOM     31  H   UNL     1     -33.360 -49.655  52.701  0.00  0.00    +0.000 HD
BRANCH  29  32
ATOM     32  C   UNL     1     -31.048 -49.683  53.587  0.00  0.00    +0.000 C 
ATOM     33  C   UNL     1     -30.507 -50.676  53.992  0.00  0.00    +0.000 C 
BRANCH  33  34
ATOM     34  C   UNL     1     -29.866 -51.886  54.465  0.00  0.00    +0.000 C 
ATOM     35  O   UNL     1     -29.144 -52.492  53.679  0.00  0.00    +0.000 OA
ATOM     36  N   UNL     1     -30.144 -52.292  55.759  0.00  0.00    +0.000 N 
BRANCH  36  37
ATOM     37  C   UNL     1     -29.600 -53.272  56.510  0.00  0.00    +0.000 C 
ATOM     38  C   UNL     1     -29.114 -54.141  57.180  0.00  0.00    +0.000 C 
BRANCH  38  39
ATOM     39  C   UNL     1     -28.488 -55.248  58.035  0.00  0.00    +0.000 C 
ATOM     40  C   UNL     1     -28.002 -56.116  58.705  0.00  0.00    +0.000 C 
BRANCH  40  41
ATOM     41  C   UNL     1     -27.386 -57.227  59.560  0.00  0.00    +0.000 C 
BRANCH  41  42
ATOM     42  N   UNL     1     -26.801 -58.281  60.372  0.00  0.00    +0.000 NA
ATOM     43  H   UNL     1     -25.862 -58.022  60.670  0.00  0.00    +0.000 HD
ATOM     44  H   UNL     1     -27.341 -58.413  61.226  0.00  0.00    +0.000 HD
ENDBRANCH  41  42
ENDBRANCH  40  41
ENDBRANCH  38  39
ENDBRANCH  36  37
BRANCH  36  45
ATOM     45  O   UNL     1     -30.822 -51.379  56.598  0.00  0.00    +0.000 OA
ATOM     46  H   UNL     1     -30.921 -51.902  57.414  0.00  0.00    +0.000 HD
ENDBRANCH  36  45
ENDBRANCH  33  34
ENDBRANCH  29  32
ENDBRANCH  27  28
ENDBRANCH  26  27
ENDBRANCH   1  25
TORSDOF 19
ENDMDL
MODEL 2
REMARK VINA RESULT:      -5.1      5.091      8.993
REMARK  Name = Deferoxamine.pdbqt.pdb
REMARK  19 active torsions:
REMARK  status: ('A' for Active; 'I' for Inactive)
REMARK    1  A    between atoms: C_1  and  C_2
REMARK    2  A    between atoms: C_3  and  C_4
REMARK    3  A    between atoms: C_4  and  N_5
REMARK    4  A    between atoms: C_6  and  C_9
REMARK    5  A    between atoms: C_10  and  C_11
REMARK    6  A    between atoms: N_13  and  O_14
REMARK    7  A    between atoms: N_13  and  C_16
REMARK    8  A    between atoms: C_17  and  C_18
REMARK    9  A    between atoms: C_19  and  C_20
REMARK   10  A    between atoms: C_20  and  N_21
REMARK   11  A    between atoms: C_24  and  N_25
REMARK   12  A    between atoms: N_25  and  O_28
REMARK   13  A    between atoms: C_26  and  C_30
REMARK   14  A    between atoms: C_31  and  C_32
REMARK   15  A    between atoms: N_34  and  C_36
REMARK   16  A    between atoms: C_37  and  C_38
REMARK   17  A    between atoms: C_38  and  C_39
REMARK   18  A    between atoms: C_40  and  N_41
REMARK   19  A    between atoms: N_41  and  O_45
REMARK                            x       y       z     vdW  Elec       q    Type
REMARK                         _______ _______ _______ _____ _____    ______ ____
ROOT
ATOM      1  C   UNL     1     -31.731 -50.625  53.869  0.00  0.00    +0.000 C 
ATOM      2  C   UNL     1     -32.314 -49.808  53.209  0.00  0.00    +0.000 C 
ENDROOT
BRANCH   2   3
ATOM      3  N   UNL     1     -32.970 -48.890  52.469  0.00  0.00    +0.000 N 
ATOM      4  C   UNL     1     -34.264 -48.407  52.570  0.00  0.00    +0.000 C 
ATOM      5  O   UNL     1     -35.135 -48.883  53.290  0.00  0.00    +0.000 OA
BRANCH   4   6
ATOM      6  C   UNL     1     -34.621 -47.279  51.735  0.00  0.00    +0.000 C 
ATOM      7  C   UNL     1     -34.920 -46.351  51.033  0.00  0.00    +0.000 C 
BRANCH   7   8
ATOM      8  C   UNL     1     -35.270 -45.249  50.171  0.00  0.00    +0.000 C 
ATOM      9  O   UNL     1     -34.497 -44.308  50.068  0.00  0.00    +0.000 OA
ATOM     10  N   UNL     1     -36.480 -45.371  49.526  0.00  0.00    +0.000 N 
ATOM     11  H   UNL     1     -37.003 -46.218  49.713  0.00  0.00    +0.000 HD
BRANCH  10  12
ATOM     12  C   UNL     1     -37.075 -44.517  48.666  0.00  0.00    +0.000 C 
ATOM     13  C   UNL     1     -37.606 -43.754  47.906  0.00  0.00    +0.000 C 
BRANCH  13  14
ATOM     14  C   UNL     1     -38.284 -42.774  46.943  0.00  0.00    +0.000 C 
BRANCH  14  15
ATOM     15  C   UNL     1     -38.960 -41.801  45.973  0.00  0.00    +0.000 C 
ATOM     16  C   UNL     1     -39.491 -41.040  45.212  0.00  0.00    +0.000 C 
BRANCH  16  17
ATOM     17  N   UNL     1     -40.093 -40.190  44.357  0.00  0.00    +0.000 N 
ATOM     18  C   UNL     1     -41.090 -39.264  44.551  0.00  0.00    +0.000 C 
ATOM     19  O   UNL     1     -41.695 -38.964  45.565  0.00  0.00    +0.000 OA
ATOM     20  C   UNL     1     -41.571 -38.444  43.380  0.00  0.00    +0.000 C 
BRANCH  17  21
ATOM     21  O   UNL     1     -39.538 -40.358  43.062  0.00  0.00    +0.000 OA
ATOM     22  H   UNL     1     -38.858 -41.050  43.200  0.00  0.00    +0.000 HD
ENDBRANCH  17  21
ENDBRANCH  16  17
ENDBRANCH  14  15
ENDBRANCH  13  14
ENDBRANCH  10  12
ENDBRANCH   7   8
ENDBRANCH   4   6
BRANCH   3  23
ATOM     23  O   UNL     1     -32.034 -48.104  51.760  0.00  0.00    +0.000 OA
ATOM     24  H   UNL     1     -31.256 -48.155  52.345  0.00  0.00    +0.000 HD
ENDBRANCH   3  23
ENDBRANCH   2   3
BRANCH   1  25
ATOM     25  C   UNL     1     -31.000 -51.677  54.708  0.00  0.00    +0.000 C 
ATOM     26  C   UNL     1     -30.438 -52.509  55.364  0.00  0.00    +0.000 C 
BRANCH  26  27
ATOM     27  C   UNL     1     -29.731 -53.581  56.201  0.00  0.00    +0.000 C 
BRANCH  27  28
ATOM     28  N   UNL     1     -29.122 -54.537  56.935  0.00  0.00    +0.000 N 
ATOM     29  C   UNL     1     -29.034 -54.656  58.301  0.00  0.00    +0.000 C 
ATOM     30  O   UNL     1     -29.511 -53.882  59.119  0.00  0.00    +0.000 OA
ATOM     31  H   UNL     1     -28.680 -55.264  56.387  0.00  0.00    +0.000 HD
BRANCH  29  32
ATOM     32  C   UNL     1     -28.307 -55.809  58.774  0.00  0.00    +0.000 C 
ATOM     33  C   UNL     1     -27.721 -56.783  59.163  0.00  0.00    +0.000 C 
BRANCH  33  34
ATOM     34  C   UNL     1     -27.027 -57.970  59.617  0.00  0.00    +0.000 C 
ATOM     35  O   UNL     1     -26.079 -57.818  60.381  0.00  0.00    +0.000 OA
ATOM     36  N   UNL     1     -27.460 -59.190  59.126  0.00  0.00    +0.000 N 
BRANCH  36  37
ATOM     37  C   UNL     1     -27.115 -60.449  59.467  0.00  0.00    +0.000 C 
ATOM     38  C   UNL     1     -26.810 -61.570  59.768  0.00  0.00    +0.000 C 
BRANCH  38  39
ATOM     39  C   UNL     1     -26.428 -63.003  60.153  0.00  0.00    +0.000 C 
ATOM     40  C   UNL     1     -26.134 -64.125  60.458  0.00  0.00    +0.000 C 
BRANCH  40  41
ATOM     41  C   UNL     1     -25.761 -65.558  60.848  0.00  0.00    +0.000 C 
BRANCH  41  42
ATOM     42  N   UNL     1     -25.409 -66.919  61.219  0.00  0.00    +0.000 NA
ATOM     43  H   UNL     1     -24.739 -67.305  60.556  0.00  0.00    +0.000 HD
ATOM     44  H   UNL     1     -24.945 -66.931  62.127  0.00  0.00    +0.000 HD
ENDBRANCH  41  42
ENDBRANCH  40  41
ENDBRANCH  38  39
ENDBRANCH  36  37
BRANCH  36  45
ATOM     45  O   UNL     1     -28.688 -59.212  58.426  0.00  0.00    +0.000 OA
ATOM     46  H   UNL     1     -29.174 -59.906  58.910  0.00  0.00    +0.000 HD
ENDBRANCH  36  45
ENDBRANCH  33  34
ENDBRANCH  29  32
ENDBRANCH  27  28
ENDBRANCH  26  27
ENDBRANCH   1  25
TORSDOF 19
ENDMDL
MODEL 3
REMARK VINA RESULT:      -5.0      3.983      7.919
REMARK  Name = Deferoxamine.pdbqt.pdb
REMARK  19 active torsions:
REMARK  status: ('A' for Active; 'I' for Inactive)
REMARK    1  A    between atoms: C_1  and  C_2
REMARK    2  A    between atoms: C_3  and  C_4
REMARK    3  A    between atoms: C_4  and  N_5
REMARK    4  A    between atoms: C_6  and  C_9
REMARK    5  A    between atoms: C_10  and  C_11
REMARK    6  A    between atoms: N_13  and  O_14
REMARK    7  A    between atoms: N_13  and  C_16
REMARK    8  A    between atoms: C_17  and  C_18
REMARK    9  A    between atoms: C_19  and  C_20
REMARK   10  A    between atoms: C_20  and  N_21
REMARK   11  A    between atoms: C_24  and  N_25
REMARK   12  A    between atoms: N_25  and  O_28
REMARK   13  A    between atoms: C_26  and  C_30
REMARK   14  A    between atoms: C_31  and  C_32
REMARK   15  A    between atoms: N_34  and  C_36
REMARK   16  A    between atoms: C_37  and  C_38
REMARK   17  A    between atoms: C_38  and  C_39
REMARK   18  A    between atoms: C_40  and  N_41
REMARK   19  A    between atoms: N_41  and  O_45
REMARK                            x       y       z     vdW  Elec       q    Type
REMARK                         _______ _______ _______ _____ _____    ______ ____
ROOT
ATOM      1  C   UNL     1     -32.380 -50.571  53.321  0.00  0.00    +0.000 C 
ATOM      2  C   UNL     1     -33.120 -49.655  53.084  0.00  0.00    +0.000 C 
ENDROOT
BRANCH   2   3
ATOM      3  N   UNL     1     -33.951 -48.625  52.820  0.00  0.00    +0.000 N 
ATOM      4  C   UNL     1     -33.765 -47.490  52.051  0.00  0.00    +0.000 C 
ATOM      5  O   UNL     1     -32.690 -47.127  51.585  0.00  0.00    +0.000 OA
BRANCH   4   6
ATOM      6  C   UNL     1     -34.921 -46.652  51.808  0.00  0.00    +0.000 C 
ATOM      7  C   UNL     1     -35.873 -45.946  51.614  0.00  0.00    +0.000 C 
BRANCH   7   8
ATOM      8  C   UNL     1     -37.013 -45.088  51.401  0.00  0.00    +0.000 C 
ATOM      9  O   UNL     1     -37.793 -44.898  52.323  0.00  0.00    +0.000 OA
ATOM     10  N   UNL     1     -37.113 -44.548  50.138  0.00  0.00    +0.000 N 
ATOM     11  H   UNL     1     -36.381 -44.799  49.486  0.00  0.00    +0.000 HD
BRANCH  10  12
ATOM     12  C   UNL     1     -38.055 -43.719  49.640  0.00  0.00    +0.000 C 
ATOM     13  C   UNL     1     -38.893 -42.980  49.202  0.00  0.00    +0.000 C 
BRANCH  13  14
ATOM     14  C   UNL     1     -39.964 -42.033  48.651  0.00  0.00    +0.000 C 
BRANCH  14  15
ATOM     15  C   UNL     1     -41.033 -41.081  48.109  0.00  0.00    +0.000 C 
ATOM     16  C   UNL     1     -41.871 -40.336  47.680  0.00  0.00    +0.000 C 
BRANCH  16  17
ATOM     17  N   UNL     1     -42.814 -39.505  47.195  0.00  0.00    +0.000 N 
ATOM     18  C   UNL     1     -44.143 -39.357  47.514  0.00  0.00    +0.000 C 
ATOM     19  O   UNL     1     -44.823 -39.947  48.334  0.00  0.00    +0.000 OA
ATOM     20  C   UNL     1     -44.965 -38.324  46.783  0.00  0.00    +0.000 C 
BRANCH  17  21
ATOM     21  O   UNL     1     -42.242 -38.685  46.187  0.00  0.00    +0.000 OA
ATOM     22  H   UNL     1     -41.988 -37.876  46.677  0.00  0.00    +0.000 HD
ENDBRANCH  17  21
ENDBRANCH  16  17
ENDBRANCH  14  15
ENDBRANCH  13  14
ENDBRANCH  10  12
ENDBRANCH   7   8
ENDBRANCH   4   6
BRANCH   3  23
ATOM     23  O   UNL     1     -35.281 -49.014  53.099  0.00  0.00    +0.000 OA
ATOM     24  H   UNL     1     -35.183 -49.978  53.205  0.00  0.00    +0.000 HD
ENDBRANCH   3  23
ENDBRANCH   2   3
BRANCH   1  25
ATOM     25  C   UNL     1     -31.446 -51.743  53.634  0.00  0.00    +0.000 C 
ATOM     26  C   UNL     1     -30.710 -52.655  53.892  0.00  0.00    +0.000 C 
BRANCH  26  27
ATOM     27  C   UNL     1     -29.767 -53.813  54.233  0.00  0.00    +0.000 C 
BRANCH  27  28
ATOM     28  N   UNL     1     -28.929 -54.825  54.548  0.00  0.00    +0.000 N 
ATOM     29  C   UNL     1     -27.998 -54.896  55.558  0.00  0.00    +0.000 C 
ATOM     30  O   UNL     1     -27.761 -54.019  56.375  0.00  0.00    +0.000 OA
ATOM     31  H   UNL     1     -29.015 -55.639  53.953  0.00  0.00    +0.000 HD
BRANCH  29  32
ATOM     32  C   UNL     1     -27.258 -56.133  55.626  0.00  0.00    +0.000 C 
ATOM     33  C   UNL     1     -26.662 -57.174  55.688  0.00  0.00    +0.000 C 
BRANCH  33  34
ATOM     34  C   UNL     1     -25.962 -58.440  55.756  0.00  0.00    +0.000 C 
ATOM     35  O   UNL     1     -24.785 -58.459  55.410  0.00  0.00    +0.000 OA
ATOM     36  N   UNL     1     -26.684 -59.547  56.171  0.00  0.00    +0.000 N 
BRANCH  36  37
ATOM     37  C   UNL     1     -26.281 -60.800  56.466  0.00  0.00    +0.000 C 
ATOM     38  C   UNL     1     -25.923 -61.914  56.731  0.00  0.00    +0.000 C 
BRANCH  38  39
ATOM     39  C   UNL     1     -25.464 -63.335  57.076  0.00  0.00    +0.000 C 
ATOM     40  C   UNL     1     -25.102 -64.445  57.350  0.00  0.00    +0.000 C 
BRANCH  40  41
ATOM     41  C   UNL     1     -24.638 -65.861  57.704  0.00  0.00    +0.000 C 
BRANCH  41  42
ATOM     42  N   UNL     1     -24.198 -67.205  58.041  0.00  0.00    +0.000 NA
ATOM     43  H   UNL     1     -24.969 -67.864  57.952  0.00  0.00    +0.000 HD
ATOM     44  H   UNL     1     -23.482 -67.519  57.386  0.00  0.00    +0.000 HD
ENDBRANCH  41  42
ENDBRANCH  40  41
ENDBRANCH  38  39
ENDBRANCH  36  37
BRANCH  36  45
ATOM     45  O   UNL     1     -27.961 -59.319  56.731  0.00  0.00    +0.000 OA
ATOM     46  H   UNL     1     -27.872 -58.403  57.051  0.00  0.00    +0.000 HD
ENDBRANCH  36  45
ENDBRANCH  33  34
ENDBRANCH  29  32
ENDBRANCH  27  28
ENDBRANCH  26  27
ENDBRANCH   1  25
TORSDOF 19
ENDMDL
MODEL 4
REMARK VINA RESULT:      -4.9     32.272     35.248
REMARK  Name = Deferoxamine.pdbqt.pdb
REMARK  19 active torsions:
REMARK  status: ('A' for Active; 'I' for Inactive)
REMARK    1  A    between atoms: C_1  and  C_2
REMARK    2  A    between atoms: C_3  and  C_4
REMARK    3  A    between atoms: C_4  and  N_5
REMARK    4  A    between atoms: C_6  and  C_9
REMARK    5  A    between atoms: C_10  and  C_11
REMARK    6  A    between atoms: N_13  and  O_14
REMARK    7  A    between atoms: N_13  and  C_16
REMARK    8  A    between atoms: C_17  and  C_18
REMARK    9  A    between atoms: C_19  and  C_20
REMARK   10  A    between atoms: C_20  and  N_21
REMARK   11  A    between atoms: C_24  and  N_25
REMARK   12  A    between atoms: N_25  and  O_28
REMARK   13  A    between atoms: C_26  and  C_30
REMARK   14  A    between atoms: C_31  and  C_32
REMARK   15  A    between atoms: N_34  and  C_36
REMARK   16  A    between atoms: C_37  and  C_38
REMARK   17  A    between atoms: C_38  and  C_39
REMARK   18  A    between atoms: C_40  and  N_41
REMARK   19  A    between atoms: N_41  and  O_45
REMARK                            x       y       z     vdW  Elec       q    Type
REMARK                         _______ _______ _______ _____ _____    ______ ____
ROOT
ATOM      1  C   UNL     1     -45.247 -68.932  30.777  0.00  0.00    +0.000 C 
ATOM      2  C   UNL     1     -45.393 -68.753  31.956  0.00  0.00    +0.000 C 
ENDROOT
BRANCH   2   3
ATOM      3  N   UNL     1     -45.557 -68.554  33.280  0.00  0.00    +0.000 N 
ATOM      4  C   UNL     1     -44.893 -69.101  34.364  0.00  0.00    +0.000 C 
ATOM      5  O   UNL     1     -44.105 -70.039  34.303  0.00  0.00    +0.000 OA
BRANCH   4   6
ATOM      6  C   UNL     1     -45.177 -68.544  35.670  0.00  0.00    +0.000 C 
ATOM      7  C   UNL     1     -45.423 -68.074  36.748  0.00  0.00    +0.000 C 
BRANCH   7   8
ATOM      8  C   UNL     1     -45.726 -67.491  38.032  0.00  0.00    +0.000 C 
ATOM      9  O   UNL     1     -45.916 -68.228  38.989  0.00  0.00    +0.000 OA
ATOM     10  N   UNL     1     -45.770 -66.115  38.055  0.00  0.00    +0.000 N 
ATOM     11  H   UNL     1     -45.584 -65.647  37.177  0.00  0.00    +0.000 HD
BRANCH  10  12
ATOM     12  C   UNL     1     -46.026 -65.289  39.092  0.00  0.00    +0.000 C 
ATOM     13  C   UNL     1     -46.255 -64.551  40.011  0.00  0.00    +0.000 C 
BRANCH  13  14
ATOM     14  C   UNL     1     -46.553 -63.605  41.178  0.00  0.00    +0.000 C 
BRANCH  14  15
ATOM     15  C   UNL     1     -46.860 -62.658  42.342  0.00  0.00    +0.000 C 
ATOM     16  C   UNL     1     -47.104 -61.917  43.254  0.00  0.00    +0.000 C 
BRANCH  16  17
ATOM     17  N   UNL     1     -47.384 -61.087  44.278  0.00  0.00    +0.000 N 
ATOM     18  C   UNL     1     -47.980 -61.319  45.495  0.00  0.00    +0.000 C 
ATOM     19  O   UNL     1     -48.414 -62.353  45.971  0.00  0.00    +0.000 OA
ATOM     20  C   UNL     1     -48.166 -60.170  46.454  0.00  0.00    +0.000 C 
BRANCH  17  21
ATOM     21  O   UNL     1     -46.956 -59.775  43.948  0.00  0.00    +0.000 OA
ATOM     22  H   UNL     1     -46.644 -59.421  44.807  0.00  0.00    +0.000 HD
ENDBRANCH  17  21
ENDBRANCH  16  17
ENDBRANCH  14  15
ENDBRANCH  13  14
ENDBRANCH  10  12
ENDBRANCH   7   8
ENDBRANCH   4   6
BRANCH   3  23
ATOM     23  O   UNL     1     -46.263 -67.347  33.488  0.00  0.00    +0.000 OA
ATOM     24  H   UNL     1     -45.535 -66.731  33.693  0.00  0.00    +0.000 HD
ENDBRANCH   3  23
ENDBRANCH   2   3
BRANCH   1  25
ATOM     25  C   UNL     1     -45.075 -69.166  29.273  0.00  0.00    +0.000 C 
ATOM     26  C   UNL     1     -44.929 -69.358  28.098  0.00  0.00    +0.000 C 
BRANCH  26  27
ATOM     27  C   UNL     1     -44.732 -69.610  26.600  0.00  0.00    +0.000 C 
BRANCH  27  28
ATOM     28  N   UNL     1     -44.564 -69.851  25.281  0.00  0.00    +0.000 N 
ATOM     29  C   UNL     1     -43.911 -69.091  24.339  0.00  0.00    +0.000 C 
ATOM     30  O   UNL     1     -43.350 -68.025  24.544  0.00  0.00    +0.000 OA
ATOM     31  H   UNL     1     -44.975 -70.718  24.959  0.00  0.00    +0.000 HD
BRANCH  29  32
ATOM     32  C   UNL     1     -43.909 -69.636  23.003  0.00  0.00    +0.000 C 
ATOM     33  C   UNL     1     -43.927 -70.077  21.886  0.00  0.00    +0.000 C 
BRANCH  33  34
ATOM     34  C   UNL     1     -43.957 -70.588  20.531  0.00  0.00    +0.000 C 
ATOM     35  O   UNL     1     -44.508 -71.669  20.342  0.00  0.00    +0.000 OA
ATOM     36  N   UNL     1     -43.329 -69.838  19.551  0.00  0.00    +0.000 N 
BRANCH  36  37
ATOM     37  C   UNL     1     -43.313 -69.978  18.210  0.00  0.00    +0.000 C 
ATOM     38  C   UNL     1     -43.299 -70.100  17.016  0.00  0.00    +0.000 C 
BRANCH  38  39
ATOM     39  C   UNL     1     -43.284 -70.250  15.491  0.00  0.00    +0.000 C 
ATOM     40  C   UNL     1     -43.273 -70.361  14.296  0.00  0.00    +0.000 C 
BRANCH  40  41
ATOM     41  C   UNL     1     -43.257 -70.500  12.772  0.00  0.00    +0.000 C 
BRANCH  41  42
ATOM     42  N   UNL     1     -43.242 -70.631  11.324  0.00  0.00    +0.000 NA
ATOM     43  H   UNL     1     -43.130 -69.719  10.885  0.00  0.00    +0.000 HD
ATOM     44  H   UNL     1     -42.442 -71.188  11.026  0.00  0.00    +0.000 HD
ENDBRANCH  41  42
ENDBRANCH  40  41
ENDBRANCH  38  39
ENDBRANCH  36  37
BRANCH  36  45
ATOM     45  O   UNL     1     -42.929 -68.526  19.891  0.00  0.00    +0.000 OA
ATOM     46  H   UNL     1     -43.051 -68.531  20.858  0.00  0.00    +0.000 HD
ENDBRANCH  36  45
ENDBRANCH  33  34
ENDBRANCH  29  32
ENDBRANCH  27  28
ENDBRANCH  26  27
ENDBRANCH   1  25
TORSDOF 19
ENDMDL
MODEL 5
REMARK VINA RESULT:      -4.8     32.971     35.716
REMARK  Name = Deferoxamine.pdbqt.pdb
REMARK  19 active torsions:
REMARK  status: ('A' for Active; 'I' for Inactive)
REMARK    1  A    between atoms: C_1  and  C_2
REMARK    2  A    between atoms: C_3  and  C_4
REMARK    3  A    between atoms: C_4  and  N_5
REMARK    4  A    between atoms: C_6  and  C_9
REMARK    5  A    between atoms: C_10  and  C_11
REMARK    6  A    between atoms: N_13  and  O_14
REMARK    7  A    between atoms: N_13  and  C_16
REMARK    8  A    between atoms: C_17  and  C_18
REMARK    9  A    between atoms: C_19  and  C_20
REMARK   10  A    between atoms: C_20  and  N_21
REMARK   11  A    between atoms: C_24  and  N_25
REMARK   12  A    between atoms: N_25  and  O_28
REMARK   13  A    between atoms: C_26  and  C_30
REMARK   14  A    between atoms: C_31  and  C_32
REMARK   15  A    between atoms: N_34  and  C_36
REMARK   16  A    between atoms: C_37  and  C_38
REMARK   17  A    between atoms: C_38  and  C_39
REMARK   18  A    between atoms: C_40  and  N_41
REMARK   19  A    between atoms: N_41  and  O_45
REMARK                            x       y       z     vdW  Elec       q    Type
REMARK                         _______ _______ _______ _____ _____    ______ ____
ROOT
ATOM      1  C   UNL     1     -44.987 -68.947  30.341  0.00  0.00    +0.000 C 
ATOM      2  C   UNL     1     -45.072 -68.687  31.511  0.00  0.00    +0.000 C 
ENDROOT
BRANCH   2   3
ATOM      3  N   UNL     1     -45.169 -68.395  32.824  0.00  0.00    +0.000 N 
ATOM      4  C   UNL     1     -44.188 -68.246  33.790  0.00  0.00    +0.000 C 
ATOM      5  O   UNL     1     -43.006 -68.534  33.639  0.00  0.00    +0.000 OA
BRANCH   4   6
ATOM      6  C   UNL     1     -44.599 -67.745  35.085  0.00  0.00    +0.000 C 
ATOM      7  C   UNL     1     -44.948 -67.341  36.162  0.00  0.00    +0.000 C 
BRANCH   7   8
ATOM      8  C   UNL     1     -45.389 -66.864  37.449  0.00  0.00    +0.000 C 
ATOM      9  O   UNL     1     -45.607 -67.674  38.339  0.00  0.00    +0.000 OA
ATOM     10  N   UNL     1     -45.524 -65.498  37.554  0.00  0.00    +0.000 N 
ATOM     11  H   UNL     1     -45.299 -64.962  36.725  0.00  0.00    +0.000 HD
BRANCH  10  12
ATOM     12  C   UNL     1     -45.914 -64.761  38.616  0.00  0.00    +0.000 C 
ATOM     13  C   UNL     1     -46.257 -64.109  39.564  0.00  0.00    +0.000 C 
BRANCH  13  14
ATOM     14  C   UNL     1     -46.688 -63.281  40.778  0.00  0.00    +0.000 C 
BRANCH  14  15
ATOM     15  C   UNL     1     -47.115 -62.459  41.998  0.00  0.00    +0.000 C 
ATOM     16  C   UNL     1     -47.453 -61.814  42.952  0.00  0.00    +0.000 C 
BRANCH  16  17
ATOM     17  N   UNL     1     -47.838 -61.093  44.023  0.00  0.00    +0.000 N 
ATOM     18  C   UNL     1     -49.040 -60.502  44.332  0.00  0.00    +0.000 C 
ATOM     19  O   UNL     1     -50.087 -60.480  43.709  0.00  0.00    +0.000 OA
ATOM     20  C   UNL     1     -49.175 -59.741  45.628  0.00  0.00    +0.000 C 
BRANCH  17  21
ATOM     21  O   UNL     1     -46.750 -60.977  44.926  0.00  0.00    +0.000 OA
ATOM     22  H   UNL     1     -47.185 -61.007  45.803  0.00  0.00    +0.000 HD
ENDBRANCH  17  21
ENDBRANCH  16  17
ENDBRANCH  14  15
ENDBRANCH  13  14
ENDBRANCH  10  12
ENDBRANCH   7   8
ENDBRANCH   4   6
BRANCH   3  23
ATOM     23  O   UNL     1     -46.433 -67.821  33.085  0.00  0.00    +0.000 OA
ATOM     24  H   UNL     1     -46.785 -68.426  33.764  0.00  0.00    +0.000 HD
ENDBRANCH   3  23
ENDBRANCH   2   3
BRANCH   1  25
ATOM     25  C   UNL     1     -44.894 -69.274  28.848  0.00  0.00    +0.000 C 
ATOM     26  C   UNL     1     -44.810 -69.537  27.681  0.00  0.00    +0.000 C 
BRANCH  26  27
ATOM     27  C   UNL     1     -44.690 -69.881  26.192  0.00  0.00    +0.000 C 
BRANCH  27  28
ATOM     28  N   UNL     1     -44.567 -70.176  24.880  0.00  0.00    +0.000 N 
ATOM     29  C   UNL     1     -44.823 -69.383  23.786  0.00  0.00    +0.000 C 
ATOM     30  O   UNL     1     -45.223 -68.228  23.818  0.00  0.00    +0.000 OA
ATOM     31  H   UNL     1     -44.233 -71.113  24.692  0.00  0.00    +0.000 HD
BRANCH  29  32
ATOM     32  C   UNL     1     -44.586 -70.004  22.506  0.00  0.00    +0.000 C 
ATOM     33  C   UNL     1     -44.405 -70.508  21.430  0.00  0.00    +0.000 C 
BRANCH  33  34
ATOM     34  C   UNL     1     -44.193 -71.095  20.123  0.00  0.00    +0.000 C 
ATOM     35  O   UNL     1     -43.072 -71.001  19.632  0.00  0.00    +0.000 OA
ATOM     36  N   UNL     1     -45.281 -71.688  19.506  0.00  0.00    +0.000 N 
BRANCH  36  37
ATOM     37  C   UNL     1     -45.359 -72.426  18.380  0.00  0.00    +0.000 C 
ATOM     38  C   UNL     1     -45.425 -73.084  17.378  0.00  0.00    +0.000 C 
BRANCH  38  39
ATOM     39  C   UNL     1     -45.504 -73.921  16.097  0.00  0.00    +0.000 C 
ATOM     40  C   UNL     1     -45.562 -74.573  15.092  0.00  0.00    +0.000 C 
BRANCH  40  41
ATOM     41  C   UNL     1     -45.635 -75.402  13.806  0.00  0.00    +0.000 C 
BRANCH  41  42
ATOM     42  N   UNL     1     -45.703 -76.189  12.587  0.00  0.00    +0.000 NA
ATOM     43  H   UNL     1     -45.344 -75.654  11.797  0.00  0.00    +0.000 HD
ATOM     44  H   UNL     1     -45.109 -77.014  12.662  0.00  0.00    +0.000 HD
ENDBRANCH  41  42
ENDBRANCH  40  41
ENDBRANCH  38  39
ENDBRANCH  36  37
BRANCH  36  45
ATOM     45  O   UNL     1     -46.440 -71.898  20.288  0.00  0.00    +0.000 OA
ATOM     46  H   UNL     1     -46.170 -72.660  20.832  0.00  0.00    +0.000 HD
ENDBRANCH  36  45
ENDBRANCH  33  34
ENDBRANCH  29  32
ENDBRANCH  27  28
ENDBRANCH  26  27
ENDBRANCH   1  25
TORSDOF 19
ENDMDL
MODEL 6
REMARK VINA RESULT:      -4.7     17.664     27.145
REMARK  Name = Deferoxamine.pdbqt.pdb
REMARK  19 active torsions:
REMARK  status: ('A' for Active; 'I' for Inactive)
REMARK    1  A    between atoms: C_1  and  C_2
REMARK    2  A    between atoms: C_3  and  C_4
REMARK    3  A    between atoms: C_4  and  N_5
REMARK    4  A    between atoms: C_6  and  C_9
REMARK    5  A    between atoms: C_10  and  C_11
REMARK    6  A    between atoms: N_13  and  O_14
REMARK    7  A    between atoms: N_13  and  C_16
REMARK    8  A    between atoms: C_17  and  C_18
REMARK    9  A    between atoms: C_19  and  C_20
REMARK   10  A    between atoms: C_20  and  N_21
REMARK   11  A    between atoms: C_24  and  N_25
REMARK   12  A    between atoms: N_25  and  O_28
REMARK   13  A    between atoms: C_26  and  C_30
REMARK   14  A    between atoms: C_31  and  C_32
REMARK   15  A    between atoms: N_34  and  C_36
REMARK   16  A    between atoms: C_37  and  C_38
REMARK   17  A    between atoms: C_38  and  C_39
REMARK   18  A    between atoms: C_40  and  N_41
REMARK   19  A    between atoms: N_41  and  O_45
REMARK                            x       y       z     vdW  Elec       q    Type
REMARK                         _______ _______ _______ _____ _____    ______ ____
ROOT
ATOM      1  C   UNL     1     -33.048 -58.613  65.101  0.00  0.00    +0.000 C 
ATOM      2  C   UNL     1     -33.122 -59.763  64.762  0.00  0.00    +0.000 C 
ENDROOT
BRANCH   2   3
ATOM      3  N   UNL     1     -33.205 -61.054  64.379  0.00  0.00    +0.000 N 
ATOM      4  C   UNL     1     -33.364 -62.208  65.126  0.00  0.00    +0.000 C 
ATOM      5  O   UNL     1     -33.288 -62.268  66.349  0.00  0.00    +0.000 OA
BRANCH   4   6
ATOM      6  C   UNL     1     -33.606 -63.441  64.406  0.00  0.00    +0.000 C 
ATOM      7  C   UNL     1     -33.819 -64.460  63.805  0.00  0.00    +0.000 C 
BRANCH   7   8
ATOM      8  C   UNL     1     -34.098 -65.682  63.092  0.00  0.00    +0.000 C 
ATOM      9  O   UNL     1     -35.227 -65.877  62.668  0.00  0.00    +0.000 OA
ATOM     10  N   UNL     1     -33.027 -66.537  62.955  0.00  0.00    +0.000 N 
ATOM     11  H   UNL     1     -32.153 -66.227  63.359  0.00  0.00    +0.000 HD
BRANCH  10  12
ATOM     12  C   UNL     1     -32.974 -67.741  62.346  0.00  0.00    +0.000 C 
ATOM     13  C   UNL     1     -32.929 -68.810  61.800  0.00  0.00    +0.000 C 
BRANCH  13  14
ATOM     14  C   UNL     1     -32.874 -70.169  61.096  0.00  0.00    +0.000 C 
BRANCH  14  15
ATOM     15  C   UNL     1     -32.815 -71.524  60.385  0.00  0.00    +0.000 C 
ATOM     16  C   UNL     1     -32.771 -72.587  59.829  0.00  0.00    +0.000 C 
BRANCH  16  17
ATOM     17  N   UNL     1     -32.729 -73.779  59.204  0.00  0.00    +0.000 N 
ATOM     18  C   UNL     1     -33.732 -74.581  58.712  0.00  0.00    +0.000 C 
ATOM     19  O   UNL     1     -34.939 -74.415  58.712  0.00  0.00    +0.000 OA
ATOM     20  C   UNL     1     -33.373 -75.889  58.053  0.00  0.00    +0.000 C 
BRANCH  17  21
ATOM     21  O   UNL     1     -31.379 -74.197  59.083  0.00  0.00    +0.000 OA
ATOM     22  H   UNL     1     -30.936 -73.737  59.826  0.00  0.00    +0.000 HD
ENDBRANCH  17  21
ENDBRANCH  16  17
ENDBRANCH  14  15
ENDBRANCH  13  14
ENDBRANCH  10  12
ENDBRANCH   7   8
ENDBRANCH   4   6
BRANCH   3  23
ATOM     23  O   UNL     1     -33.533 -61.116  63.006  0.00  0.00    +0.000 OA
ATOM     24  H   UNL     1     -32.759 -60.681  62.602  0.00  0.00    +0.000 HD
ENDBRANCH   3  23
ENDBRANCH   2   3
BRANCH   1  25
ATOM     25  C   UNL     1     -32.962 -57.143  65.521  0.00  0.00    +0.000 C 
ATOM     26  C   UNL     1     -32.904 -55.988  65.840  0.00  0.00    +0.000 C 
BRANCH  26  27
ATOM     27  C   UNL     1     -32.839 -54.510  66.237  0.00  0.00    +0.000 C 
BRANCH  27  28
ATOM     28  N   UNL     1     -32.800 -53.207  66.591  0.00  0.00    +0.000 N 
ATOM     29  C   UNL     1     -32.859 -52.647  67.845  0.00  0.00    +0.000 C 
ATOM     30  O   UNL     1     -32.962 -53.261  68.898  0.00  0.00    +0.000 OA
ATOM     31  H   UNL     1     -32.707 -52.566  65.813  0.00  0.00    +0.000 HD
BRANCH  29  32
ATOM     32  C   UNL     1     -32.787 -51.207  67.881  0.00  0.00    +0.000 C 
ATOM     33  C   UNL     1     -32.734 -50.007  67.888  0.00  0.00    +0.000 C 
BRANCH  33  34
ATOM     34  C   UNL     1     -32.686 -48.559  67.880  0.00  0.00    +0.000 C 
ATOM     35  O   UNL     1     -31.675 -48.020  68.320  0.00  0.00    +0.000 OA
ATOM     36  N   UNL     1     -33.802 -47.886  67.412  0.00  0.00    +0.000 N 
BRANCH  36  37
ATOM     37  C   UNL     1     -33.996 -46.576  67.154  0.00  0.00    +0.000 C 
ATOM     38  C   UNL     1     -34.172 -45.412  66.926  0.00  0.00    +0.000 C 
BRANCH  38  39
ATOM     39  C   UNL     1     -34.403 -43.926  66.630  0.00  0.00    +0.000 C 
ATOM     40  C   UNL     1     -34.583 -42.764  66.392  0.00  0.00    +0.000 C 
BRANCH  40  41
ATOM     41  C   UNL     1     -34.813 -41.281  66.086  0.00  0.00    +0.000 C 
BRANCH  41  42
ATOM     42  N   UNL     1     -35.031 -39.874  65.796  0.00  0.00    +0.000 NA
ATOM     43  H   UNL     1     -35.073 -39.721  64.789  0.00  0.00    +0.000 HD
ATOM     44  H   UNL     1     -35.932 -39.571  66.164  0.00  0.00    +0.000 HD
ENDBRANCH  41  42
ENDBRANCH  40  41
ENDBRANCH  38  39
ENDBRANCH  36  37
BRANCH  36  45
ATOM     45  O   UNL     1     -34.792 -48.647  66.750  0.00  0.00    +0.000 OA
ATOM     46  H   UNL     1     -34.622 -49.539  67.107  0.00  0.00    +0.000 HD
ENDBRANCH  36  45
ENDBRANCH  33  34
ENDBRANCH  29  32
ENDBRANCH  27  28
ENDBRANCH  26  27
ENDBRANCH   1  25
TORSDOF 19
ENDMDL
MODEL 7
REMARK VINA RESULT:      -4.7      4.095      8.510
REMARK  Name = Deferoxamine.pdbqt.pdb
REMARK  19 active torsions:
REMARK  status: ('A' for Active; 'I' for Inactive)
REMARK    1  A    between atoms: C_1  and  C_2
REMARK    2  A    between atoms: C_3  and  C_4
REMARK    3  A    between atoms: C_4  and  N_5
REMARK    4  A    between atoms: C_6  and  C_9
REMARK    5  A    between atoms: C_10  and  C_11
REMARK    6  A    between atoms: N_13  and  O_14
REMARK    7  A    between atoms: N_13  and  C_16
REMARK    8  A    between atoms: C_17  and  C_18
REMARK    9  A    between atoms: C_19  and  C_20
REMARK   10  A    between atoms: C_20  and  N_21
REMARK   11  A    between atoms: C_24  and  N_25
REMARK   12  A    between atoms: N_25  and  O_28
REMARK   13  A    between atoms: C_26  and  C_30
REMARK   14  A    between atoms: C_31  and  C_32
REMARK   15  A    between atoms: N_34  and  C_36
REMARK   16  A    between atoms: C_37  and  C_38
REMARK   17  A    between atoms: C_38  and  C_39
REMARK   18  A    between atoms: C_40  and  N_41
REMARK   19  A    between atoms: N_41  and  O_45
REMARK                            x       y       z     vdW  Elec       q    Type
REMARK                         _______ _______ _______ _____ _____    ______ ____
ROOT
ATOM      1  C   UNL     1     -31.829 -50.770  54.027  0.00  0.00    +0.000 C 
ATOM      2  C   UNL     1     -32.496 -49.876  53.582  0.00  0.00    +0.000 C 
ENDROOT
BRANCH   2   3
ATOM      3  N   UNL     1     -33.246 -48.871  53.083  0.00  0.00    +0.000 N 
ATOM      4  C   UNL     1     -34.620 -48.716  53.020  0.00  0.00    +0.000 C 
ATOM      5  O   UNL     1     -35.437 -49.595  53.272  0.00  0.00    +0.000 OA
BRANCH   4   6
ATOM      6  C   UNL     1     -35.126 -47.429  52.588  0.00  0.00    +0.000 C 
ATOM      7  C   UNL     1     -35.559 -46.367  52.230  0.00  0.00    +0.000 C 
BRANCH   7   8
ATOM      8  C   UNL     1     -36.095 -45.104  51.786  0.00  0.00    +0.000 C 
ATOM      9  O   UNL     1     -35.694 -44.074  52.307  0.00  0.00    +0.000 OA
ATOM     10  N   UNL     1     -37.036 -45.186  50.784  0.00  0.00    +0.000 N 
ATOM     11  H   UNL     1     -37.258 -46.117  50.454  0.00  0.00    +0.000 HD
BRANCH  10  12
ATOM     12  C   UNL     1     -37.711 -44.192  50.167  0.00  0.00    +0.000 C 
ATOM     13  C   UNL     1     -38.310 -43.305  49.624  0.00  0.00    +0.000 C 
BRANCH  13  14
ATOM     14  C   UNL     1     -39.072 -42.167  48.937  0.00  0.00    +0.000 C 
BRANCH  14  15
ATOM     15  C   UNL     1     -39.826 -41.027  48.248  0.00  0.00    +0.000 C 
ATOM     16  C   UNL     1     -40.414 -40.130  47.708  0.00  0.00    +0.000 C 
BRANCH  16  17
ATOM     17  N   UNL     1     -41.068 -39.122  47.100  0.00  0.00    +0.000 N 
ATOM     18  C   UNL     1     -42.412 -38.857  46.978  0.00  0.00    +0.000 C 
ATOM     19  O   UNL     1     -43.374 -39.474  47.398  0.00  0.00    +0.000 OA
ATOM     20  C   UNL     1     -42.854 -37.629  46.221  0.00  0.00    +0.000 C 
BRANCH  17  21
ATOM     21  O   UNL     1     -40.126 -38.238  46.513  0.00  0.00    +0.000 OA
ATOM     22  H   UNL     1     -40.691 -37.554  46.099  0.00  0.00    +0.000 HD
ENDBRANCH  17  21
ENDBRANCH  16  17
ENDBRANCH  14  15
ENDBRANCH  13  14
ENDBRANCH  10  12
ENDBRANCH   7   8
ENDBRANCH   4   6
BRANCH   3  23
ATOM     23  O   UNL     1     -32.452 -47.707  52.969  0.00  0.00    +0.000 OA
ATOM     24  H   UNL     1     -32.073 -47.818  52.077  0.00  0.00    +0.000 HD
ENDBRANCH   3  23
ENDBRANCH   2   3
BRANCH   1  25
ATOM     25  C   UNL     1     -30.992 -51.916  54.602  0.00  0.00    +0.000 C 
ATOM     26  C   UNL     1     -30.338 -52.808  55.066  0.00  0.00    +0.000 C 
BRANCH  26  27
ATOM     27  C   UNL     1     -29.504 -53.942  55.671  0.00  0.00    +0.000 C 
BRANCH  27  28
ATOM     28  N   UNL     1     -28.762 -54.930  56.216  0.00  0.00    +0.000 N 
ATOM     29  C   UNL     1     -27.481 -55.323  55.908  0.00  0.00    +0.000 C 
ATOM     30  O   UNL     1     -26.766 -54.823  55.051  0.00  0.00    +0.000 OA
ATOM     31  H   UNL     1     -29.225 -55.439  56.959  0.00  0.00    +0.000 HD
BRANCH  29  32
ATOM     32  C   UNL     1     -26.969 -56.424  56.688  0.00  0.00    +0.000 C 
ATOM     33  C   UNL     1     -26.551 -57.329  57.357  0.00  0.00    +0.000 C 
BRANCH  33  34
ATOM     34  C   UNL     1     -26.064 -58.417  58.180  0.00  0.00    +0.000 C 
ATOM     35  O   UNL     1     -24.858 -58.470  58.398  0.00  0.00    +0.000 OA
ATOM     36  N   UNL     1     -26.991 -59.343  58.628  0.00  0.00    +0.000 N 
BRANCH  36  37
ATOM     37  C   UNL     1     -26.866 -60.358  59.508  0.00  0.00    +0.000 C 
ATOM     38  C   UNL     1     -26.752 -61.263  60.288  0.00  0.00    +0.000 C 
BRANCH  38  39
ATOM     39  C   UNL     1     -26.604 -62.422  61.280  0.00  0.00    +0.000 C 
ATOM     40  C   UNL     1     -26.489 -63.333  62.052  0.00  0.00    +0.000 C 
BRANCH  40  41
ATOM     41  C   UNL     1     -26.343 -64.498  63.034  0.00  0.00    +0.000 C 
BRANCH  41  42
ATOM     42  N   UNL     1     -26.204 -65.605  63.966  0.00  0.00    +0.000 NA
ATOM     43  H   UNL     1     -25.349 -66.125  63.775  0.00  0.00    +0.000 HD
ATOM     44  H   UNL     1     -26.115 -65.257  64.920  0.00  0.00    +0.000 HD
ENDBRANCH  41  42
ENDBRANCH  40  41
ENDBRANCH  38  39
ENDBRANCH  36  37
BRANCH  36  45
ATOM     45  O   UNL     1     -28.359 -59.026  58.467  0.00  0.00    +0.000 OA
ATOM     46  H   UNL     1     -28.787 -59.812  58.854  0.00  0.00    +0.000 HD
ENDBRANCH  36  45
ENDBRANCH  33  34
ENDBRANCH  29  32
ENDBRANCH  27  28
ENDBRANCH  26  27
ENDBRANCH   1  25
TORSDOF 19
ENDMDL
MODEL 8
REMARK VINA RESULT:      -4.7     33.722     36.378
REMARK  Name = Deferoxamine.pdbqt.pdb
REMARK  19 active torsions:
REMARK  status: ('A' for Active; 'I' for Inactive)
REMARK    1  A    between atoms: C_1  and  C_2
REMARK    2  A    between atoms: C_3  and  C_4
REMARK    3  A    between atoms: C_4  and  N_5
REMARK    4  A    between atoms: C_6  and  C_9
REMARK    5  A    between atoms: C_10  and  C_11
REMARK    6  A    between atoms: N_13  and  O_14
REMARK    7  A    between atoms: N_13  and  C_16
REMARK    8  A    between atoms: C_17  and  C_18
REMARK    9  A    between atoms: C_19  and  C_20
REMARK   10  A    between atoms: C_20  and  N_21
REMARK   11  A    between atoms: C_24  and  N_25
REMARK   12  A    between atoms: N_25  and  O_28
REMARK   13  A    between atoms: C_26  and  C_30
REMARK   14  A    between atoms: C_31  and  C_32
REMARK   15  A    between atoms: N_34  and  C_36
REMARK   16  A    between atoms: C_37  and  C_38
REMARK   17  A    between atoms: C_38  and  C_39
REMARK   18  A    between atoms: C_40  and  N_41
REMARK   19  A    between atoms: N_41  and  O_45
REMARK                            x       y       z     vdW  Elec       q    Type
REMARK                         _______ _______ _______ _____ _____    ______ ____
ROOT
ATOM      1  C   UNL     1     -46.073 -66.167  26.697  0.00  0.00    +0.000 C 
ATOM      2  C   UNL     1     -46.394 -65.580  27.695  0.00  0.00    +0.000 C 
ENDROOT
BRANCH   2   3
ATOM      3  N   UNL     1     -46.754 -64.923  28.817  0.00  0.00    +0.000 N 
ATOM      4  C   UNL     1     -46.435 -65.158  30.143  0.00  0.00    +0.000 C 
ATOM      5  O   UNL     1     -45.869 -66.163  30.560  0.00  0.00    +0.000 OA
BRANCH   4   6
ATOM      6  C   UNL     1     -46.830 -64.156  31.112  0.00  0.00    +0.000 C 
ATOM      7  C   UNL     1     -47.148 -63.330  31.925  0.00  0.00    +0.000 C 
BRANCH   7   8
ATOM      8  C   UNL     1     -47.523 -62.353  32.917  0.00  0.00    +0.000 C 
ATOM      9  O   UNL     1     -47.511 -61.168  32.617  0.00  0.00    +0.000 OA
ATOM     10  N   UNL     1     -47.870 -62.869  34.145  0.00  0.00    +0.000 N 
ATOM     11  H   UNL     1     -47.833 -63.877  34.233  0.00  0.00    +0.000 HD
BRANCH  10  12
ATOM     12  C   UNL     1     -48.261 -62.218  35.262  0.00  0.00    +0.000 C 
ATOM     13  C   UNL     1     -48.606 -61.643  36.257  0.00  0.00    +0.000 C 
BRANCH  13  14
ATOM     14  C   UNL     1     -49.040 -60.914  37.533  0.00  0.00    +0.000 C 
BRANCH  14  15
ATOM     15  C   UNL     1     -49.472 -60.177  38.804  0.00  0.00    +0.000 C 
ATOM     16  C   UNL     1     -49.810 -59.597  39.799  0.00  0.00    +0.000 C 
BRANCH  16  17
ATOM     17  N   UNL     1     -50.190 -58.940  40.912  0.00  0.00    +0.000 N 
ATOM     18  C   UNL     1     -51.057 -59.290  41.919  0.00  0.00    +0.000 C 
ATOM     19  O   UNL     1     -51.714 -60.305  42.070  0.00  0.00    +0.000 OA
ATOM     20  C   UNL     1     -51.291 -58.328  43.058  0.00  0.00    +0.000 C 
BRANCH  17  21
ATOM     21  O   UNL     1     -49.533 -57.683  40.961  0.00  0.00    +0.000 OA
ATOM     22  H   UNL     1     -50.111 -57.109  40.416  0.00  0.00    +0.000 HD
ENDBRANCH  17  21
ENDBRANCH  16  17
ENDBRANCH  14  15
ENDBRANCH  13  14
ENDBRANCH  10  12
ENDBRANCH   7   8
ENDBRANCH   4   6
BRANCH   3  23
ATOM     23  O   UNL     1     -47.211 -63.629  28.476  0.00  0.00    +0.000 OA
ATOM     24  H   UNL     1     -47.886 -63.834  27.802  0.00  0.00    +0.000 HD
ENDBRANCH   3  23
ENDBRANCH   2   3
BRANCH   1  25
ATOM     25  C   UNL     1     -45.680 -66.919  25.423  0.00  0.00    +0.000 C 
ATOM     26  C   UNL     1     -45.382 -67.502  24.418  0.00  0.00    +0.000 C 
BRANCH  26  27
ATOM     27  C   UNL     1     -45.010 -68.238  23.127  0.00  0.00    +0.000 C 
BRANCH  27  28
ATOM     28  N   UNL     1     -44.668 -68.895  21.997  0.00  0.00    +0.000 N 
ATOM     29  C   UNL     1     -44.056 -70.118  21.858  0.00  0.00    +0.000 C 
ATOM     30  O   UNL     1     -43.702 -70.849  22.771  0.00  0.00    +0.000 OA
ATOM     31  H   UNL     1     -44.908 -68.408  21.143  0.00  0.00    +0.000 HD
BRANCH  29  32
ATOM     32  C   UNL     1     -43.830 -70.542  20.497  0.00  0.00    +0.000 C 
ATOM     33  C   UNL     1     -43.655 -70.915  19.369  0.00  0.00    +0.000 C 
BRANCH  33  34
ATOM     34  C   UNL     1     -43.464 -71.374  18.008  0.00  0.00    +0.000 C 
ATOM     35  O   UNL     1     -42.389 -71.896  17.729  0.00  0.00    +0.000 OA
ATOM     36  N   UNL     1     -44.497 -71.158  17.111  0.00  0.00    +0.000 N 
BRANCH  36  37
ATOM     37  C   UNL     1     -44.667 -71.591  15.845  0.00  0.00    +0.000 C 
ATOM     38  C   UNL     1     -44.817 -71.979  14.719  0.00  0.00    +0.000 C 
BRANCH  38  39
ATOM     39  C   UNL     1     -45.002 -72.477  13.282  0.00  0.00    +0.000 C 
ATOM     40  C   UNL     1     -45.147 -72.873  12.159  0.00  0.00    +0.000 C 
BRANCH  40  41
ATOM     41  C   UNL     1     -45.332 -73.381  10.727  0.00  0.00    +0.000 C 
BRANCH  41  42
ATOM     42  N   UNL     1     -45.508 -73.864   9.367  0.00  0.00    +0.000 NA
ATOM     43  H   UNL     1     -44.795 -73.472   8.755  0.00  0.00    +0.000 HD
ATOM     44  H   UNL     1     -45.386 -74.875   9.330  0.00  0.00    +0.000 HD
ENDBRANCH  41  42
ENDBRANCH  40  41
ENDBRANCH  38  39
ENDBRANCH  36  37
BRANCH  36  45
ATOM     45  O   UNL     1     -45.740 -70.739  17.636  0.00  0.00    +0.000 OA
ATOM     46  H   UNL     1     -46.217 -70.485  16.825  0.00  0.00    +0.000 HD
ENDBRANCH  36  45
ENDBRANCH  33  34
ENDBRANCH  29  32
ENDBRANCH  27  28
ENDBRANCH  26  27
ENDBRANCH   1  25
TORSDOF 19
ENDMDL
MODEL 9
REMARK VINA RESULT:      -4.6     26.389     32.904
REMARK  Name = Deferoxamine.pdbqt.pdb
REMARK  19 active torsions:
REMARK  status: ('A' for Active; 'I' for Inactive)
REMARK    1  A    between atoms: C_1  and  C_2
REMARK    2  A    between atoms: C_3  and  C_4
REMARK    3  A    between atoms: C_4  and  N_5
REMARK    4  A    between atoms: C_6  and  C_9
REMARK    5  A    between atoms: C_10  and  C_11
REMARK    6  A    between atoms: N_13  and  O_14
REMARK    7  A    between atoms: N_13  and  C_16
REMARK    8  A    between atoms: C_17  and  C_18
REMARK    9  A    between atoms: C_19  and  C_20
REMARK   10  A    between atoms: C_20  and  N_21
REMARK   11  A    between atoms: C_24  and  N_25
REMARK   12  A    between atoms: N_25  and  O_28
REMARK   13  A    between atoms: C_26  and  C_30
REMARK   14  A    between atoms: C_31  and  C_32
REMARK   15  A    between atoms: N_34  and  C_36
REMARK   16  A    between atoms: C_37  and  C_38
REMARK   17  A    between atoms: C_38  and  C_39
REMARK   18  A    between atoms: C_40  and  N_41
REMARK   19  A    between atoms: N_41  and  O_45
REMARK                            x       y       z     vdW  Elec       q    Type
REMARK                         _______ _______ _______ _____ _____    ______ ____
ROOT
ATOM      1  C   UNL     1     -40.025 -70.369  44.911  0.00  0.00    +0.000 C 
ATOM      2  C   UNL     1     -39.497 -70.696  45.939  0.00  0.00    +0.000 C 
ENDROOT
BRANCH   2   3
ATOM      3  N   UNL     1     -38.904 -71.064  47.094  0.00  0.00    +0.000 N 
ATOM      4  C   UNL     1     -39.112 -72.168  47.903  0.00  0.00    +0.000 C 
ATOM      5  O   UNL     1     -40.040 -72.961  47.783  0.00  0.00    +0.000 OA
BRANCH   4   6
ATOM      6  C   UNL     1     -38.181 -72.381  48.992  0.00  0.00    +0.000 C 
ATOM      7  C   UNL     1     -37.418 -72.567  49.902  0.00  0.00    +0.000 C 
BRANCH   7   8
ATOM      8  C   UNL     1     -36.521 -72.794  51.008  0.00  0.00    +0.000 C 
ATOM      9  O   UNL     1     -35.418 -73.274  50.788  0.00  0.00    +0.000 OA
ATOM     10  N   UNL     1     -37.010 -72.434  52.243  0.00  0.00    +0.000 N 
ATOM     11  H   UNL     1     -37.944 -72.044  52.257  0.00  0.00    +0.000 HD
BRANCH  10  12
ATOM     12  C   UNL     1     -36.416 -72.523  53.453  0.00  0.00    +0.000 C 
ATOM     13  C   UNL     1     -35.886 -72.597  54.527  0.00  0.00    +0.000 C 
BRANCH  13  14
ATOM     14  C   UNL     1     -35.208 -72.682  55.898  0.00  0.00    +0.000 C 
BRANCH  14  15
ATOM     15  C   UNL     1     -34.538 -72.767  57.272  0.00  0.00    +0.000 C 
ATOM     16  C   UNL     1     -34.016 -72.833  58.351  0.00  0.00    +0.000 C 
BRANCH  16  17
ATOM     17  N   UNL     1     -33.435 -72.913  59.564  0.00  0.00    +0.000 N 
ATOM     18  C   UNL     1     -33.014 -71.934  60.433  0.00  0.00    +0.000 C 
ATOM     19  O   UNL     1     -33.061 -70.721  60.330  0.00  0.00    +0.000 OA
ATOM     20  C   UNL     1     -32.383 -72.335  61.743  0.00  0.00    +0.000 C 
BRANCH  17  21
ATOM     21  O   UNL     1     -33.268 -74.277  59.915  0.00  0.00    +0.000 OA
ATOM     22  H   UNL     1     -33.153 -74.717  59.048  0.00  0.00    +0.000 HD
ENDBRANCH  17  21
ENDBRANCH  16  17
ENDBRANCH  14  15
ENDBRANCH  13  14
ENDBRANCH  10  12
ENDBRANCH   7   8
ENDBRANCH   4   6
BRANCH   3  23
ATOM     23  O   UNL     1     -37.677 -70.377  47.231  0.00  0.00    +0.000 OA
ATOM     24  H   UNL     1     -37.637 -69.883  46.391  0.00  0.00    +0.000 HD
ENDBRANCH   3  23
ENDBRANCH   2   3
BRANCH   1  25
ATOM     25  C   UNL     1     -40.705 -69.939  43.609  0.00  0.00    +0.000 C 
ATOM     26  C   UNL     1     -41.227 -69.606  42.581  0.00  0.00    +0.000 C 
BRANCH  26  27
ATOM     27  C   UNL     1     -41.881 -69.184  41.261  0.00  0.00    +0.000 C 
BRANCH  27  28
ATOM     28  N   UNL     1     -42.443 -68.816  40.089  0.00  0.00    +0.000 N 
ATOM     29  C   UNL     1     -43.614 -68.131  39.867  0.00  0.00    +0.000 C 
ATOM     30  O   UNL     1     -44.378 -67.723  40.730  0.00  0.00    +0.000 OA
ATOM     31  H   UNL     1     -41.911 -69.082  39.270  0.00  0.00    +0.000 HD
BRANCH  29  32
ATOM     32  C   UNL     1     -43.933 -67.890  38.481  0.00  0.00    +0.000 C 
ATOM     33  C   UNL     1     -44.216 -67.707  37.328  0.00  0.00    +0.000 C 
BRANCH  33  34
ATOM     34  C   UNL     1     -44.579 -67.491  35.942  0.00  0.00    +0.000 C 
ATOM     35  O   UNL     1     -44.719 -66.333  35.564  0.00  0.00    +0.000 OA
ATOM     36  N   UNL     1     -44.779 -68.612  35.154  0.00  0.00    +0.000 N 
BRANCH  36  37
ATOM     37  C   UNL     1     -44.978 -68.728  33.824  0.00  0.00    +0.000 C 
ATOM     38  C   UNL     1     -45.154 -68.834  32.642  0.00  0.00    +0.000 C 
BRANCH  38  39
ATOM     39  C   UNL     1     -45.373 -68.974  31.132  0.00  0.00    +0.000 C 
ATOM     40  C   UNL     1     -45.546 -69.079  29.949  0.00  0.00    +0.000 C 
BRANCH  40  41
ATOM     41  C   UNL     1     -45.768 -69.208  28.440  0.00  0.00    +0.000 C 
BRANCH  41  42
ATOM     42  N   UNL     1     -45.978 -69.330  27.007  0.00  0.00    +0.000 NA
ATOM     43  H   UNL     1     -45.388 -68.670  26.503  0.00  0.00    +0.000 HD
ATOM     44  H   UNL     1     -45.703 -70.257  26.685  0.00  0.00    +0.000 HD
ENDBRANCH  41  42
ENDBRANCH  40  41
ENDBRANCH  38  39
ENDBRANCH  36  37
BRANCH  36  45
ATOM     45  O   UNL     1     -44.375 -69.860  35.679  0.00  0.00    +0.000 OA
ATOM     46  H   UNL     1     -45.107 -70.437  35.392  0.00  0.00    +0.000 HD
ENDBRANCH  36  45
ENDBRANCH  33  34
ENDBRANCH  29  32
ENDBRANCH  27  28
ENDBRANCH  26  27
ENDBRANCH   1  25
TORSDOF 19
ENDMDL
