MODEL 1
REMARK VINA RESULT:      -7.4      0.000      0.000
REMARK  Name = 
REMARK  25 active torsions:
REMARK  status: ('A' for Active; 'I' for Inactive)
REMARK    1  A    between atoms: O_2  and  C_17
REMARK    2  A    between atoms: O_2  and  C_36
REMARK    3  A    between atoms: O_3  and  C_20
REMARK    4  A    between atoms: O_3  and  C_37
REMARK    5  A    between atoms: O_4  and  C_21
REMARK    6  A    between atoms: O_5  and  C_22
REMARK    7  A    between atoms: O_7  and  C_30
REMARK    8  A    between atoms: O_8  and  C_31
REMARK    9  A    between atoms: O_8  and  C_39
REMARK   10  A    between atoms: O_12  and  C_41
REMARK   11  A    between atoms: O_13  and  C_51
REMARK   12  A    between atoms: O_13  and  C_55
REMARK   13  A    between atoms: N_15  and  C_44
REMARK   14  A    between atoms: C_18  and  C_29
REMARK   15  A    between atoms: C_24  and  C_33
REMARK   16  A    between atoms: C_24  and  C_34
REMARK   17  A    between atoms: C_32  and  C_35
REMARK   18  A    between atoms: C_36  and  C_38
REMARK   19  A    between atoms: C_37  and  C_40
REMARK   20  A    between atoms: C_39  and  C_41
REMARK   21  A    between atoms: C_41  and  C_44
REMARK   22  A    between atoms: C_44  and  C_48
REMARK   23  A    between atoms: C_55  and  C_56
REMARK   24  A    between atoms: C_55  and  C_57
REMARK   25  A    between atoms: C_55  and  C_58
REMARK                            x       y       z     vdW  Elec       q    Type
REMARK                         _______ _______ _______ _____ _____    ______ ____
ROOT
ATOM      1  O   UNL     1     -47.066 -68.682  28.527  0.00  0.00    +0.000 OA
ATOM      2  O   UNL     1     -40.717 -68.042  30.636  0.00  0.00    +0.000 OA
ATOM      3  C   UNL     1     -45.022 -68.657  31.299  0.00  0.00    +0.000 C 
ATOM      4  C   UNL     1     -46.162 -68.116  30.386  0.00  0.00    +0.000 C 
ATOM      5  C   UNL     1     -43.402 -67.893  30.673  0.00  0.00    +0.000 C 
ATOM      6  C   UNL     1     -45.723 -68.855  29.056  0.00  0.00    +0.000 C 
ATOM      7  C   UNL     1     -45.497 -68.638  33.101  0.00  0.00    +0.000 C 
ATOM      8  C   UNL     1     -44.803 -69.029  34.820  0.00  0.00    +0.000 C 
ATOM      9  C   UNL     1     -43.282 -68.428  29.186  0.00  0.00    +0.000 C 
ATOM     10  C   UNL     1     -44.557 -68.248  28.306  0.00  0.00    +0.000 C 
ATOM     11  C   UNL     1     -43.121 -69.348  35.289  0.00  0.00    +0.000 C 
ATOM     12  C   UNL     1     -47.520 -68.788  29.935  0.00  0.00    +0.000 C 
ATOM     13  C   UNL     1     -41.684 -68.039  31.429  0.00  0.00    +0.000 C 
ATOM     14  C   UNL     1     -45.098 -67.728  35.700  0.00  0.00    +0.000 C 
ATOM     15  C   UNL     1     -42.140 -68.183  34.795  0.00  0.00    +0.000 C 
ATOM     16  C   UNL     1     -43.509 -66.321  30.486  0.00  0.00    +0.000 C 
ATOM     17  C   UNL     1     -41.197 -68.181  33.279  0.00  0.00    +0.000 C 
ATOM     18  C   UNL     1     -43.926 -66.656  35.865  0.00  0.00    +0.000 C 
ATOM     19  C   UNL     1     -42.477 -66.970  35.348  0.00  0.00    +0.000 C 
ATOM     20  C   UNL     1     -43.072 -69.347  36.899  0.00  0.00    +0.000 C 
ATOM     21  C   UNL     1     -42.546 -70.792  35.138  0.00  0.00    +0.000 C 
ATOM     22  C   UNL     1     -41.579 -65.761  35.255  0.00  0.00    +0.000 C 
ENDROOT
BRANCH  17  23
ATOM     23  O   UNL     1     -40.148 -69.125  33.501  0.00  0.00    +0.000 OA
ATOM     24  H   UNL     1     -39.849 -68.958  34.415  0.00  0.00    +0.000 HD
ENDBRANCH  17  23
BRANCH   9  25
ATOM     25  O   UNL     1     -43.003 -69.828  29.226  0.00  0.00    +0.000 OA
ATOM     26  H   UNL     1     -43.299 -70.202  28.377  0.00  0.00    +0.000 HD
ENDBRANCH   9  25
BRANCH   8  27
ATOM     27  O   UNL     1     -45.657 -70.073  35.327  0.00  0.00    +0.000 OA
ATOM     28  H   UNL     1     -46.235 -69.704  36.019  0.00  0.00    +0.000 HD
ENDBRANCH   8  27
BRANCH  18  29
ATOM     29  O   UNL     1     -44.353 -65.431  35.201  0.00  0.00    +0.000 OA
BRANCH  29  31
ATOM     30  O   UNL     1     -43.794 -63.406  36.029  0.00  0.00    +0.000 OA
ATOM     31  C   UNL     1     -44.586 -64.341  35.974  0.00  0.00    +0.000 C 
BRANCH  31  32
ATOM     32  C   UNL     1     -45.813 -64.439  36.886  0.00  0.00    +0.000 C 
BRANCH  32  33
ATOM     33  O   UNL     1     -46.836 -63.465  36.649  0.00  0.00    +0.000 OA
ATOM     34  H   UNL     1     -47.618 -63.964  36.347  0.00  0.00    +0.000 HD
ENDBRANCH  32  33
BRANCH  32  35
ATOM     35  C   UNL     1     -45.332 -64.412  38.361  0.00  0.00    +0.000 C 
BRANCH  35  36
ATOM     36  C   UNL     1     -45.196 -65.808  38.961  0.00  0.00    +0.000 A 
ATOM     37  C   UNL     1     -43.969 -66.210  39.511  0.00  0.00    +0.000 A 
ATOM     38  C   UNL     1     -46.280 -66.701  39.015  0.00  0.00    +0.000 A 
ATOM     39  C   UNL     1     -43.821 -67.478  40.077  0.00  0.00    +0.000 A 
ATOM     40  C   UNL     1     -46.128 -67.969  39.581  0.00  0.00    +0.000 A 
ATOM     41  C   UNL     1     -44.899 -68.358  40.108  0.00  0.00    +0.000 A 
ENDBRANCH  35  36
BRANCH  35  43
ATOM     42  O   UNL     1     -44.830 -61.856  39.575  0.00  0.00    +0.000 OA
ATOM     43  N   UNL     1     -46.227 -63.626  39.200  0.00  0.00    +0.000 N 
ATOM     44  C   UNL     1     -45.853 -62.475  39.813  0.00  0.00    +0.000 C 
ATOM     45  H   UNL     1     -47.040 -64.092  39.580  0.00  0.00    +0.000 HD
BRANCH  44  46
ATOM     46  O   UNL     1     -46.812 -62.127  40.698  0.00  0.00    +0.000 OA
BRANCH  46  47
ATOM     47  C   UNL     1     -46.577 -62.235  42.126  0.00  0.00    +0.000 C 
ATOM     48  C   UNL     1     -45.285 -63.003  42.423  0.00  0.00    +0.000 C 
ATOM     49  C   UNL     1     -46.406 -60.784  42.603  0.00  0.00    +0.000 C 
ATOM     50  C   UNL     1     -47.786 -62.847  42.842  0.00  0.00    +0.000 C 
ENDBRANCH  46  47
ENDBRANCH  44  46
ENDBRANCH  35  43
ENDBRANCH  32  35
ENDBRANCH  31  32
ENDBRANCH  29  31
ENDBRANCH  18  29
BRANCH   7  51
ATOM     51  O   UNL     1     -44.906 -67.463  33.154  0.00  0.00    +0.000 OA
BRANCH  51  53
ATOM     52  O   UNL     1     -46.881 -67.792  33.303  0.00  0.00    +0.000 OA
ATOM     53  C   UNL     1     -46.121 -66.830  33.252  0.00  0.00    +0.000 C 
BRANCH  53  54
ATOM     54  C   UNL     1     -46.373 -64.946  33.015  0.00  0.00    +0.000 A 
ATOM     55  C   UNL     1     -45.432 -64.042  32.352  0.00  0.00    +0.000 A 
ATOM     56  C   UNL     1     -47.541 -64.180  33.316  0.00  0.00    +0.000 A 
ATOM     57  C   UNL     1     -45.622 -62.668  32.059  0.00  0.00    +0.000 A 
ATOM     58  C   UNL     1     -47.751 -62.800  33.030  0.00  0.00    +0.000 A 
ATOM     59  C   UNL     1     -46.793 -62.041  32.402  0.00  0.00    +0.000 A 
ENDBRANCH  53  54
ENDBRANCH  51  53
ENDBRANCH   7  51
BRANCH   4  60
ATOM     60  O   UNL     1     -46.157 -66.672  30.294  0.00  0.00    +0.000 OA
BRANCH  60  62
ATOM     61  O   UNL     1     -48.277 -65.963  30.390  0.00  0.00    +0.000 OA
ATOM     62  C   UNL     1     -47.189 -65.937  29.819  0.00  0.00    +0.000 C 
ATOM     63  C   UNL     1     -47.019 -65.194  28.532  0.00  0.00    +0.000 C 
ENDBRANCH  60  62
ENDBRANCH   4  60
TORSDOF 17
ENDMDL
MODEL 2
REMARK VINA RESULT:      -6.6      4.843      7.905
REMARK  Name = 
REMARK  25 active torsions:
REMARK  status: ('A' for Active; 'I' for Inactive)
REMARK    1  A    between atoms: O_2  and  C_17
REMARK    2  A    between atoms: O_2  and  C_36
REMARK    3  A    between atoms: O_3  and  C_20
REMARK    4  A    between atoms: O_3  and  C_37
REMARK    5  A    between atoms: O_4  and  C_21
REMARK    6  A    between atoms: O_5  and  C_22
REMARK    7  A    between atoms: O_7  and  C_30
REMARK    8  A    between atoms: O_8  and  C_31
REMARK    9  A    between atoms: O_8  and  C_39
REMARK   10  A    between atoms: O_12  and  C_41
REMARK   11  A    between atoms: O_13  and  C_51
REMARK   12  A    between atoms: O_13  and  C_55
REMARK   13  A    between atoms: N_15  and  C_44
REMARK   14  A    between atoms: C_18  and  C_29
REMARK   15  A    between atoms: C_24  and  C_33
REMARK   16  A    between atoms: C_24  and  C_34
REMARK   17  A    between atoms: C_32  and  C_35
REMARK   18  A    between atoms: C_36  and  C_38
REMARK   19  A    between atoms: C_37  and  C_40
REMARK   20  A    between atoms: C_39  and  C_41
REMARK   21  A    between atoms: C_41  and  C_44
REMARK   22  A    between atoms: C_44  and  C_48
REMARK   23  A    between atoms: C_55  and  C_56
REMARK   24  A    between atoms: C_55  and  C_57
REMARK   25  A    between atoms: C_55  and  C_58
REMARK                            x       y       z     vdW  Elec       q    Type
REMARK                         _______ _______ _______ _____ _____    ______ ____
ROOT
ATOM      1  O   UNL     1     -48.286 -59.863  34.620  0.00  0.00    +0.000 OA
ATOM      2  O   UNL     1     -45.852 -65.819  32.681  0.00  0.00    +0.000 OA
ATOM      3  C   UNL     1     -46.681 -62.717  35.687  0.00  0.00    +0.000 C 
ATOM      4  C   UNL     1     -46.796 -61.190  35.401  0.00  0.00    +0.000 C 
ATOM      5  C   UNL     1     -46.080 -63.538  34.086  0.00  0.00    +0.000 C 
ATOM      6  C   UNL     1     -48.001 -61.268  34.377  0.00  0.00    +0.000 C 
ATOM      7  C   UNL     1     -45.888 -63.063  37.338  0.00  0.00    +0.000 C 
ATOM      8  C   UNL     1     -45.328 -64.499  38.440  0.00  0.00    +0.000 C 
ATOM      9  C   UNL     1     -47.226 -63.209  33.041  0.00  0.00    +0.000 C 
ATOM     10  C   UNL     1     -47.659 -61.713  32.971  0.00  0.00    +0.000 C 
ATOM     11  C   UNL     1     -45.152 -66.215  38.019  0.00  0.00    +0.000 C 
ATOM     12  C   UNL     1     -47.783 -60.107  35.993  0.00  0.00    +0.000 C 
ATOM     13  C   UNL     1     -45.614 -65.340  33.812  0.00  0.00    +0.000 C 
ATOM     14  C   UNL     1     -43.822 -64.154  38.849  0.00  0.00    +0.000 C 
ATOM     15  C   UNL     1     -44.229 -66.413  36.726  0.00  0.00    +0.000 C 
ATOM     16  C   UNL     1     -44.811 -62.808  33.474  0.00  0.00    +0.000 C 
ATOM     17  C   UNL     1     -44.804 -66.569  35.043  0.00  0.00    +0.000 C 
ATOM     18  C   UNL     1     -42.645 -64.820  38.000  0.00  0.00    +0.000 C 
ATOM     19  C   UNL     1     -42.959 -65.928  36.932  0.00  0.00    +0.000 C 
ATOM     20  C   UNL     1     -44.391 -66.926  39.248  0.00  0.00    +0.000 C 
ATOM     21  C   UNL     1     -46.402 -67.148  38.077  0.00  0.00    +0.000 C 
ATOM     22  C   UNL     1     -41.822 -66.208  35.981  0.00  0.00    +0.000 C 
ENDROOT
BRANCH  17  23
ATOM     23  O   UNL     1     -45.377 -67.875  34.974  0.00  0.00    +0.000 OA
ATOM     24  H   UNL     1     -44.615 -68.485  34.976  0.00  0.00    +0.000 HD
ENDBRANCH  17  23
BRANCH   9  25
ATOM     25  O   UNL     1     -48.390 -63.960  33.390  0.00  0.00    +0.000 OA
ATOM     26  H   UNL     1     -48.679 -64.428  32.586  0.00  0.00    +0.000 HD
ENDBRANCH   9  25
BRANCH   8  27
ATOM     27  O   UNL     1     -46.121 -64.370  39.636  0.00  0.00    +0.000 OA
ATOM     28  H   UNL     1     -46.450 -65.248  39.898  0.00  0.00    +0.000 HD
ENDBRANCH   8  27
BRANCH  18  29
ATOM     29  O   UNL     1     -41.947 -63.749  37.301  0.00  0.00    +0.000 OA
BRANCH  29  31
ATOM     30  O   UNL     1     -41.242 -62.143  38.724  0.00  0.00    +0.000 OA
ATOM     31  C   UNL     1     -40.980 -63.079  37.976  0.00  0.00    +0.000 C 
BRANCH  31  32
ATOM     32  C   UNL     1     -39.543 -63.466  37.611  0.00  0.00    +0.000 C 
BRANCH  32  33
ATOM     33  O   UNL     1     -39.057 -64.671  38.215  0.00  0.00    +0.000 OA
ATOM     34  H   UNL     1     -38.623 -64.400  39.046  0.00  0.00    +0.000 HD
ENDBRANCH  32  33
BRANCH  32  35
ATOM     35  C   UNL     1     -38.616 -62.261  37.920  0.00  0.00    +0.000 C 
BRANCH  35  36
ATOM     36  C   UNL     1     -38.125 -61.558  36.659  0.00  0.00    +0.000 A 
ATOM     37  C   UNL     1     -38.174 -62.231  35.427  0.00  0.00    +0.000 A 
ATOM     38  C   UNL     1     -37.656 -60.234  36.681  0.00  0.00    +0.000 A 
ATOM     39  C   UNL     1     -37.741 -61.607  34.255  0.00  0.00    +0.000 A 
ATOM     40  C   UNL     1     -37.224 -59.613  35.507  0.00  0.00    +0.000 A 
ATOM     41  C   UNL     1     -37.263 -60.300  34.296  0.00  0.00    +0.000 A 
ENDBRANCH  35  36
BRANCH  35  43
ATOM     42  O   UNL     1     -37.799 -61.273  40.492  0.00  0.00    +0.000 OA
ATOM     43  N   UNL     1     -37.461 -62.665  38.711  0.00  0.00    +0.000 N 
ATOM     44  C   UNL     1     -37.104 -62.058  39.871  0.00  0.00    +0.000 C 
ATOM     45  H   UNL     1     -36.740 -63.200  38.246  0.00  0.00    +0.000 HD
BRANCH  44  46
ATOM     46  O   UNL     1     -35.875 -62.493  40.224  0.00  0.00    +0.000 OA
BRANCH  46  47
ATOM     47  C   UNL     1     -34.755 -61.573  40.292  0.00  0.00    +0.000 C 
ATOM     48  C   UNL     1     -34.682 -60.880  41.656  0.00  0.00    +0.000 C 
ATOM     49  C   UNL     1     -33.512 -62.460  40.124  0.00  0.00    +0.000 C 
ATOM     50  C   UNL     1     -34.796 -60.564  39.138  0.00  0.00    +0.000 C 
ENDBRANCH  46  47
ENDBRANCH  44  46
ENDBRANCH  35  43
ENDBRANCH  32  35
ENDBRANCH  31  32
ENDBRANCH  29  31
ENDBRANCH  18  29
BRANCH   7  51
ATOM     51  O   UNL     1     -44.755 -63.160  36.674  0.00  0.00    +0.000 OA
BRANCH  51  53
ATOM     52  O   UNL     1     -45.154 -61.758  38.056  0.00  0.00    +0.000 OA
ATOM     53  C   UNL     1     -44.346 -61.938  37.151  0.00  0.00    +0.000 C 
BRANCH  53  54
ATOM     54  C   UNL     1     -43.054 -60.824  36.279  0.00  0.00    +0.000 A 
ATOM     55  C   UNL     1     -42.625 -59.503  36.742  0.00  0.00    +0.000 A 
ATOM     56  C   UNL     1     -42.235 -61.156  35.157  0.00  0.00    +0.000 A 
ATOM     57  C   UNL     1     -41.600 -58.692  36.192  0.00  0.00    +0.000 A 
ATOM     58  C   UNL     1     -41.201 -60.355  34.591  0.00  0.00    +0.000 A 
ATOM     59  C   UNL     1     -40.881 -59.123  35.107  0.00  0.00    +0.000 A 
ENDBRANCH  53  54
ENDBRANCH  51  53
ENDBRANCH   7  51
BRANCH   4  60
ATOM     60  O   UNL     1     -45.578 -60.640  34.846  0.00  0.00    +0.000 OA
BRANCH  60  62
ATOM     61  O   UNL     1     -45.657 -58.459  35.339  0.00  0.00    +0.000 OA
ATOM     62  C   UNL     1     -45.414 -59.338  34.515  0.00  0.00    +0.000 C 
ATOM     63  C   UNL     1     -45.049 -58.987  33.108  0.00  0.00    +0.000 C 
ENDBRANCH  60  62
ENDBRANCH   4  60
TORSDOF 17
ENDMDL
MODEL 3
REMARK VINA RESULT:      -6.6      3.162      6.217
REMARK  Name = 
REMARK  25 active torsions:
REMARK  status: ('A' for Active; 'I' for Inactive)
REMARK    1  A    between atoms: O_2  and  C_17
REMARK    2  A    between atoms: O_2  and  C_36
REMARK    3  A    between atoms: O_3  and  C_20
REMARK    4  A    between atoms: O_3  and  C_37
REMARK    5  A    between atoms: O_4  and  C_21
REMARK    6  A    between atoms: O_5  and  C_22
REMARK    7  A    between atoms: O_7  and  C_30
REMARK    8  A    between atoms: O_8  and  C_31
REMARK    9  A    between atoms: O_8  and  C_39
REMARK   10  A    between atoms: O_12  and  C_41
REMARK   11  A    between atoms: O_13  and  C_51
REMARK   12  A    between atoms: O_13  and  C_55
REMARK   13  A    between atoms: N_15  and  C_44
REMARK   14  A    between atoms: C_18  and  C_29
REMARK   15  A    between atoms: C_24  and  C_33
REMARK   16  A    between atoms: C_24  and  C_34
REMARK   17  A    between atoms: C_32  and  C_35
REMARK   18  A    between atoms: C_36  and  C_38
REMARK   19  A    between atoms: C_37  and  C_40
REMARK   20  A    between atoms: C_39  and  C_41
REMARK   21  A    between atoms: C_41  and  C_44
REMARK   22  A    between atoms: C_44  and  C_48
REMARK   23  A    between atoms: C_55  and  C_56
REMARK   24  A    between atoms: C_55  and  C_57
REMARK   25  A    between atoms: C_55  and  C_58
REMARK                            x       y       z     vdW  Elec       q    Type
REMARK                         _______ _______ _______ _____ _____    ______ ____
ROOT
ATOM      1  O   UNL     1     -45.472 -66.795  29.151  0.00  0.00    +0.000 OA
ATOM      2  O   UNL     1     -47.315 -60.381  29.938  0.00  0.00    +0.000 OA
ATOM      3  C   UNL     1     -44.412 -63.679  30.161  0.00  0.00    +0.000 C 
ATOM      4  C   UNL     1     -44.766 -65.180  30.370  0.00  0.00    +0.000 C 
ATOM      5  C   UNL     1     -46.018 -62.693  30.387  0.00  0.00    +0.000 C 
ATOM      6  C   UNL     1     -45.666 -65.356  29.079  0.00  0.00    +0.000 C 
ATOM      7  C   UNL     1     -42.827 -63.205  31.021  0.00  0.00    +0.000 C 
ATOM      8  C   UNL     1     -41.709 -61.711  31.349  0.00  0.00    +0.000 C 
ATOM      9  C   UNL     1     -46.965 -63.249  29.244  0.00  0.00    +0.000 C 
ATOM     10  C   UNL     1     -47.073 -64.803  29.161  0.00  0.00    +0.000 C 
ATOM     11  C   UNL     1     -42.054 -59.990  31.082  0.00  0.00    +0.000 C 
ATOM     12  C   UNL     1     -44.141 -66.481  29.725  0.00  0.00    +0.000 C 
ATOM     13  C   UNL     1     -46.239 -60.824  30.396  0.00  0.00    +0.000 C 
ATOM     14  C   UNL     1     -41.463 -61.707  32.928  0.00  0.00    +0.000 C 
ATOM     15  C   UNL     1     -43.416 -59.544  31.794  0.00  0.00    +0.000 C 
ATOM     16  C   UNL     1     -46.785 -63.088  31.719  0.00  0.00    +0.000 C 
ATOM     17  C   UNL     1     -45.027 -59.477  31.026  0.00  0.00    +0.000 C 
ATOM     18  C   UNL     1     -42.384 -60.760  33.825  0.00  0.00    +0.000 C 
ATOM     19  C   UNL     1     -43.357 -59.725  33.156  0.00  0.00    +0.000 C 
ATOM     20  C   UNL     1     -40.867 -59.157  31.783  0.00  0.00    +0.000 C 
ATOM     21  C   UNL     1     -41.829 -59.377  29.663  0.00  0.00    +0.000 C 
ATOM     22  C   UNL     1     -44.396 -59.159  34.093  0.00  0.00    +0.000 C 
ENDROOT
BRANCH  17  23
ATOM     23  O   UNL     1     -44.972 -58.339  30.165  0.00  0.00    +0.000 OA
ATOM     24  H   UNL     1     -44.788 -58.704  29.278  0.00  0.00    +0.000 HD
ENDBRANCH  17  23
BRANCH   9  25
ATOM     25  O   UNL     1     -46.468 -62.802  27.982  0.00  0.00    +0.000 OA
ATOM     26  H   UNL     1     -45.879 -63.500  27.644  0.00  0.00    +0.000 HD
ENDBRANCH   9  25
BRANCH   8  27
ATOM     27  O   UNL     1     -40.452 -62.057  30.735  0.00  0.00    +0.000 OA
ATOM     28  H   UNL     1     -39.846 -62.394  31.419  0.00  0.00    +0.000 HD
ENDBRANCH   8  27
BRANCH  18  29
ATOM     29  O   UNL     1     -43.202 -61.617  34.673  0.00  0.00    +0.000 OA
BRANCH  29  31
ATOM     30  O   UNL     1     -42.024 -62.480  36.396  0.00  0.00    +0.000 OA
ATOM     31  C   UNL     1     -42.877 -61.700  35.988  0.00  0.00    +0.000 C 
BRANCH  31  32
ATOM     32  C   UNL     1     -43.762 -60.876  36.930  0.00  0.00    +0.000 C 
BRANCH  32  33
ATOM     33  O   UNL     1     -43.063 -60.003  37.825  0.00  0.00    +0.000 OA
ATOM     34  H   UNL     1     -42.425 -60.564  38.305  0.00  0.00    +0.000 HD
ENDBRANCH  32  33
BRANCH  32  35
ATOM     35  C   UNL     1     -44.699 -61.847  37.698  0.00  0.00    +0.000 C 
BRANCH  35  36
ATOM     36  C   UNL     1     -46.170 -61.637  37.356  0.00  0.00    +0.000 A 
ATOM     37  C   UNL     1     -46.517 -60.924  36.197  0.00  0.00    +0.000 A 
ATOM     38  C   UNL     1     -47.201 -62.170  38.148  0.00  0.00    +0.000 A 
ATOM     39  C   UNL     1     -47.857 -60.727  35.854  0.00  0.00    +0.000 A 
ATOM     40  C   UNL     1     -48.539 -61.970  37.803  0.00  0.00    +0.000 A 
ATOM     41  C   UNL     1     -48.866 -61.247  36.659  0.00  0.00    +0.000 A 
ENDBRANCH  35  36
BRANCH  35  43
ATOM     42  O   UNL     1     -43.590 -63.770  39.523  0.00  0.00    +0.000 OA
ATOM     43  N   UNL     1     -44.530 -61.722  39.139  0.00  0.00    +0.000 N 
ATOM     44  C   UNL     1     -44.091 -62.735  39.928  0.00  0.00    +0.000 C 
ATOM     45  H   UNL     1     -45.031 -60.977  39.606  0.00  0.00    +0.000 HD
BRANCH  44  46
ATOM     46  O   UNL     1     -44.277 -62.388  41.220  0.00  0.00    +0.000 OA
BRANCH  46  47
ATOM     47  C   UNL     1     -45.550 -62.625  41.874  0.00  0.00    +0.000 C 
ATOM     48  C   UNL     1     -46.354 -63.713  41.155  0.00  0.00    +0.000 C 
ATOM     49  C   UNL     1     -45.178 -63.134  43.275  0.00  0.00    +0.000 C 
ATOM     50  C   UNL     1     -46.349 -61.325  42.021  0.00  0.00    +0.000 C 
ENDBRANCH  46  47
ENDBRANCH  44  46
ENDBRANCH  35  43
ENDBRANCH  32  35
ENDBRANCH  31  32
ENDBRANCH  29  31
ENDBRANCH  18  29
BRANCH   7  51
ATOM     51  O   UNL     1     -43.590 -62.827  32.026  0.00  0.00    +0.000 OA
BRANCH  51  53
ATOM     52  O   UNL     1     -42.259 -64.330  32.075  0.00  0.00    +0.000 OA
ATOM     53  C   UNL     1     -43.162 -63.893  32.780  0.00  0.00    +0.000 C 
BRANCH  53  54
ATOM     54  C   UNL     1     -44.084 -64.554  34.324  0.00  0.00    +0.000 A 
ATOM     55  C   UNL     1     -43.491 -65.382  35.375  0.00  0.00    +0.000 A 
ATOM     56  C   UNL     1     -45.413 -64.237  34.745  0.00  0.00    +0.000 A 
ATOM     57  C   UNL     1     -44.102 -65.804  36.584  0.00  0.00    +0.000 A 
ATOM     58  C   UNL     1     -46.043 -64.651  35.955  0.00  0.00    +0.000 A 
ATOM     59  C   UNL     1     -45.389 -65.434  36.876  0.00  0.00    +0.000 A 
ENDBRANCH  53  54
ENDBRANCH  51  53
ENDBRANCH   7  51
BRANCH   4  60
ATOM     60  O   UNL     1     -45.462 -65.415  31.617  0.00  0.00    +0.000 OA
BRANCH  60  62
ATOM     61  O   UNL     1     -47.054 -66.948  31.964  0.00  0.00    +0.000 OA
ATOM     62  C   UNL     1     -45.869 -66.633  32.043  0.00  0.00    +0.000 C 
ATOM     63  C   UNL     1     -44.880 -67.533  32.715  0.00  0.00    +0.000 C 
ENDBRANCH  60  62
ENDBRANCH   4  60
TORSDOF 17
ENDMDL
MODEL 4
REMARK VINA RESULT:      -6.5      5.025      8.808
REMARK  Name = 
REMARK  25 active torsions:
REMARK  status: ('A' for Active; 'I' for Inactive)
REMARK    1  A    between atoms: O_2  and  C_17
REMARK    2  A    between atoms: O_2  and  C_36
REMARK    3  A    between atoms: O_3  and  C_20
REMARK    4  A    between atoms: O_3  and  C_37
REMARK    5  A    between atoms: O_4  and  C_21
REMARK    6  A    between atoms: O_5  and  C_22
REMARK    7  A    between atoms: O_7  and  C_30
REMARK    8  A    between atoms: O_8  and  C_31
REMARK    9  A    between atoms: O_8  and  C_39
REMARK   10  A    between atoms: O_12  and  C_41
REMARK   11  A    between atoms: O_13  and  C_51
REMARK   12  A    between atoms: O_13  and  C_55
REMARK   13  A    between atoms: N_15  and  C_44
REMARK   14  A    between atoms: C_18  and  C_29
REMARK   15  A    between atoms: C_24  and  C_33
REMARK   16  A    between atoms: C_24  and  C_34
REMARK   17  A    between atoms: C_32  and  C_35
REMARK   18  A    between atoms: C_36  and  C_38
REMARK   19  A    between atoms: C_37  and  C_40
REMARK   20  A    between atoms: C_39  and  C_41
REMARK   21  A    between atoms: C_41  and  C_44
REMARK   22  A    between atoms: C_44  and  C_48
REMARK   23  A    between atoms: C_55  and  C_56
REMARK   24  A    between atoms: C_55  and  C_57
REMARK   25  A    between atoms: C_55  and  C_58
REMARK                            x       y       z     vdW  Elec       q    Type
REMARK                         _______ _______ _______ _____ _____    ______ ____
ROOT
ATOM      1  O   UNL     1     -44.929 -69.325  35.421  0.00  0.00    +0.000 OA
ATOM      2  O   UNL     1     -45.466 -64.994  40.531  0.00  0.00    +0.000 OA
ATOM      3  C   UNL     1     -45.392 -66.016  36.253  0.00  0.00    +0.000 C 
ATOM      4  C   UNL     1     -44.621 -67.214  35.625  0.00  0.00    +0.000 C 
ATOM      5  C   UNL     1     -44.875 -65.919  38.077  0.00  0.00    +0.000 C 
ATOM      6  C   UNL     1     -45.351 -68.366  36.430  0.00  0.00    +0.000 C 
ATOM      7  C   UNL     1     -45.390 -64.520  35.141  0.00  0.00    +0.000 C 
ATOM      8  C   UNL     1     -45.982 -62.721  35.077  0.00  0.00    +0.000 C 
ATOM      9  C   UNL     1     -45.342 -67.311  38.675  0.00  0.00    +0.000 C 
ATOM     10  C   UNL     1     -44.906 -68.569  37.862  0.00  0.00    +0.000 C 
ATOM     11  C   UNL     1     -46.601 -61.711  36.399  0.00  0.00    +0.000 C 
ATOM     12  C   UNL     1     -45.033 -68.201  34.460  0.00  0.00    +0.000 C 
ATOM     13  C   UNL     1     -45.344 -64.612  39.347  0.00  0.00    +0.000 C 
ATOM     14  C   UNL     1     -44.699 -61.870  34.650  0.00  0.00    +0.000 C 
ATOM     15  C   UNL     1     -45.591 -61.681  37.640  0.00  0.00    +0.000 C 
ATOM     16  C   UNL     1     -43.299 -65.956  38.260  0.00  0.00    +0.000 C 
ATOM     17  C   UNL     1     -45.664 -62.739  39.077  0.00  0.00    +0.000 C 
ATOM     18  C   UNL     1     -43.847 -61.171  35.805  0.00  0.00    +0.000 C 
ATOM     19  C   UNL     1     -44.370 -61.157  37.286  0.00  0.00    +0.000 C 
ATOM     20  C   UNL     1     -46.694 -60.205  35.838  0.00  0.00    +0.000 C 
ATOM     21  C   UNL     1     -48.110 -61.803  36.789  0.00  0.00    +0.000 C 
ATOM     22  C   UNL     1     -43.324 -60.781  38.307  0.00  0.00    +0.000 C 
ENDROOT
BRANCH  17  23
ATOM     23  O   UNL     1     -46.780 -62.258  39.827  0.00  0.00    +0.000 OA
ATOM     24  H   UNL     1     -47.389 -61.887  39.162  0.00  0.00    +0.000 HD
ENDBRANCH  17  23
BRANCH   9  25
ATOM     25  O   UNL     1     -46.769 -67.328  38.728  0.00  0.00    +0.000 OA
ATOM     26  H   UNL     1     -47.057 -68.186  38.368  0.00  0.00    +0.000 HD
ENDBRANCH   9  25
BRANCH   8  27
ATOM     27  O   UNL     1     -46.896 -62.679  33.963  0.00  0.00    +0.000 OA
ATOM     28  H   UNL     1     -46.877 -63.537  33.503  0.00  0.00    +0.000 HD
ENDBRANCH   8  27
BRANCH  18  29
ATOM     29  O   UNL     1     -42.535 -61.804  35.829  0.00  0.00    +0.000 OA
BRANCH  29  31
ATOM     30  O   UNL     1     -40.379 -61.232  36.176  0.00  0.00    +0.000 OA
ATOM     31  C   UNL     1     -41.450 -61.017  35.620  0.00  0.00    +0.000 C 
BRANCH  31  32
ATOM     32  C   UNL     1     -41.707 -59.762  34.779  0.00  0.00    +0.000 C 
BRANCH  32  33
ATOM     33  O   UNL     1     -41.391 -59.878  33.387  0.00  0.00    +0.000 OA
ATOM     34  H   UNL     1     -41.941 -59.215  32.929  0.00  0.00    +0.000 HD
ENDBRANCH  32  33
BRANCH  32  35
ATOM     35  C   UNL     1     -40.960 -58.570  35.435  0.00  0.00    +0.000 C 
BRANCH  35  36
ATOM     36  C   UNL     1     -41.862 -57.361  35.655  0.00  0.00    +0.000 A 
ATOM     37  C   UNL     1     -41.521 -56.127  35.078  0.00  0.00    +0.000 A 
ATOM     38  C   UNL     1     -43.055 -57.448  36.392  0.00  0.00    +0.000 A 
ATOM     39  C   UNL     1     -42.335 -55.006  35.254  0.00  0.00    +0.000 A 
ATOM     40  C   UNL     1     -43.867 -56.326  36.567  0.00  0.00    +0.000 A 
ATOM     41  C   UNL     1     -43.505 -55.105  36.002  0.00  0.00    +0.000 A 
ENDBRANCH  35  36
BRANCH  35  43
ATOM     42  O   UNL     1     -38.174 -58.822  36.091  0.00  0.00    +0.000 OA
ATOM     43  N   UNL     1     -39.811 -58.159  34.640  0.00  0.00    +0.000 N 
ATOM     44  C   UNL     1     -38.532 -58.227  35.089  0.00  0.00    +0.000 C 
ATOM     45  H   UNL     1     -39.979 -57.534  33.863  0.00  0.00    +0.000 HD
BRANCH  44  46
ATOM     46  O   UNL     1     -37.737 -57.555  34.230  0.00  0.00    +0.000 OA
BRANCH  46  47
ATOM     47  C   UNL     1     -37.481 -56.138  34.411  0.00  0.00    +0.000 C 
ATOM     48  C   UNL     1     -37.837 -55.682  35.830  0.00  0.00    +0.000 C 
ATOM     49  C   UNL     1     -35.965 -55.988  34.214  0.00  0.00    +0.000 C 
ATOM     50  C   UNL     1     -38.199 -55.304  33.344  0.00  0.00    +0.000 C 
ENDBRANCH  46  47
ENDBRANCH  44  46
ENDBRANCH  35  43
ENDBRANCH  32  35
ENDBRANCH  31  32
ENDBRANCH  29  31
ENDBRANCH  18  29
BRANCH   7  51
ATOM     51  O   UNL     1     -44.334 -64.125  35.821  0.00  0.00    +0.000 OA
BRANCH  51  53
ATOM     52  O   UNL     1     -44.347 -64.692  33.895  0.00  0.00    +0.000 OA
ATOM     53  C   UNL     1     -43.520 -64.370  34.742  0.00  0.00    +0.000 C 
BRANCH  53  54
ATOM     54  C   UNL     1     -41.609 -64.456  34.837  0.00  0.00    +0.000 A 
ATOM     55  C   UNL     1     -40.691 -64.145  33.741  0.00  0.00    +0.000 A 
ATOM     56  C   UNL     1     -40.806 -64.696  35.995  0.00  0.00    +0.000 A 
ATOM     57  C   UNL     1     -39.275 -64.091  33.794  0.00  0.00    +0.000 A 
ATOM     58  C   UNL     1     -39.383 -64.647  36.068  0.00  0.00    +0.000 A 
ATOM     59  C   UNL     1     -38.616 -64.344  34.970  0.00  0.00    +0.000 A 
ENDBRANCH  53  54
ENDBRANCH  51  53
ENDBRANCH   7  51
BRANCH   4  60
ATOM     60  O   UNL     1     -43.195 -67.137  35.858  0.00  0.00    +0.000 OA
BRANCH  60  62
ATOM     61  O   UNL     1     -42.102 -67.703  33.990  0.00  0.00    +0.000 OA
ATOM     62  C   UNL     1     -42.275 -67.875  35.194  0.00  0.00    +0.000 C 
ATOM     63  C   UNL     1     -41.565 -68.973  35.921  0.00  0.00    +0.000 C 
ENDBRANCH  60  62
ENDBRANCH   4  60
TORSDOF 17
ENDMDL
MODEL 5
REMARK VINA RESULT:      -6.3     30.553     35.130
REMARK  Name = 
REMARK  25 active torsions:
REMARK  status: ('A' for Active; 'I' for Inactive)
REMARK    1  A    between atoms: O_2  and  C_17
REMARK    2  A    between atoms: O_2  and  C_36
REMARK    3  A    between atoms: O_3  and  C_20
REMARK    4  A    between atoms: O_3  and  C_37
REMARK    5  A    between atoms: O_4  and  C_21
REMARK    6  A    between atoms: O_5  and  C_22
REMARK    7  A    between atoms: O_7  and  C_30
REMARK    8  A    between atoms: O_8  and  C_31
REMARK    9  A    between atoms: O_8  and  C_39
REMARK   10  A    between atoms: O_12  and  C_41
REMARK   11  A    between atoms: O_13  and  C_51
REMARK   12  A    between atoms: O_13  and  C_55
REMARK   13  A    between atoms: N_15  and  C_44
REMARK   14  A    between atoms: C_18  and  C_29
REMARK   15  A    between atoms: C_24  and  C_33
REMARK   16  A    between atoms: C_24  and  C_34
REMARK   17  A    between atoms: C_32  and  C_35
REMARK   18  A    between atoms: C_36  and  C_38
REMARK   19  A    between atoms: C_37  and  C_40
REMARK   20  A    between atoms: C_39  and  C_41
REMARK   21  A    between atoms: C_41  and  C_44
REMARK   22  A    between atoms: C_44  and  C_48
REMARK   23  A    between atoms: C_55  and  C_56
REMARK   24  A    between atoms: C_55  and  C_57
REMARK   25  A    between atoms: C_55  and  C_58
REMARK                            x       y       z     vdW  Elec       q    Type
REMARK                         _______ _______ _______ _____ _____    ______ ____
ROOT
ATOM      1  O   UNL     1     -50.906 -37.233  50.700  0.00  0.00    +0.000 OA
ATOM      2  O   UNL     1     -45.007 -35.754  47.841  0.00  0.00    +0.000 OA
ATOM      3  C   UNL     1     -47.527 -37.895  50.742  0.00  0.00    +0.000 C 
ATOM      4  C   UNL     1     -48.865 -37.366  51.339  0.00  0.00    +0.000 C 
ATOM      5  C   UNL     1     -46.763 -36.471  49.747  0.00  0.00    +0.000 C 
ATOM      6  C   UNL     1     -49.649 -37.214  49.971  0.00  0.00    +0.000 C 
ATOM      7  C   UNL     1     -46.544 -38.877  51.985  0.00  0.00    +0.000 C 
ATOM      8  C   UNL     1     -44.901 -39.799  52.178  0.00  0.00    +0.000 C 
ATOM      9  C   UNL     1     -47.843 -36.174  48.625  0.00  0.00    +0.000 C 
ATOM     10  C   UNL     1     -49.307 -36.000  49.134  0.00  0.00    +0.000 C 
ATOM     11  C   UNL     1     -43.482 -39.769  51.111  0.00  0.00    +0.000 C 
ATOM     12  C   UNL     1     -50.215 -38.124  51.662  0.00  0.00    +0.000 C 
ATOM     13  C   UNL     1     -45.086 -36.423  48.895  0.00  0.00    +0.000 C 
ATOM     14  C   UNL     1     -44.253 -39.230  53.523  0.00  0.00    +0.000 C 
ATOM     15  C   UNL     1     -42.989 -38.273  50.829  0.00  0.00    +0.000 C 
ATOM     16  C   UNL     1     -46.715 -35.117  50.572  0.00  0.00    +0.000 C 
ATOM     17  C   UNL     1     -43.446 -37.265  49.428  0.00  0.00    +0.000 C 
ATOM     18  C   UNL     1     -43.170 -38.063  53.396  0.00  0.00    +0.000 C 
ATOM     19  C   UNL     1     -42.619 -37.635  51.990  0.00  0.00    +0.000 C 
ATOM     20  C   UNL     1     -42.288 -40.514  51.894  0.00  0.00    +0.000 C 
ATOM     21  C   UNL     1     -43.439 -40.715  49.869  0.00  0.00    +0.000 C 
ATOM     22  C   UNL     1     -41.884 -36.317  51.990  0.00  0.00    +0.000 C 
ENDROOT
BRANCH  17  23
ATOM     23  O   UNL     1     -42.734 -37.829  48.326  0.00  0.00    +0.000 OA
ATOM     24  H   UNL     1     -42.726 -37.128  47.647  0.00  0.00    +0.000 HD
ENDBRANCH  17  23
BRANCH   9  25
ATOM     25  O   UNL     1     -47.854 -37.265  47.703  0.00  0.00    +0.000 OA
ATOM     26  H   UNL     1     -48.772 -37.367  47.393  0.00  0.00    +0.000 HD
ENDBRANCH   9  25
BRANCH   8  27
ATOM     27  O   UNL     1     -45.280 -41.163  52.446  0.00  0.00    +0.000 OA
ATOM     28  H   UNL     1     -45.261 -41.669  51.615  0.00  0.00    +0.000 HD
ENDBRANCH   8  27
BRANCH  18  29
ATOM     29  O   UNL     1     -43.737 -36.868  54.007  0.00  0.00    +0.000 OA
BRANCH  29  31
ATOM     30  O   UNL     1     -43.396 -35.337  55.631  0.00  0.00    +0.000 OA
ATOM     31  C   UNL     1     -43.244 -36.478  55.209  0.00  0.00    +0.000 C 
BRANCH  31  32
ATOM     32  C   UNL     1     -42.353 -37.507  55.913  0.00  0.00    +0.000 C 
BRANCH  32  33
ATOM     33  O   UNL     1     -42.957 -38.191  57.017  0.00  0.00    +0.000 OA
ATOM     34  H   UNL     1     -42.524 -37.843  57.820  0.00  0.00    +0.000 HD
ENDBRANCH  32  33
BRANCH  32  35
ATOM     35  C   UNL     1     -41.031 -36.809  56.330  0.00  0.00    +0.000 C 
BRANCH  35  36
ATOM     36  C   UNL     1     -39.962 -36.879  55.245  0.00  0.00    +0.000 A 
ATOM     37  C   UNL     1     -39.843 -38.040  54.464  0.00  0.00    +0.000 A 
ATOM     38  C   UNL     1     -39.107 -35.798  54.973  0.00  0.00    +0.000 A 
ATOM     39  C   UNL     1     -38.880 -38.127  53.456  0.00  0.00    +0.000 A 
ATOM     40  C   UNL     1     -38.145 -35.888  53.966  0.00  0.00    +0.000 A 
ATOM     41  C   UNL     1     -38.029 -37.053  53.210  0.00  0.00    +0.000 A 
ENDBRANCH  35  36
BRANCH  35  43
ATOM     42  O   UNL     1     -40.782 -35.552  58.902  0.00  0.00    +0.000 OA
ATOM     43  N   UNL     1     -40.492 -37.378  57.558  0.00  0.00    +0.000 N 
ATOM     44  C   UNL     1     -40.321 -36.662  58.698  0.00  0.00    +0.000 C 
ATOM     45  H   UNL     1     -39.955 -38.232  57.481  0.00  0.00    +0.000 HD
BRANCH  44  46
ATOM     46  O   UNL     1     -39.586 -37.395  59.561  0.00  0.00    +0.000 OA
BRANCH  46  47
ATOM     47  C   UNL     1     -38.295 -36.922  60.024  0.00  0.00    +0.000 C 
ATOM     48  C   UNL     1     -38.436 -36.041  61.270  0.00  0.00    +0.000 C 
ATOM     49  C   UNL     1     -37.527 -38.196  60.408  0.00  0.00    +0.000 C 
ATOM     50  C   UNL     1     -37.531 -36.208  58.902  0.00  0.00    +0.000 C 
ENDBRANCH  46  47
ENDBRANCH  44  46
ENDBRANCH  35  43
ENDBRANCH  32  35
ENDBRANCH  31  32
ENDBRANCH  29  31
ENDBRANCH  18  29
BRANCH   7  51
ATOM     51  O   UNL     1     -45.917 -37.749  52.247  0.00  0.00    +0.000 OA
BRANCH  51  53
ATOM     52  O   UNL     1     -47.083 -38.751  53.539  0.00  0.00    +0.000 OA
ATOM     53  C   UNL     1     -46.568 -37.641  53.452  0.00  0.00    +0.000 C 
BRANCH  53  54
ATOM     54  C   UNL     1     -46.772 -35.999  54.418  0.00  0.00    +0.000 A 
ATOM     55  C   UNL     1     -47.345 -35.871  55.759  0.00  0.00    +0.000 A 
ATOM     56  C   UNL     1     -46.288 -34.707  54.049  0.00  0.00    +0.000 A 
ATOM     57  C   UNL     1     -47.419 -34.698  56.553  0.00  0.00    +0.000 A 
ATOM     58  C   UNL     1     -46.352 -33.518  54.832  0.00  0.00    +0.000 A 
ATOM     59  C   UNL     1     -46.917 -33.511  56.085  0.00  0.00    +0.000 A 
ENDBRANCH  53  54
ENDBRANCH  51  53
ENDBRANCH   7  51
BRANCH   4  60
ATOM     60  O   UNL     1     -48.693 -36.128  52.067  0.00  0.00    +0.000 OA
BRANCH  60  62
ATOM     61  O   UNL     1     -50.148 -36.115  53.767  0.00  0.00    +0.000 OA
ATOM     62  C   UNL     1     -49.666 -35.534  52.797  0.00  0.00    +0.000 C 
ATOM     63  C   UNL     1     -50.221 -34.223  52.336  0.00  0.00    +0.000 C 
ENDBRANCH  60  62
ENDBRANCH   4  60
TORSDOF 17
ENDMDL
MODEL 6
REMARK VINA RESULT:      -6.2      2.521      8.500
REMARK  Name = 
REMARK  25 active torsions:
REMARK  status: ('A' for Active; 'I' for Inactive)
REMARK    1  A    between atoms: O_2  and  C_17
REMARK    2  A    between atoms: O_2  and  C_36
REMARK    3  A    between atoms: O_3  and  C_20
REMARK    4  A    between atoms: O_3  and  C_37
REMARK    5  A    between atoms: O_4  and  C_21
REMARK    6  A    between atoms: O_5  and  C_22
REMARK    7  A    between atoms: O_7  and  C_30
REMARK    8  A    between atoms: O_8  and  C_31
REMARK    9  A    between atoms: O_8  and  C_39
REMARK   10  A    between atoms: O_12  and  C_41
REMARK   11  A    between atoms: O_13  and  C_51
REMARK   12  A    between atoms: O_13  and  C_55
REMARK   13  A    between atoms: N_15  and  C_44
REMARK   14  A    between atoms: C_18  and  C_29
REMARK   15  A    between atoms: C_24  and  C_33
REMARK   16  A    between atoms: C_24  and  C_34
REMARK   17  A    between atoms: C_32  and  C_35
REMARK   18  A    between atoms: C_36  and  C_38
REMARK   19  A    between atoms: C_37  and  C_40
REMARK   20  A    between atoms: C_39  and  C_41
REMARK   21  A    between atoms: C_41  and  C_44
REMARK   22  A    between atoms: C_44  and  C_48
REMARK   23  A    between atoms: C_55  and  C_56
REMARK   24  A    between atoms: C_55  and  C_57
REMARK   25  A    between atoms: C_55  and  C_58
REMARK                            x       y       z     vdW  Elec       q    Type
REMARK                         _______ _______ _______ _____ _____    ______ ____
ROOT
ATOM      1  O   UNL     1     -42.336 -59.805  36.594  0.00  0.00    +0.000 OA
ATOM      2  O   UNL     1     -45.123 -64.331  40.706  0.00  0.00    +0.000 OA
ATOM      3  C   UNL     1     -42.712 -63.171  37.214  0.00  0.00    +0.000 C 
ATOM      4  C   UNL     1     -42.892 -61.864  36.387  0.00  0.00    +0.000 C 
ATOM      5  C   UNL     1     -44.163 -63.259  38.435  0.00  0.00    +0.000 C 
ATOM      6  C   UNL     1     -42.634 -60.842  37.569  0.00  0.00    +0.000 C 
ATOM      7  C   UNL     1     -42.229 -64.618  36.143  0.00  0.00    +0.000 C 
ATOM      8  C   UNL     1     -41.865 -66.475  36.238  0.00  0.00    +0.000 C 
ATOM      9  C   UNL     1     -43.985 -61.959  39.324  0.00  0.00    +0.000 C 
ATOM     10  C   UNL     1     -43.781 -60.630  38.534  0.00  0.00    +0.000 C 
ATOM     11  C   UNL     1     -42.180 -67.598  37.576  0.00  0.00    +0.000 C 
ATOM     12  C   UNL     1     -41.816 -60.902  35.743  0.00  0.00    +0.000 C 
ATOM     13  C   UNL     1     -44.598 -64.656  39.619  0.00  0.00    +0.000 C 
ATOM     14  C   UNL     1     -42.763 -67.140  35.096  0.00  0.00    +0.000 C 
ATOM     15  C   UNL     1     -43.708 -67.538  38.050  0.00  0.00    +0.000 C 
ATOM     16  C   UNL     1     -45.563 -63.025  37.726  0.00  0.00    +0.000 C 
ATOM     17  C   UNL     1     -44.352 -66.544  39.387  0.00  0.00    +0.000 C 
ATOM     18  C   UNL     1     -44.173 -67.760  35.519  0.00  0.00    +0.000 C 
ATOM     19  C   UNL     1     -44.566 -67.889  37.034  0.00  0.00    +0.000 C 
ATOM     20  C   UNL     1     -41.925 -69.086  37.013  0.00  0.00    +0.000 C 
ATOM     21  C   UNL     1     -41.142 -67.714  38.737  0.00  0.00    +0.000 C 
ATOM     22  C   UNL     1     -46.032 -68.159  37.271  0.00  0.00    +0.000 C 
ENDROOT
BRANCH  17  23
ATOM     23  O   UNL     1     -43.891 -67.189  40.574  0.00  0.00    +0.000 OA
ATOM     24  H   UNL     1     -43.003 -66.818  40.734  0.00  0.00    +0.000 HD
ENDBRANCH  17  23
BRANCH   9  25
ATOM     25  O   UNL     1     -42.834 -62.127  40.153  0.00  0.00    +0.000 OA
ATOM     26  H   UNL     1     -42.922 -62.993  40.591  0.00  0.00    +0.000 HD
ENDBRANCH   9  25
BRANCH   8  27
ATOM     27  O   UNL     1     -40.494 -66.599  35.810  0.00  0.00    +0.000 OA
ATOM     28  H   UNL     1     -39.968 -65.888  36.218  0.00  0.00    +0.000 HD
ENDBRANCH   8  27
BRANCH  18  29
ATOM     29  O   UNL     1     -45.213 -66.964  34.881  0.00  0.00    +0.000 OA
BRANCH  29  31
ATOM     30  O   UNL     1     -46.367 -68.753  34.127  0.00  0.00    +0.000 OA
ATOM     31  C   UNL     1     -46.024 -67.584  33.988  0.00  0.00    +0.000 C 
BRANCH  31  32
ATOM     32  C   UNL     1     -46.338 -66.776  32.723  0.00  0.00    +0.000 C 
BRANCH  32  33
ATOM     33  O   UNL     1     -47.657 -66.951  32.193  0.00  0.00    +0.000 OA
ATOM     34  H   UNL     1     -47.998 -66.053  32.019  0.00  0.00    +0.000 HD
ENDBRANCH  32  33
BRANCH  32  35
ATOM     35  C   UNL     1     -45.251 -67.086  31.660  0.00  0.00    +0.000 C 
BRANCH  35  36
ATOM     36  C   UNL     1     -45.776 -66.974  30.233  0.00  0.00    +0.000 A 
ATOM     37  C   UNL     1     -46.159 -68.135  29.542  0.00  0.00    +0.000 A 
ATOM     38  C   UNL     1     -45.926 -65.732  29.592  0.00  0.00    +0.000 A 
ATOM     39  C   UNL     1     -46.654 -68.059  28.238  0.00  0.00    +0.000 A 
ATOM     40  C   UNL     1     -46.420 -65.660  28.288  0.00  0.00    +0.000 A 
ATOM     41  C   UNL     1     -46.781 -66.823  27.611  0.00  0.00    +0.000 A 
ENDBRANCH  35  36
BRANCH  35  43
ATOM     42  O   UNL     1     -42.481 -67.852  31.614  0.00  0.00    +0.000 OA
ATOM     43  N   UNL     1     -44.685 -68.415  31.848  0.00  0.00    +0.000 N 
ATOM     44  C   UNL     1     -43.364 -68.689  31.702  0.00  0.00    +0.000 C 
ATOM     45  H   UNL     1     -45.315 -69.204  31.788  0.00  0.00    +0.000 HD
BRANCH  44  46
ATOM     46  O   UNL     1     -43.199 -70.029  31.699  0.00  0.00    +0.000 OA
BRANCH  46  47
ATOM     47  C   UNL     1     -42.603 -70.706  32.836  0.00  0.00    +0.000 C 
ATOM     48  C   UNL     1     -43.631 -70.943  33.947  0.00  0.00    +0.000 C 
ATOM     49  C   UNL     1     -42.152 -72.067  32.286  0.00  0.00    +0.000 C 
ATOM     50  C   UNL     1     -41.371 -69.951  33.347  0.00  0.00    +0.000 C 
ENDBRANCH  46  47
ENDBRANCH  44  46
ENDBRANCH  35  43
ENDBRANCH  32  35
ENDBRANCH  31  32
ENDBRANCH  29  31
ENDBRANCH  18  29
BRANCH   7  51
ATOM     51  O   UNL     1     -43.515 -64.895  36.089  0.00  0.00    +0.000 OA
BRANCH  51  53
ATOM     52  O   UNL     1     -42.383 -64.360  34.520  0.00  0.00    +0.000 OA
ATOM     53  C   UNL     1     -43.576 -64.468  34.785  0.00  0.00    +0.000 C 
BRANCH  53  54
ATOM     54  C   UNL     1     -45.189 -63.921  33.909  0.00  0.00    +0.000 A 
ATOM     55  C   UNL     1     -46.497 -63.783  34.551  0.00  0.00    +0.000 A 
ATOM     56  C   UNL     1     -45.332 -63.446  32.569  0.00  0.00    +0.000 A 
ATOM     57  C   UNL     1     -47.690 -63.282  33.971  0.00  0.00    +0.000 A 
ATOM     58  C   UNL     1     -46.522 -62.938  31.969  0.00  0.00    +0.000 A 
ATOM     59  C   UNL     1     -47.701 -62.855  32.668  0.00  0.00    +0.000 A 
ENDBRANCH  53  54
ENDBRANCH  51  53
ENDBRANCH   7  51
BRANCH   4  60
ATOM     60  O   UNL     1     -44.207 -61.765  35.791  0.00  0.00    +0.000 OA
BRANCH  60  62
ATOM     61  O   UNL     1     -44.037 -60.601  33.888  0.00  0.00    +0.000 OA
ATOM     62  C   UNL     1     -44.596 -60.760  34.971  0.00  0.00    +0.000 C 
ATOM     63  C   UNL     1     -45.624 -59.787  35.453  0.00  0.00    +0.000 C 
ENDBRANCH  60  62
ENDBRANCH   4  60
TORSDOF 17
ENDMDL
MODEL 7
REMARK VINA RESULT:      -6.2      4.289      6.794
REMARK  Name = 
REMARK  25 active torsions:
REMARK  status: ('A' for Active; 'I' for Inactive)
REMARK    1  A    between atoms: O_2  and  C_17
REMARK    2  A    between atoms: O_2  and  C_36
REMARK    3  A    between atoms: O_3  and  C_20
REMARK    4  A    between atoms: O_3  and  C_37
REMARK    5  A    between atoms: O_4  and  C_21
REMARK    6  A    between atoms: O_5  and  C_22
REMARK    7  A    between atoms: O_7  and  C_30
REMARK    8  A    between atoms: O_8  and  C_31
REMARK    9  A    between atoms: O_8  and  C_39
REMARK   10  A    between atoms: O_12  and  C_41
REMARK   11  A    between atoms: O_13  and  C_51
REMARK   12  A    between atoms: O_13  and  C_55
REMARK   13  A    between atoms: N_15  and  C_44
REMARK   14  A    between atoms: C_18  and  C_29
REMARK   15  A    between atoms: C_24  and  C_33
REMARK   16  A    between atoms: C_24  and  C_34
REMARK   17  A    between atoms: C_32  and  C_35
REMARK   18  A    between atoms: C_36  and  C_38
REMARK   19  A    between atoms: C_37  and  C_40
REMARK   20  A    between atoms: C_39  and  C_41
REMARK   21  A    between atoms: C_41  and  C_44
REMARK   22  A    between atoms: C_44  and  C_48
REMARK   23  A    between atoms: C_55  and  C_56
REMARK   24  A    between atoms: C_55  and  C_57
REMARK   25  A    between atoms: C_55  and  C_58
REMARK                            x       y       z     vdW  Elec       q    Type
REMARK                         _______ _______ _______ _____ _____    ______ ____
ROOT
ATOM      1  O   UNL     1     -46.835 -66.444  31.545  0.00  0.00    +0.000 OA
ATOM      2  O   UNL     1     -43.206 -69.778  36.114  0.00  0.00    +0.000 OA
ATOM      3  C   UNL     1     -45.625 -66.360  34.768  0.00  0.00    +0.000 C 
ATOM      4  C   UNL     1     -45.746 -65.863  33.297  0.00  0.00    +0.000 C 
ATOM      5  C   UNL     1     -44.278 -67.696  34.793  0.00  0.00    +0.000 C 
ATOM      6  C   UNL     1     -46.333 -67.199  32.682  0.00  0.00    +0.000 C 
ATOM      7  C   UNL     1     -45.648 -64.951  35.988  0.00  0.00    +0.000 C 
ATOM      8  C   UNL     1     -45.517 -64.597  37.845  0.00  0.00    +0.000 C 
ATOM      9  C   UNL     1     -44.843 -68.819  33.827  0.00  0.00    +0.000 C 
ATOM     10  C   UNL     1     -45.342 -68.317  32.437  0.00  0.00    +0.000 C 
ATOM     11  C   UNL     1     -44.998 -65.687  39.146  0.00  0.00    +0.000 C 
ATOM     12  C   UNL     1     -46.997 -65.320  32.497  0.00  0.00    +0.000 C 
ATOM     13  C   UNL     1     -43.562 -68.592  36.285  0.00  0.00    +0.000 C 
ATOM     14  C   UNL     1     -44.409 -63.453  37.979  0.00  0.00    +0.000 C 
ATOM     15  C   UNL     1     -43.571 -66.341  38.834  0.00  0.00    +0.000 C 
ATOM     16  C   UNL     1     -42.949 -67.226  34.065  0.00  0.00    +0.000 C 
ATOM     17  C   UNL     1     -43.290 -67.928  38.065  0.00  0.00    +0.000 C 
ATOM     18  C   UNL     1     -42.914 -63.896  38.323  0.00  0.00    +0.000 C 
ATOM     19  C   UNL     1     -42.591 -65.383  38.713  0.00  0.00    +0.000 C 
ATOM     20  C   UNL     1     -44.820 -64.789  40.471  0.00  0.00    +0.000 C 
ATOM     21  C   UNL     1     -46.036 -66.664  39.784  0.00  0.00    +0.000 C 
ATOM     22  C   UNL     1     -41.123 -65.727  38.670  0.00  0.00    +0.000 C 
ENDROOT
BRANCH  17  23
ATOM     23  O   UNL     1     -43.635 -68.884  39.068  0.00  0.00    +0.000 OA
ATOM     24  H   UNL     1     -44.012 -69.638  38.577  0.00  0.00    +0.000 HD
ENDBRANCH  17  23
BRANCH   9  25
ATOM     25  O   UNL     1     -45.957 -69.448  34.462  0.00  0.00    +0.000 OA
ATOM     26  H   UNL     1     -46.704 -68.826  34.410  0.00  0.00    +0.000 HD
ENDBRANCH   9  25
BRANCH   8  27
ATOM     27  O   UNL     1     -46.779 -63.993  38.189  0.00  0.00    +0.000 OA
ATOM     28  H   UNL     1     -47.189 -63.629  37.384  0.00  0.00    +0.000 HD
ENDBRANCH   8  27
BRANCH  18  29
ATOM     29  O   UNL     1     -42.084 -63.574  37.171  0.00  0.00    +0.000 OA
BRANCH  29  31
ATOM     30  O   UNL     1     -40.681 -62.161  38.236  0.00  0.00    +0.000 OA
ATOM     31  C   UNL     1     -41.324 -62.452  37.233  0.00  0.00    +0.000 C 
BRANCH  31  32
ATOM     32  C   UNL     1     -41.458 -61.505  36.035  0.00  0.00    +0.000 C 
BRANCH  32  33
ATOM     33  O   UNL     1     -41.077 -62.056  34.769  0.00  0.00    +0.000 OA
ATOM     34  H   UNL     1     -40.540 -62.846  34.970  0.00  0.00    +0.000 HD
ENDBRANCH  32  33
BRANCH  32  35
ATOM     35  C   UNL     1     -40.675 -60.203  36.348  0.00  0.00    +0.000 C 
BRANCH  35  36
ATOM     36  C   UNL     1     -41.526 -58.949  36.176  0.00  0.00    +0.000 A 
ATOM     37  C   UNL     1     -42.776 -58.867  36.810  0.00  0.00    +0.000 A 
ATOM     38  C   UNL     1     -41.082 -57.847  35.426  0.00  0.00    +0.000 A 
ATOM     39  C   UNL     1     -43.571 -57.727  36.678  0.00  0.00    +0.000 A 
ATOM     40  C   UNL     1     -41.879 -56.708  35.295  0.00  0.00    +0.000 A 
ATOM     41  C   UNL     1     -43.124 -56.650  35.918  0.00  0.00    +0.000 A 
ENDBRANCH  35  36
BRANCH  35  43
ATOM     42  O   UNL     1     -37.934 -60.628  37.100  0.00  0.00    +0.000 OA
ATOM     43  N   UNL     1     -39.487 -60.081  35.514  0.00  0.00    +0.000 N 
ATOM     44  C   UNL     1     -38.224 -60.202  35.995  0.00  0.00    +0.000 C 
ATOM     45  H   UNL     1     -39.585 -59.603  34.628  0.00  0.00    +0.000 HD
BRANCH  44  46
ATOM     46  O   UNL     1     -37.359 -59.799  35.040  0.00  0.00    +0.000 OA
BRANCH  46  47
ATOM     47  C   UNL     1     -36.577 -58.588  35.211  0.00  0.00    +0.000 C 
ATOM     48  C   UNL     1     -35.278 -58.865  35.974  0.00  0.00    +0.000 C 
ATOM     49  C   UNL     1     -36.223 -58.149  33.782  0.00  0.00    +0.000 C 
ATOM     50  C   UNL     1     -37.406 -57.482  35.872  0.00  0.00    +0.000 C 
ENDBRANCH  46  47
ENDBRANCH  44  46
ENDBRANCH  35  43
ENDBRANCH  32  35
ENDBRANCH  31  32
ENDBRANCH  29  31
ENDBRANCH  18  29
BRANCH   7  51
ATOM     51  O   UNL     1     -44.334 -64.991  35.925  0.00  0.00    +0.000 OA
BRANCH  51  53
ATOM     52  O   UNL     1     -43.190 -63.958  34.639  0.00  0.00    +0.000 OA
ATOM     53  C   UNL     1     -44.315 -63.877  35.122  0.00  0.00    +0.000 C 
BRANCH  53  54
ATOM     54  C   UNL     1     -45.657 -62.510  35.151  0.00  0.00    +0.000 A 
ATOM     55  C   UNL     1     -45.484 -61.165  35.700  0.00  0.00    +0.000 A 
ATOM     56  C   UNL     1     -46.947 -62.545  34.538  0.00  0.00    +0.000 A 
ATOM     57  C   UNL     1     -46.407 -60.090  35.648  0.00  0.00    +0.000 A 
ATOM     58  C   UNL     1     -47.889 -61.477  34.476  0.00  0.00    +0.000 A 
ATOM     59  C   UNL     1     -47.621 -60.249  35.030  0.00  0.00    +0.000 A 
ENDBRANCH  53  54
ENDBRANCH  51  53
ENDBRANCH   7  51
BRANCH   4  60
ATOM     60  O   UNL     1     -44.471 -65.463  32.743  0.00  0.00    +0.000 OA
BRANCH  60  62
ATOM     61  O   UNL     1     -43.961 -65.453  30.565  0.00  0.00    +0.000 OA
ATOM     62  C   UNL     1     -44.323 -64.826  31.558  0.00  0.00    +0.000 C 
ATOM     63  C   UNL     1     -44.492 -63.341  31.506  0.00  0.00    +0.000 C 
ENDBRANCH  60  62
ENDBRANCH   4  60
TORSDOF 17
ENDMDL
MODEL 8
REMARK VINA RESULT:      -6.2      6.248      9.030
REMARK  Name = 
REMARK  25 active torsions:
REMARK  status: ('A' for Active; 'I' for Inactive)
REMARK    1  A    between atoms: O_2  and  C_17
REMARK    2  A    between atoms: O_2  and  C_36
REMARK    3  A    between atoms: O_3  and  C_20
REMARK    4  A    between atoms: O_3  and  C_37
REMARK    5  A    between atoms: O_4  and  C_21
REMARK    6  A    between atoms: O_5  and  C_22
REMARK    7  A    between atoms: O_7  and  C_30
REMARK    8  A    between atoms: O_8  and  C_31
REMARK    9  A    between atoms: O_8  and  C_39
REMARK   10  A    between atoms: O_12  and  C_41
REMARK   11  A    between atoms: O_13  and  C_51
REMARK   12  A    between atoms: O_13  and  C_55
REMARK   13  A    between atoms: N_15  and  C_44
REMARK   14  A    between atoms: C_18  and  C_29
REMARK   15  A    between atoms: C_24  and  C_33
REMARK   16  A    between atoms: C_24  and  C_34
REMARK   17  A    between atoms: C_32  and  C_35
REMARK   18  A    between atoms: C_36  and  C_38
REMARK   19  A    between atoms: C_37  and  C_40
REMARK   20  A    between atoms: C_39  and  C_41
REMARK   21  A    between atoms: C_41  and  C_44
REMARK   22  A    between atoms: C_44  and  C_48
REMARK   23  A    between atoms: C_55  and  C_56
REMARK   24  A    between atoms: C_55  and  C_57
REMARK   25  A    between atoms: C_55  and  C_58
REMARK                            x       y       z     vdW  Elec       q    Type
REMARK                         _______ _______ _______ _____ _____    ______ ____
ROOT
ATOM      1  O   UNL     1     -46.341 -66.077  30.718  0.00  0.00    +0.000 OA
ATOM      2  O   UNL     1     -45.891 -60.293  27.327  0.00  0.00    +0.000 OA
ATOM      3  C   UNL     1     -44.524 -63.174  30.357  0.00  0.00    +0.000 C 
ATOM      4  C   UNL     1     -45.435 -64.178  31.124  0.00  0.00    +0.000 C 
ATOM      5  C   UNL     1     -45.670 -62.030  29.368  0.00  0.00    +0.000 C 
ATOM      6  C   UNL     1     -45.980 -64.961  29.860  0.00  0.00    +0.000 C 
ATOM      7  C   UNL     1     -43.148 -62.516  31.428  0.00  0.00    +0.000 C 
ATOM      8  C   UNL     1     -41.690 -61.307  31.389  0.00  0.00    +0.000 C 
ATOM      9  C   UNL     1     -46.432 -63.015  28.388  0.00  0.00    +0.000 C 
ATOM     10  C   UNL     1     -47.066 -64.271  29.061  0.00  0.00    +0.000 C 
ATOM     11  C   UNL     1     -41.314 -60.064  30.179  0.00  0.00    +0.000 C 
ATOM     12  C   UNL     1     -45.178 -65.679  31.547  0.00  0.00    +0.000 C 
ATOM     13  C   UNL     1     -45.200 -60.522  28.344  0.00  0.00    +0.000 C 
ATOM     14  C   UNL     1     -41.866 -60.392  32.687  0.00  0.00    +0.000 C 
ATOM     15  C   UNL     1     -42.557 -59.088  29.931  0.00  0.00    +0.000 C 
ATOM     16  C   UNL     1     -46.837 -61.429  30.259  0.00  0.00    +0.000 C 
ATOM     17  C   UNL     1     -43.786 -59.261  28.647  0.00  0.00    +0.000 C 
ATOM     18  C   UNL     1     -42.580 -58.974  32.511  0.00  0.00    +0.000 C 
ATOM     19  C   UNL     1     -42.913 -58.420  31.079  0.00  0.00    +0.000 C 
ATOM     20  C   UNL     1     -40.125 -59.161  30.785  0.00  0.00    +0.000 C 
ATOM     21  C   UNL     1     -40.533 -60.466  28.888  0.00  0.00    +0.000 C 
ATOM     22  C   UNL     1     -43.880 -57.262  31.076  0.00  0.00    +0.000 C 
ENDROOT
BRANCH  17  23
ATOM     23  O   UNL     1     -43.110 -58.892  27.444  0.00  0.00    +0.000 OA
ATOM     24  H   UNL     1     -43.174 -59.677  26.869  0.00  0.00    +0.000 HD
ENDBRANCH  17  23
BRANCH   9  25
ATOM     25  O   UNL     1     -45.506 -63.494  27.411  0.00  0.00    +0.000 OA
ATOM     26  H   UNL     1     -46.008 -63.638  26.589  0.00  0.00    +0.000 HD
ENDBRANCH   9  25
BRANCH   8  27
ATOM     27  O   UNL     1     -40.530 -62.131  31.619  0.00  0.00    +0.000 OA
ATOM     28  H   UNL     1     -39.770 -61.560  31.829  0.00  0.00    +0.000 HD
ENDBRANCH   8  27
BRANCH  18  29
ATOM     29  O   UNL     1     -43.837 -59.020  33.246  0.00  0.00    +0.000 OA
BRANCH  29  31
ATOM     30  O   UNL     1     -45.069 -57.765  34.663  0.00  0.00    +0.000 OA
ATOM     31  C   UNL     1     -43.974 -58.195  34.314  0.00  0.00    +0.000 C 
BRANCH  31  32
ATOM     32  C   UNL     1     -42.661 -57.714  34.940  0.00  0.00    +0.000 C 
BRANCH  32  33
ATOM     33  O   UNL     1     -42.644 -57.660  36.371  0.00  0.00    +0.000 OA
ATOM     34  H   UNL     1     -43.331 -57.016  36.625  0.00  0.00    +0.000 HD
ENDBRANCH  32  33
BRANCH  32  35
ATOM     35  C   UNL     1     -42.292 -56.342  34.314  0.00  0.00    +0.000 C 
BRANCH  35  36
ATOM     36  C   UNL     1     -40.946 -55.817  34.801  0.00  0.00    +0.000 A 
ATOM     37  C   UNL     1     -39.850 -56.690  34.883  0.00  0.00    +0.000 A 
ATOM     38  C   UNL     1     -40.753 -54.467  35.138  0.00  0.00    +0.000 A 
ATOM     39  C   UNL     1     -38.602 -56.233  35.315  0.00  0.00    +0.000 A 
ATOM     40  C   UNL     1     -39.505 -54.012  35.570  0.00  0.00    +0.000 A 
ATOM     41  C   UNL     1     -38.432 -54.896  35.661  0.00  0.00    +0.000 A 
ENDBRANCH  35  36
BRANCH  35  43
ATOM     42  O   UNL     1     -43.526 -54.522  32.464  0.00  0.00    +0.000 OA
ATOM     43  N   UNL     1     -43.313 -55.340  34.588  0.00  0.00    +0.000 N 
ATOM     44  C   UNL     1     -43.756 -54.455  33.659  0.00  0.00    +0.000 C 
ATOM     45  H   UNL     1     -43.480 -55.094  35.555  0.00  0.00    +0.000 HD
BRANCH  44  46
ATOM     46  O   UNL     1     -44.505 -53.518  34.279  0.00  0.00    +0.000 OA
BRANCH  46  47
ATOM     47  C   UNL     1     -44.520 -52.147  33.804  0.00  0.00    +0.000 C 
ATOM     48  C   UNL     1     -45.550 -51.954  32.687  0.00  0.00    +0.000 C 
ATOM     49  C   UNL     1     -44.954 -51.317  35.022  0.00  0.00    +0.000 C 
ATOM     50  C   UNL     1     -43.120 -51.693  33.376  0.00  0.00    +0.000 C 
ENDBRANCH  46  47
ENDBRANCH  44  46
ENDBRANCH  35  43
ENDBRANCH  32  35
ENDBRANCH  31  32
ENDBRANCH  29  31
ENDBRANCH  18  29
BRANCH   7  51
ATOM     51  O   UNL     1     -43.951 -61.505  31.685  0.00  0.00    +0.000 OA
BRANCH  51  53
ATOM     52  O   UNL     1     -43.359 -62.900  33.002  0.00  0.00    +0.000 OA
ATOM     53  C   UNL     1     -44.116 -61.935  32.979  0.00  0.00    +0.000 C 
BRANCH  53  54
ATOM     54  C   UNL     1     -45.468 -61.275  34.166  0.00  0.00    +0.000 A 
ATOM     55  C   UNL     1     -46.749 -60.699  33.754  0.00  0.00    +0.000 A 
ATOM     56  C   UNL     1     -45.492 -61.365  35.591  0.00  0.00    +0.000 A 
ATOM     57  C   UNL     1     -47.820 -60.298  34.593  0.00  0.00    +0.000 A 
ATOM     58  C   UNL     1     -46.558 -60.968  36.451  0.00  0.00    +0.000 A 
ATOM     59  C   UNL     1     -47.722 -60.434  35.954  0.00  0.00    +0.000 A 
ENDBRANCH  53  54
ENDBRANCH  51  53
ENDBRANCH   7  51
BRANCH   4  60
ATOM     60  O   UNL     1     -46.460 -63.512  31.899  0.00  0.00    +0.000 OA
BRANCH  60  62
ATOM     61  O   UNL     1     -46.526 -64.362  33.967  0.00  0.00    +0.000 OA
ATOM     62  C   UNL     1     -47.124 -64.083  32.930  0.00  0.00    +0.000 C 
ATOM     63  C   UNL     1     -48.556 -64.473  32.744  0.00  0.00    +0.000 C 
ENDBRANCH  60  62
ENDBRANCH   4  60
TORSDOF 17
ENDMDL
MODEL 9
REMARK VINA RESULT:      -6.1     27.166     30.168
REMARK  Name = 
REMARK  25 active torsions:
REMARK  status: ('A' for Active; 'I' for Inactive)
REMARK    1  A    between atoms: O_2  and  C_17
REMARK    2  A    between atoms: O_2  and  C_36
REMARK    3  A    between atoms: O_3  and  C_20
REMARK    4  A    between atoms: O_3  and  C_37
REMARK    5  A    between atoms: O_4  and  C_21
REMARK    6  A    between atoms: O_5  and  C_22
REMARK    7  A    between atoms: O_7  and  C_30
REMARK    8  A    between atoms: O_8  and  C_31
REMARK    9  A    between atoms: O_8  and  C_39
REMARK   10  A    between atoms: O_12  and  C_41
REMARK   11  A    between atoms: O_13  and  C_51
REMARK   12  A    between atoms: O_13  and  C_55
REMARK   13  A    between atoms: N_15  and  C_44
REMARK   14  A    between atoms: C_18  and  C_29
REMARK   15  A    between atoms: C_24  and  C_33
REMARK   16  A    between atoms: C_24  and  C_34
REMARK   17  A    between atoms: C_32  and  C_35
REMARK   18  A    between atoms: C_36  and  C_38
REMARK   19  A    between atoms: C_37  and  C_40
REMARK   20  A    between atoms: C_39  and  C_41
REMARK   21  A    between atoms: C_41  and  C_44
REMARK   22  A    between atoms: C_44  and  C_48
REMARK   23  A    between atoms: C_55  and  C_56
REMARK   24  A    between atoms: C_55  and  C_57
REMARK   25  A    between atoms: C_55  and  C_58
REMARK                            x       y       z     vdW  Elec       q    Type
REMARK                         _______ _______ _______ _____ _____    ______ ____
ROOT
ATOM      1  O   UNL     1     -37.538 -40.179  41.581  0.00  0.00    +0.000 OA
ATOM      2  O   UNL     1     -34.301 -38.793  47.305  0.00  0.00    +0.000 OA
ATOM      3  C   UNL     1     -37.251 -41.011  44.910  0.00  0.00    +0.000 C 
ATOM      4  C   UNL     1     -37.992 -40.460  43.656  0.00  0.00    +0.000 C 
ATOM      5  C   UNL     1     -36.295 -39.558  45.670  0.00  0.00    +0.000 C 
ATOM      6  C   UNL     1     -36.709 -40.171  42.775  0.00  0.00    +0.000 C 
ATOM      7  C   UNL     1     -38.337 -42.127  45.934  0.00  0.00    +0.000 C 
ATOM      8  C   UNL     1     -38.328 -43.142  47.533  0.00  0.00    +0.000 C 
ATOM      9  C   UNL     1     -35.290 -39.127  44.523  0.00  0.00    +0.000 C 
ATOM     10  C   UNL     1     -35.931 -38.918  43.116  0.00  0.00    +0.000 C 
ATOM     11  C   UNL     1     -37.151 -43.105  48.862  0.00  0.00    +0.000 C 
ATOM     12  C   UNL     1     -38.375 -41.172  42.297  0.00  0.00    +0.000 C 
ATOM     13  C   UNL     1     -35.310 -39.532  47.274  0.00  0.00    +0.000 C 
ATOM     14  C   UNL     1     -39.650 -42.705  48.318  0.00  0.00    +0.000 C 
ATOM     15  C   UNL     1     -36.931 -41.619  49.414  0.00  0.00    +0.000 C 
ATOM     16  C   UNL     1     -37.203 -38.271  45.860  0.00  0.00    +0.000 C 
ATOM     17  C   UNL     1     -35.645 -40.491  48.902  0.00  0.00    +0.000 C 
ATOM     18  C   UNL     1     -39.513 -41.587  49.450  0.00  0.00    +0.000 C 
ATOM     19  C   UNL     1     -38.097 -41.086  49.910  0.00  0.00    +0.000 C 
ATOM     20  C   UNL     1     -37.778 -43.963  50.072  0.00  0.00    +0.000 C 
ATOM     21  C   UNL     1     -35.848 -43.960  48.752  0.00  0.00    +0.000 C 
ATOM     22  C   UNL     1     -38.126 -39.810  50.714  0.00  0.00    +0.000 C 
ENDROOT
BRANCH  17  23
ATOM     23  O   UNL     1     -34.451 -41.008  49.491  0.00  0.00    +0.000 OA
ATOM     24  H   UNL     1     -34.744 -41.436  50.318  0.00  0.00    +0.000 HD
ENDBRANCH  17  23
BRANCH   9  25
ATOM     25  O   UNL     1     -34.299 -40.146  44.377  0.00  0.00    +0.000 OA
ATOM     26  H   UNL     1     -34.056 -40.174  43.434  0.00  0.00    +0.000 HD
ENDBRANCH   9  25
BRANCH   8  27
ATOM     27  O   UNL     1     -38.534 -44.501  47.102  0.00  0.00    +0.000 OA
ATOM     28  H   UNL     1     -39.447 -44.768  47.312  0.00  0.00    +0.000 HD
ENDBRANCH   8  27
BRANCH  18  29
ATOM     29  O   UNL     1     -40.249 -40.413  49.001  0.00  0.00    +0.000 OA
BRANCH  29  31
ATOM     30  O   UNL     1     -42.341 -41.260  48.918  0.00  0.00    +0.000 OA
ATOM     31  C   UNL     1     -41.579 -40.363  49.263  0.00  0.00    +0.000 C 
BRANCH  31  32
ATOM     32  C   UNL     1     -42.075 -39.043  49.864  0.00  0.00    +0.000 C 
BRANCH  32  33
ATOM     33  O   UNL     1     -41.359 -38.584  51.016  0.00  0.00    +0.000 OA
ATOM     34  H   UNL     1     -41.825 -38.955  51.789  0.00  0.00    +0.000 HD
ENDBRANCH  32  33
BRANCH  32  35
ATOM     35  C   UNL     1     -43.594 -39.177  50.154  0.00  0.00    +0.000 C 
BRANCH  35  36
ATOM     36  C   UNL     1     -44.455 -38.452  49.124  0.00  0.00    +0.000 A 
ATOM     37  C   UNL     1     -45.249 -39.197  48.237  0.00  0.00    +0.000 A 
ATOM     38  C   UNL     1     -44.509 -37.050  49.056  0.00  0.00    +0.000 A 
ATOM     39  C   UNL     1     -46.055 -38.558  47.292  0.00  0.00    +0.000 A 
ATOM     40  C   UNL     1     -45.315 -36.414  48.110  0.00  0.00    +0.000 A 
ATOM     41  C   UNL     1     -46.085 -37.168  47.226  0.00  0.00    +0.000 A 
ENDBRANCH  35  36
BRANCH  35  43
ATOM     42  O   UNL     1     -45.279 -40.403  52.132  0.00  0.00    +0.000 OA
ATOM     43  N   UNL     1     -43.930 -38.677  51.480  0.00  0.00    +0.000 N 
ATOM     44  C   UNL     1     -44.824 -39.285  52.301  0.00  0.00    +0.000 C 
ATOM     45  H   UNL     1     -43.730 -37.706  51.679  0.00  0.00    +0.000 HD
BRANCH  44  46
ATOM     46  O   UNL     1     -45.093 -38.458  53.334  0.00  0.00    +0.000 OA
BRANCH  46  47
ATOM     47  C   UNL     1     -45.993 -37.332  53.167  0.00  0.00    +0.000 C 
ATOM     48  C   UNL     1     -46.860 -37.491  51.913  0.00  0.00    +0.000 C 
ATOM     49  C   UNL     1     -46.905 -37.376  54.402  0.00  0.00    +0.000 C 
ATOM     50  C   UNL     1     -45.227 -36.005  53.169  0.00  0.00    +0.000 C 
ENDBRANCH  46  47
ENDBRANCH  44  46
ENDBRANCH  35  43
ENDBRANCH  32  35
ENDBRANCH  31  32
ENDBRANCH  29  31
ENDBRANCH  18  29
BRANCH   7  51
ATOM     51  O   UNL     1     -38.622 -41.054  46.642  0.00  0.00    +0.000 OA
BRANCH  51  53
ATOM     52  O   UNL     1     -39.912 -42.051  45.470  0.00  0.00    +0.000 OA
ATOM     53  C   UNL     1     -39.873 -40.987  46.078  0.00  0.00    +0.000 C 
BRANCH  53  54
ATOM     54  C   UNL     1     -40.970 -39.416  46.085  0.00  0.00    +0.000 A 
ATOM     55  C   UNL     1     -40.568 -38.104  46.592  0.00  0.00    +0.000 A 
ATOM     56  C   UNL     1     -42.259 -39.254  45.490  0.00  0.00    +0.000 A 
ATOM     57  C   UNL     1     -41.302 -36.893  46.520  0.00  0.00    +0.000 A 
ATOM     58  C   UNL     1     -43.013 -38.047  45.409  0.00  0.00    +0.000 A 
ATOM     59  C   UNL     1     -42.536 -36.865  45.923  0.00  0.00    +0.000 A 
ENDBRANCH  53  54
ENDBRANCH  51  53
ENDBRANCH   7  51
BRANCH   4  60
ATOM     60  O   UNL     1     -38.786 -39.288  43.954  0.00  0.00    +0.000 OA
BRANCH  60  62
ATOM     61  O   UNL     1     -40.544 -39.253  42.571  0.00  0.00    +0.000 OA
ATOM     62  C   UNL     1     -39.583 -38.661  43.057  0.00  0.00    +0.000 C 
ATOM     63  C   UNL     1     -39.207 -37.292  42.586  0.00  0.00    +0.000 C 
ENDBRANCH  60  62
ENDBRANCH   4  60
TORSDOF 17
ENDMDL
