MODEL 1
REMARK VINA RESULT:      -6.5      0.000      0.000
REMARK  Name = Dronabinol.pdbqt.pdb
REMARK  3 active torsions:
REMARK  status: ('A' for Active; 'I' for Inactive)
REMARK    1  A    between atoms: C_13  and  O_18
REMARK    2  A    between atoms: C_16  and  C_20
REMARK    3  A    between atoms: C_21  and  C_22
REMARK                            x       y       z     vdW  Elec       q    Type
REMARK                         _______ _______ _______ _____ _____    ______ ____
ROOT
ATOM      1  O   UNL     1     -46.016 -64.567  38.458  0.00  0.00    +0.000 OA
ATOM      2  C   UNL     1     -46.161 -62.999  40.355  0.00  0.00    +0.000 A 
ATOM      3  C   UNL     1     -45.285 -63.925  41.116  0.00  0.00    +0.000 A 
ATOM      4  C   UNL     1     -46.255 -63.199  38.867  0.00  0.00    +0.000 C 
ATOM      5  C   UNL     1     -46.618 -61.891  41.151  0.00  0.00    +0.000 A 
ATOM      6  C   UNL     1     -44.656 -65.058  40.442  0.00  0.00    +0.000 A 
ATOM      7  C   UNL     1     -46.286 -61.688  42.641  0.00  0.00    +0.000 A 
ATOM      8  C   UNL     1     -45.125 -63.536  42.500  0.00  0.00    +0.000 A 
ATOM      9  C   UNL     1     -45.469 -62.616  43.369  0.00  0.00    +0.000 A 
ATOM     10  C   UNL     1     -45.071 -65.308  39.125  0.00  0.00    +0.000 A 
ATOM     11  C   UNL     1     -47.695 -62.857  38.394  0.00  0.00    +0.000 C 
ATOM     12  C   UNL     1     -45.220 -62.281  38.153  0.00  0.00    +0.000 C 
ATOM     13  C   UNL     1     -43.700 -65.909  41.011  0.00  0.00    +0.000 A 
ATOM     14  C   UNL     1     -44.568 -66.400  38.416  0.00  0.00    +0.000 A 
ATOM     15  C   UNL     1     -45.821 -62.989  44.775  0.00  0.00    +0.000 C 
ATOM     16  C   UNL     1     -43.620 -67.234  38.998  0.00  0.00    +0.000 A 
ATOM     17  C   UNL     1     -43.182 -66.990  40.294  0.00  0.00    +0.000 A 
ENDROOT
BRANCH  13  18
ATOM     18  O   UNL     1     -43.247 -65.693  42.282  0.00  0.00    +0.000 OA
ATOM     19  H   UNL     1     -42.465 -66.251  42.443  0.00  0.00    +0.000 HD
ENDBRANCH  13  18
BRANCH  16  20
ATOM     20  C   UNL     1     -43.090 -68.331  38.262  0.00  0.00    +0.000 C 
ATOM     21  C   UNL     1     -42.512 -69.516  37.480  0.00  0.00    +0.000 C 
BRANCH  21  22
ATOM     22  C   UNL     1     -41.932 -70.705  36.708  0.00  0.00    +0.000 C 
ATOM     23  C   UNL     1     -41.355 -71.893  35.932  0.00  0.00    +0.000 C 
ATOM     24  C   UNL     1     -40.778 -73.080  35.154  0.00  0.00    +0.000 C 
ENDBRANCH  21  22
ENDBRANCH  16  20
TORSDOF 3
ENDMDL
MODEL 2
REMARK VINA RESULT:      -6.2     23.457     26.023
REMARK  Name = Dronabinol.pdbqt.pdb
REMARK  3 active torsions:
REMARK  status: ('A' for Active; 'I' for Inactive)
REMARK    1  A    between atoms: C_13  and  O_18
REMARK    2  A    between atoms: C_16  and  C_20
REMARK    3  A    between atoms: C_21  and  C_22
REMARK                            x       y       z     vdW  Elec       q    Type
REMARK                         _______ _______ _______ _____ _____    ______ ____
ROOT
ATOM      1  O   UNL     1     -33.207 -43.653  51.010  0.00  0.00    +0.000 OA
ATOM      2  C   UNL     1     -34.958 -41.959  50.633  0.00  0.00    +0.000 A 
ATOM      3  C   UNL     1     -35.963 -43.021  50.890  0.00  0.00    +0.000 A 
ATOM      4  C   UNL     1     -33.533 -42.243  51.025  0.00  0.00    +0.000 C 
ATOM      5  C   UNL     1     -35.559 -40.711  50.244  0.00  0.00    +0.000 A 
ATOM      6  C   UNL     1     -35.538 -44.329  51.383  0.00  0.00    +0.000 A 
ATOM      7  C   UNL     1     -37.072 -40.487  50.064  0.00  0.00    +0.000 A 
ATOM      8  C   UNL     1     -37.319 -42.580  50.645  0.00  0.00    +0.000 A 
ATOM      9  C   UNL     1     -38.025 -41.537  50.280  0.00  0.00    +0.000 A 
ATOM     10  C   UNL     1     -34.154 -44.562  51.413  0.00  0.00    +0.000 A 
ATOM     11  C   UNL     1     -32.577 -41.572  50.002  0.00  0.00    +0.000 C 
ATOM     12  C   UNL     1     -33.268 -41.689  52.456  0.00  0.00    +0.000 C 
ATOM     13  C   UNL     1     -36.395 -45.354  51.800  0.00  0.00    +0.000 A 
ATOM     14  C   UNL     1     -33.651 -45.800  51.817  0.00  0.00    +0.000 A 
ATOM     15  C   UNL     1     -39.196 -41.693  49.362  0.00  0.00    +0.000 C 
ATOM     16  C   UNL     1     -34.518 -46.806  52.227  0.00  0.00    +0.000 A 
ATOM     17  C   UNL     1     -35.890 -46.586  52.223  0.00  0.00    +0.000 A 
ENDROOT
BRANCH  13  18
ATOM     18  O   UNL     1     -37.748 -45.166  51.810  0.00  0.00    +0.000 OA
ATOM     19  H   UNL     1     -37.988 -44.521  51.121  0.00  0.00    +0.000 HD
ENDBRANCH  13  18
BRANCH  16  20
ATOM     20  C   UNL     1     -33.999 -48.058  52.663  0.00  0.00    +0.000 C 
ATOM     21  C   UNL     1     -33.452 -49.413  53.127  0.00  0.00    +0.000 C 
BRANCH  21  22
ATOM     22  C   UNL     1     -32.911 -50.771  53.584  0.00  0.00    +0.000 C 
ATOM     23  C   UNL     1     -32.374 -52.130  54.044  0.00  0.00    +0.000 C 
ATOM     24  C   UNL     1     -31.840 -53.491  54.503  0.00  0.00    +0.000 C 
ENDBRANCH  21  22
ENDBRANCH  16  20
TORSDOF 3
ENDMDL
MODEL 3
REMARK VINA RESULT:      -6.2     24.006     25.629
REMARK  Name = Dronabinol.pdbqt.pdb
REMARK  3 active torsions:
REMARK  status: ('A' for Active; 'I' for Inactive)
REMARK    1  A    between atoms: C_13  and  O_18
REMARK    2  A    between atoms: C_16  and  C_20
REMARK    3  A    between atoms: C_21  and  C_22
REMARK                            x       y       z     vdW  Elec       q    Type
REMARK                         _______ _______ _______ _____ _____    ______ ____
ROOT
ATOM      1  O   UNL     1     -31.446 -45.626  52.552  0.00  0.00    +0.000 OA
ATOM      2  C   UNL     1     -33.575 -44.410  52.298  0.00  0.00    +0.000 A 
ATOM      3  C   UNL     1     -34.266 -45.722  52.343  0.00  0.00    +0.000 A 
ATOM      4  C   UNL     1     -32.136 -44.368  52.738  0.00  0.00    +0.000 C 
ATOM      5  C   UNL     1     -34.477 -43.317  52.045  0.00  0.00    +0.000 A 
ATOM      6  C   UNL     1     -33.520 -46.932  52.678  0.00  0.00    +0.000 A 
ATOM      7  C   UNL     1     -35.990 -43.471  51.801  0.00  0.00    +0.000 A 
ATOM      8  C   UNL     1     -35.684 -45.619  52.074  0.00  0.00    +0.000 A 
ATOM      9  C   UNL     1     -36.633 -44.753  51.810  0.00  0.00    +0.000 A 
ATOM     10  C   UNL     1     -32.126 -46.799  52.765  0.00  0.00    +0.000 A 
ATOM     11  C   UNL     1     -31.368 -43.326  51.880  0.00  0.00    +0.000 C 
ATOM     12  C   UNL     1     -32.066 -43.983  54.245  0.00  0.00    +0.000 C 
ATOM     13  C   UNL     1     -34.084 -48.196  52.896  0.00  0.00    +0.000 A 
ATOM     14  C   UNL     1     -31.322 -47.910  53.027  0.00  0.00    +0.000 A 
ATOM     15  C   UNL     1     -37.696 -45.070  50.806  0.00  0.00    +0.000 C 
ATOM     16  C   UNL     1     -31.899 -49.157  53.241  0.00  0.00    +0.000 A 
ATOM     17  C   UNL     1     -33.280 -49.303  53.178  0.00  0.00    +0.000 A 
ENDROOT
BRANCH  13  18
ATOM     18  O   UNL     1     -35.438 -48.370  52.845  0.00  0.00    +0.000 OA
ATOM     19  H   UNL     1     -35.871 -47.685  53.386  0.00  0.00    +0.000 HD
ENDBRANCH  13  18
BRANCH  16  20
ATOM     20  C   UNL     1     -31.076 -50.281  53.534  0.00  0.00    +0.000 C 
ATOM     21  C   UNL     1     -30.201 -51.498  53.856  0.00  0.00    +0.000 C 
BRANCH  21  22
ATOM     22  C   UNL     1     -29.336 -52.718  54.180  0.00  0.00    +0.000 C 
ATOM     23  C   UNL     1     -28.474 -53.943  54.506  0.00  0.00    +0.000 C 
ATOM     24  C   UNL     1     -27.614 -55.168  54.831  0.00  0.00    +0.000 C 
ENDBRANCH  21  22
ENDBRANCH  16  20
TORSDOF 3
ENDMDL
MODEL 4
REMARK VINA RESULT:      -6.2     15.061     16.753
REMARK  Name = Dronabinol.pdbqt.pdb
REMARK  3 active torsions:
REMARK  status: ('A' for Active; 'I' for Inactive)
REMARK    1  A    between atoms: C_13  and  O_18
REMARK    2  A    between atoms: C_16  and  C_20
REMARK    3  A    between atoms: C_21  and  C_22
REMARK                            x       y       z     vdW  Elec       q    Type
REMARK                         _______ _______ _______ _____ _____    ______ ____
ROOT
ATOM      1  O   UNL     1     -62.617 -68.951  40.079  0.00  0.00    +0.000 OA
ATOM      2  C   UNL     1     -62.669 -66.606  39.323  0.00  0.00    +0.000 A 
ATOM      3  C   UNL     1     -61.334 -66.433  39.946  0.00  0.00    +0.000 A 
ATOM      4  C   UNL     1     -63.165 -68.012  39.124  0.00  0.00    +0.000 C 
ATOM      5  C   UNL     1     -63.196 -65.376  38.793  0.00  0.00    +0.000 A 
ATOM      6  C   UNL     1     -60.607 -67.593  40.457  0.00  0.00    +0.000 A 
ATOM      7  C   UNL     1     -62.491 -64.010  38.887  0.00  0.00    +0.000 A 
ATOM      8  C   UNL     1     -60.878 -65.059  39.926  0.00  0.00    +0.000 A 
ATOM      9  C   UNL     1     -61.216 -63.856  39.528  0.00  0.00    +0.000 A 
ATOM     10  C   UNL     1     -61.314 -68.805  40.487  0.00  0.00    +0.000 A 
ATOM     11  C   UNL     1     -64.705 -68.046  39.326  0.00  0.00    +0.000 C 
ATOM     12  C   UNL     1     -62.798 -68.494  37.689  0.00  0.00    +0.000 C 
ATOM     13  C   UNL     1     -59.288 -67.579  40.927  0.00  0.00    +0.000 A 
ATOM     14  C   UNL     1     -60.724 -69.958  41.007  0.00  0.00    +0.000 A 
ATOM     15  C   UNL     1     -60.944 -62.664  40.389  0.00  0.00    +0.000 C 
ATOM     16  C   UNL     1     -59.414 -69.925  41.471  0.00  0.00    +0.000 A 
ATOM     17  C   UNL     1     -58.692 -68.738  41.429  0.00  0.00    +0.000 A 
ENDROOT
BRANCH  13  18
ATOM     18  O   UNL     1     -58.552 -66.428  40.897  0.00  0.00    +0.000 OA
ATOM     19  H   UNL     1     -57.889 -66.452  41.610  0.00  0.00    +0.000 HD
ENDBRANCH  13  18
BRANCH  16  20
ATOM     20  C   UNL     1     -58.808 -71.110  41.976  0.00  0.00    +0.000 C 
ATOM     21  C   UNL     1     -58.155 -72.380  42.533  0.00  0.00    +0.000 C 
BRANCH  21  22
ATOM     22  C   UNL     1     -57.505 -73.646  43.099  0.00  0.00    +0.000 C 
ATOM     23  C   UNL     1     -56.854 -74.910  43.670  0.00  0.00    +0.000 C 
ATOM     24  C   UNL     1     -56.204 -76.174  44.243  0.00  0.00    +0.000 C 
ENDBRANCH  21  22
ENDBRANCH  16  20
TORSDOF 3
ENDMDL
MODEL 5
REMARK VINA RESULT:      -6.1     24.776     28.752
REMARK  Name = Dronabinol.pdbqt.pdb
REMARK  3 active torsions:
REMARK  status: ('A' for Active; 'I' for Inactive)
REMARK    1  A    between atoms: C_13  and  O_18
REMARK    2  A    between atoms: C_16  and  C_20
REMARK    3  A    between atoms: C_21  and  C_22
REMARK                            x       y       z     vdW  Elec       q    Type
REMARK                         _______ _______ _______ _____ _____    ______ ____
ROOT
ATOM      1  O   UNL     1     -46.786 -38.111  48.822  0.00  0.00    +0.000 OA
ATOM      2  C   UNL     1     -47.969 -37.167  50.767  0.00  0.00    +0.000 A 
ATOM      3  C   UNL     1     -47.075 -37.974  51.634  0.00  0.00    +0.000 A 
ATOM      4  C   UNL     1     -47.578 -37.009  49.323  0.00  0.00    +0.000 C 
ATOM      5  C   UNL     1     -48.976 -36.461  51.515  0.00  0.00    +0.000 A 
ATOM      6  C   UNL     1     -45.939 -38.685  51.054  0.00  0.00    +0.000 A 
ATOM      7  C   UNL     1     -49.155 -36.551  53.043  0.00  0.00    +0.000 A 
ATOM      8  C   UNL     1     -47.443 -37.912  53.032  0.00  0.00    +0.000 A 
ATOM      9  C   UNL     1     -48.304 -37.369  53.859  0.00  0.00    +0.000 A 
ATOM     10  C   UNL     1     -45.867 -38.704  49.653  0.00  0.00    +0.000 A 
ATOM     11  C   UNL     1     -48.860 -36.970  48.446  0.00  0.00    +0.000 C 
ATOM     12  C   UNL     1     -46.764 -35.694  49.146  0.00  0.00    +0.000 C 
ATOM     13  C   UNL     1     -44.945 -39.353  51.781  0.00  0.00    +0.000 A 
ATOM     14  C   UNL     1     -44.848 -39.404  49.003  0.00  0.00    +0.000 A 
ATOM     15  C   UNL     1     -48.879 -38.161  54.990  0.00  0.00    +0.000 C 
ATOM     16  C   UNL     1     -43.871 -40.062  49.742  0.00  0.00    +0.000 A 
ATOM     17  C   UNL     1     -43.915 -40.036  51.131  0.00  0.00    +0.000 A 
ENDROOT
BRANCH  13  18
ATOM     18  O   UNL     1     -44.960 -39.343  53.147  0.00  0.00    +0.000 OA
ATOM     19  H   UNL     1     -44.384 -40.055  53.480  0.00  0.00    +0.000 HD
ENDBRANCH  13  18
BRANCH  16  20
ATOM     20  C   UNL     1     -42.819 -40.752  49.075  0.00  0.00    +0.000 C 
ATOM     21  C   UNL     1     -41.679 -41.495  48.369  0.00  0.00    +0.000 C 
BRANCH  21  22
ATOM     22  C   UNL     1     -40.537 -42.241  47.674  0.00  0.00    +0.000 C 
ATOM     23  C   UNL     1     -39.393 -42.989  46.982  0.00  0.00    +0.000 C 
ATOM     24  C   UNL     1     -38.250 -43.741  46.291  0.00  0.00    +0.000 C 
ENDBRANCH  21  22
ENDBRANCH  16  20
TORSDOF 3
ENDMDL
MODEL 6
REMARK VINA RESULT:      -6.1     25.039     27.448
REMARK  Name = Dronabinol.pdbqt.pdb
REMARK  3 active torsions:
REMARK  status: ('A' for Active; 'I' for Inactive)
REMARK    1  A    between atoms: C_13  and  O_18
REMARK    2  A    between atoms: C_16  and  C_20
REMARK    3  A    between atoms: C_21  and  C_22
REMARK                            x       y       z     vdW  Elec       q    Type
REMARK                         _______ _______ _______ _____ _____    ______ ____
ROOT
ATOM      1  O   UNL     1     -42.520 -41.044  50.883  0.00  0.00    +0.000 OA
ATOM      2  C   UNL     1     -44.609 -39.967  51.628  0.00  0.00    +0.000 A 
ATOM      3  C   UNL     1     -44.649 -39.268  50.320  0.00  0.00    +0.000 A 
ATOM      4  C   UNL     1     -43.666 -41.133  51.762  0.00  0.00    +0.000 C 
ATOM      5  C   UNL     1     -45.664 -39.549  52.513  0.00  0.00    +0.000 A 
ATOM      6  C   UNL     1     -43.707 -39.631  49.264  0.00  0.00    +0.000 A 
ATOM      7  C   UNL     1     -46.707 -38.466  52.179  0.00  0.00    +0.000 A 
ATOM      8  C   UNL     1     -45.709 -38.286  50.241  0.00  0.00    +0.000 A 
ATOM      9  C   UNL     1     -46.706 -37.773  50.923  0.00  0.00    +0.000 A 
ATOM     10  C   UNL     1     -42.683 -40.520  49.625  0.00  0.00    +0.000 A 
ATOM     11  C   UNL     1     -43.096 -41.167  53.207  0.00  0.00    +0.000 C 
ATOM     12  C   UNL     1     -44.428 -42.455  51.450  0.00  0.00    +0.000 C 
ATOM     13  C   UNL     1     -43.741 -39.152  47.949  0.00  0.00    +0.000 A 
ATOM     14  C   UNL     1     -41.702 -40.885  48.701  0.00  0.00    +0.000 A 
ATOM     15  C   UNL     1     -46.988 -36.304  50.872  0.00  0.00    +0.000 C 
ATOM     16  C   UNL     1     -41.752 -40.399  47.399  0.00  0.00    +0.000 A 
ATOM     17  C   UNL     1     -42.772 -39.534  47.019  0.00  0.00    +0.000 A 
ENDROOT
BRANCH  13  18
ATOM     18  O   UNL     1     -44.733 -38.304  47.544  0.00  0.00    +0.000 OA
ATOM     19  H   UNL     1     -45.364 -38.175  48.276  0.00  0.00    +0.000 HD
ENDBRANCH  13  18
BRANCH  16  20
ATOM     20  C   UNL     1     -40.765 -40.796  46.453  0.00  0.00    +0.000 C 
ATOM     21  C   UNL     1     -39.710 -41.234  45.431  0.00  0.00    +0.000 C 
BRANCH  21  22
ATOM     22  C   UNL     1     -38.663 -41.678  44.405  0.00  0.00    +0.000 C 
ATOM     23  C   UNL     1     -37.618 -42.119  43.375  0.00  0.00    +0.000 C 
ATOM     24  C   UNL     1     -36.571 -42.557  42.345  0.00  0.00    +0.000 C 
ENDBRANCH  21  22
ENDBRANCH  16  20
TORSDOF 3
ENDMDL
MODEL 7
REMARK VINA RESULT:      -5.9     22.293     25.375
REMARK  Name = Dronabinol.pdbqt.pdb
REMARK  3 active torsions:
REMARK  status: ('A' for Active; 'I' for Inactive)
REMARK    1  A    between atoms: C_13  and  O_18
REMARK    2  A    between atoms: C_16  and  C_20
REMARK    3  A    between atoms: C_21  and  C_22
REMARK                            x       y       z     vdW  Elec       q    Type
REMARK                         _______ _______ _______ _____ _____    ______ ____
ROOT
ATOM      1  O   UNL     1     -42.094 -74.149  64.407  0.00  0.00    +0.000 OA
ATOM      2  C   UNL     1     -44.087 -75.522  64.870  0.00  0.00    +0.000 A 
ATOM      3  C   UNL     1     -44.038 -75.973  63.458  0.00  0.00    +0.000 A 
ATOM      4  C   UNL     1     -42.871 -74.828  65.421  0.00  0.00    +0.000 C 
ATOM      5  C   UNL     1     -45.237 -76.029  65.574  0.00  0.00    +0.000 A 
ATOM      6  C   UNL     1     -42.893 -75.628  62.618  0.00  0.00    +0.000 A 
ATOM      7  C   UNL     1     -46.331 -76.908  64.940  0.00  0.00    +0.000 A 
ATOM      8  C   UNL     1     -45.179 -76.781  63.086  0.00  0.00    +0.000 A 
ATOM      9  C   UNL     1     -46.285 -77.302  63.561  0.00  0.00    +0.000 A 
ATOM     10  C   UNL     1     -41.973 -74.719  63.164  0.00  0.00    +0.000 A 
ATOM     11  C   UNL     1     -43.317 -73.731  66.426  0.00  0.00    +0.000 C 
ATOM     12  C   UNL     1     -41.956 -75.870  66.130  0.00  0.00    +0.000 C 
ATOM     13  C   UNL     1     -42.661 -76.115  61.326  0.00  0.00    +0.000 A 
ATOM     14  C   UNL     1     -40.875 -74.286  62.418  0.00  0.00    +0.000 A 
ATOM     15  C   UNL     1     -47.534 -77.317  62.739  0.00  0.00    +0.000 C 
ATOM     16  C   UNL     1     -40.662 -74.780  61.136  0.00  0.00    +0.000 A 
ATOM     17  C   UNL     1     -41.551 -75.697  60.588  0.00  0.00    +0.000 A 
ENDROOT
BRANCH  13  18
ATOM     18  O   UNL     1     -43.516 -77.019  60.761  0.00  0.00    +0.000 OA
ATOM     19  H   UNL     1     -44.269 -76.545  60.364  0.00  0.00    +0.000 HD
ENDBRANCH  13  18
BRANCH  16  20
ATOM     20  C   UNL     1     -39.526 -74.356  60.390  0.00  0.00    +0.000 C 
ATOM     21  C   UNL     1     -38.304 -73.911  59.579  0.00  0.00    +0.000 C 
BRANCH  21  22
ATOM     22  C   UNL     1     -37.085 -73.474  58.762  0.00  0.00    +0.000 C 
ATOM     23  C   UNL     1     -35.865 -73.041  57.942  0.00  0.00    +0.000 C 
ATOM     24  C   UNL     1     -34.647 -72.608  57.119  0.00  0.00    +0.000 C 
ENDBRANCH  21  22
ENDBRANCH  16  20
TORSDOF 3
ENDMDL
MODEL 8
REMARK VINA RESULT:      -5.9     25.642     29.540
REMARK  Name = Dronabinol.pdbqt.pdb
REMARK  3 active torsions:
REMARK  status: ('A' for Active; 'I' for Inactive)
REMARK    1  A    between atoms: C_13  and  O_18
REMARK    2  A    between atoms: C_16  and  C_20
REMARK    3  A    between atoms: C_21  and  C_22
REMARK                            x       y       z     vdW  Elec       q    Type
REMARK                         _______ _______ _______ _____ _____    ______ ____
ROOT
ATOM      1  O   UNL     1     -42.894 -37.095  53.078  0.00  0.00    +0.000 OA
ATOM      2  C   UNL     1     -45.175 -37.034  54.010  0.00  0.00    +0.000 A 
ATOM      3  C   UNL     1     -45.427 -38.330  53.333  0.00  0.00    +0.000 A 
ATOM      4  C   UNL     1     -43.745 -36.579  54.128  0.00  0.00    +0.000 C 
ATOM      5  C   UNL     1     -46.348 -36.511  54.658  0.00  0.00    +0.000 A 
ATOM      6  C   UNL     1     -44.326 -39.053  52.700  0.00  0.00    +0.000 A 
ATOM      7  C   UNL     1     -47.735 -37.181  54.631  0.00  0.00    +0.000 A 
ATOM      8  C   UNL     1     -46.806 -38.757  53.433  0.00  0.00    +0.000 A 
ATOM      9  C   UNL     1     -47.967 -38.416  53.938  0.00  0.00    +0.000 A 
ATOM     10  C   UNL     1     -43.103 -38.371  52.615  0.00  0.00    +0.000 A 
ATOM     11  C   UNL     1     -43.688 -35.032  54.004  0.00  0.00    +0.000 C 
ATOM     12  C   UNL     1     -43.168 -37.033  55.501  0.00  0.00    +0.000 C 
ATOM     13  C   UNL     1     -44.408 -40.344  52.163  0.00  0.00    +0.000 A 
ATOM     14  C   UNL     1     -42.006 -38.957  51.979  0.00  0.00    +0.000 A 
ATOM     15  C   UNL     1     -49.227 -38.616  53.155  0.00  0.00    +0.000 C 
ATOM     16  C   UNL     1     -42.106 -40.239  51.452  0.00  0.00    +0.000 A 
ATOM     17  C   UNL     1     -43.305 -40.937  51.545  0.00  0.00    +0.000 A 
ENDROOT
BRANCH  13  18
ATOM     18  O   UNL     1     -45.571 -41.056  52.242  0.00  0.00    +0.000 OA
ATOM     19  H   UNL     1     -46.301 -40.521  51.881  0.00  0.00    +0.000 HD
ENDBRANCH  13  18
BRANCH  16  20
ATOM     20  C   UNL     1     -40.978 -40.842  50.828  0.00  0.00    +0.000 C 
ATOM     21  C   UNL     1     -39.768 -41.504  50.158  0.00  0.00    +0.000 C 
BRANCH  21  22
ATOM     22  C   UNL     1     -38.565 -42.174  49.488  0.00  0.00    +0.000 C 
ATOM     23  C   UNL     1     -37.360 -42.846  48.822  0.00  0.00    +0.000 C 
ATOM     24  C   UNL     1     -36.155 -43.519  48.157  0.00  0.00    +0.000 C 
ENDBRANCH  21  22
ENDBRANCH  16  20
TORSDOF 3
ENDMDL
MODEL 9
REMARK VINA RESULT:      -5.7     25.773     29.712
REMARK  Name = Dronabinol.pdbqt.pdb
REMARK  3 active torsions:
REMARK  status: ('A' for Active; 'I' for Inactive)
REMARK    1  A    between atoms: C_13  and  O_18
REMARK    2  A    between atoms: C_16  and  C_20
REMARK    3  A    between atoms: C_21  and  C_22
REMARK                            x       y       z     vdW  Elec       q    Type
REMARK                         _______ _______ _______ _____ _____    ______ ____
ROOT
ATOM      1  O   UNL     1     -43.398 -74.921  66.767  0.00  0.00    +0.000 OA
ATOM      2  C   UNL     1     -43.700 -75.808  64.488  0.00  0.00    +0.000 A 
ATOM      3  C   UNL     1     -45.162 -75.796  64.736  0.00  0.00    +0.000 A 
ATOM      4  C   UNL     1     -42.827 -75.039  65.443  0.00  0.00    +0.000 C 
ATOM      5  C   UNL     1     -43.359 -76.385  63.214  0.00  0.00    +0.000 A 
ATOM      6  C   UNL     1     -45.696 -75.165  65.940  0.00  0.00    +0.000 A 
ATOM      7  C   UNL     1     -44.378 -76.971  62.219  0.00  0.00    +0.000 A 
ATOM      8  C   UNL     1     -45.919 -76.410  63.665  0.00  0.00    +0.000 A 
ATOM      9  C   UNL     1     -45.786 -76.985  62.494  0.00  0.00    +0.000 A 
ATOM     10  C   UNL     1     -44.755 -74.757  66.898  0.00  0.00    +0.000 A 
ATOM     11  C   UNL     1     -41.479 -75.790  65.623  0.00  0.00    +0.000 C 
ATOM     12  C   UNL     1     -42.578 -73.609  64.881  0.00  0.00    +0.000 C 
ATOM     13  C   UNL     1     -47.055 -74.960  66.212  0.00  0.00    +0.000 A 
ATOM     14  C   UNL     1     -45.169 -74.194  68.106  0.00  0.00    +0.000 A 
ATOM     15  C   UNL     1     -46.613 -78.178  62.133  0.00  0.00    +0.000 C 
ATOM     16  C   UNL     1     -46.523 -73.998  68.358  0.00  0.00    +0.000 A 
ATOM     17  C   UNL     1     -47.468 -74.377  67.413  0.00  0.00    +0.000 A 
ENDROOT
BRANCH  13  18
ATOM     18  O   UNL     1     -48.007 -75.319  65.301  0.00  0.00    +0.000 OA
ATOM     19  H   UNL     1     -48.890 -75.197  65.694  0.00  0.00    +0.000 HD
ENDBRANCH  13  18
BRANCH  16  20
ATOM     20  C   UNL     1     -46.939 -73.398  69.581  0.00  0.00    +0.000 C 
ATOM     21  C   UNL     1     -47.393 -72.764  70.901  0.00  0.00    +0.000 C 
BRANCH  21  22
ATOM     22  C   UNL     1     -47.848 -72.141  72.223  0.00  0.00    +0.000 C 
ATOM     23  C   UNL     1     -48.298 -71.519  73.549  0.00  0.00    +0.000 C 
ATOM     24  C   UNL     1     -48.747 -70.895  74.874  0.00  0.00    +0.000 C 
ENDBRANCH  21  22
ENDBRANCH  16  20
TORSDOF 3
ENDMDL
