MODEL 1
REMARK VINA RESULT:      -7.8      0.000      0.000
REMARK  Name = Ellipticine.pdbqt.pdb
REMARK  0 active torsions:
REMARK  status: ('A' for Active; 'I' for Inactive)
REMARK                            x       y       z     vdW  Elec       q    Type
REMARK                         _______ _______ _______ _____ _____    ______ ____
ROOT
ATOM      1  N   UNL     1     -45.581 -63.444  42.156  0.00  0.00    +0.000 N 
ATOM      2  N   UNL     1     -49.322 -59.679  45.770  0.00  0.00    +0.000 NA
ATOM      3  C   UNL     1     -47.225 -61.932  41.976  0.00  0.00    +0.000 A 
ATOM      4  C   UNL     1     -46.410 -62.615  42.884  0.00  0.00    +0.000 A 
ATOM      5  C   UNL     1     -48.174 -61.010  42.485  0.00  0.00    +0.000 A 
ATOM      6  C   UNL     1     -46.849 -62.387  40.663  0.00  0.00    +0.000 A 
ATOM      7  C   UNL     1     -46.490 -62.429  44.273  0.00  0.00    +0.000 A 
ATOM      8  C   UNL     1     -47.433 -61.512  44.776  0.00  0.00    +0.000 A 
ATOM      9  C   UNL     1     -48.269 -60.808  43.883  0.00  0.00    +0.000 A 
ATOM     10  C   UNL     1     -45.828 -63.323  40.813  0.00  0.00    +0.000 A 
ATOM     11  C   UNL     1     -49.073 -60.253  41.531  0.00  0.00    +0.000 C 
ATOM     12  C   UNL     1     -47.289 -62.084  39.359  0.00  0.00    +0.000 A 
ATOM     13  C   UNL     1     -45.560 -63.220  45.162  0.00  0.00    +0.000 C 
ATOM     14  C   UNL     1     -45.222 -63.973  39.732  0.00  0.00    +0.000 A 
ATOM     15  C   UNL     1     -47.570 -61.274  46.152  0.00  0.00    +0.000 A 
ATOM     16  C   UNL     1     -49.181 -59.917  44.448  0.00  0.00    +0.000 A 
ATOM     17  C   UNL     1     -46.697 -62.722  38.266  0.00  0.00    +0.000 A 
ATOM     18  C   UNL     1     -45.681 -63.650  38.454  0.00  0.00    +0.000 A 
ATOM     19  C   UNL     1     -48.512 -60.364  46.595  0.00  0.00    +0.000 A 
ATOM     20  H   UNL     1     -44.886 -64.055  42.569  0.00  0.00    +0.000 HD
ENDROOT
TORSDOF 0
ENDMDL
MODEL 2
REMARK VINA RESULT:      -7.0      2.110      6.398
REMARK  Name = Ellipticine.pdbqt.pdb
REMARK  0 active torsions:
REMARK  status: ('A' for Active; 'I' for Inactive)
REMARK                            x       y       z     vdW  Elec       q    Type
REMARK                         _______ _______ _______ _____ _____    ______ ____
ROOT
ATOM      1  N   UNL     1     -44.665 -63.949  42.716  0.00  0.00    +0.000 N 
ATOM      2  N   UNL     1     -45.290 -65.414  36.496  0.00  0.00    +0.000 NA
ATOM      3  C   UNL     1     -45.861 -63.391  40.906  0.00  0.00    +0.000 A 
ATOM      4  C   UNL     1     -44.841 -64.224  41.376  0.00  0.00    +0.000 A 
ATOM      5  C   UNL     1     -46.232 -63.485  39.540  0.00  0.00    +0.000 A 
ATOM      6  C   UNL     1     -46.293 -62.598  42.027  0.00  0.00    +0.000 A 
ATOM      7  C   UNL     1     -44.171 -65.147  40.558  0.00  0.00    +0.000 A 
ATOM      8  C   UNL     1     -44.542 -65.239  39.202  0.00  0.00    +0.000 A 
ATOM      9  C   UNL     1     -45.568 -64.410  38.700  0.00  0.00    +0.000 A 
ATOM     10  C   UNL     1     -45.531 -62.970  43.131  0.00  0.00    +0.000 A 
ATOM     11  C   UNL     1     -47.332 -62.598  38.998  0.00  0.00    +0.000 C 
ATOM     12  C   UNL     1     -47.268 -61.594  42.198  0.00  0.00    +0.000 A 
ATOM     13  C   UNL     1     -43.084 -65.998  41.171  0.00  0.00    +0.000 C 
ATOM     14  C   UNL     1     -45.688 -62.396  44.398  0.00  0.00    +0.000 A 
ATOM     15  C   UNL     1     -43.916 -66.138  38.326  0.00  0.00    +0.000 A 
ATOM     16  C   UNL     1     -45.884 -64.553  37.350  0.00  0.00    +0.000 A 
ATOM     17  C   UNL     1     -47.441 -61.008  43.454  0.00  0.00    +0.000 A 
ATOM     18  C   UNL     1     -46.662 -61.405  44.533  0.00  0.00    +0.000 A 
ATOM     19  C   UNL     1     -44.317 -66.190  37.003  0.00  0.00    +0.000 A 
ATOM     20  H   UNL     1     -43.984 -64.414  43.305  0.00  0.00    +0.000 HD
ENDROOT
TORSDOF 0
ENDMDL
MODEL 3
REMARK VINA RESULT:      -6.7     12.703     16.046
REMARK  Name = Ellipticine.pdbqt.pdb
REMARK  0 active torsions:
REMARK  status: ('A' for Active; 'I' for Inactive)
REMARK                            x       y       z     vdW  Elec       q    Type
REMARK                         _______ _______ _______ _____ _____    ______ ____
ROOT
ATOM      1  N   UNL     1     -47.606 -65.011  29.855  0.00  0.00    +0.000 N 
ATOM      2  N   UNL     1     -44.218 -64.949  24.401  0.00  0.00    +0.000 NA
ATOM      3  C   UNL     1     -46.666 -66.401  28.371  0.00  0.00    +0.000 A 
ATOM      4  C   UNL     1     -46.878 -65.055  28.684  0.00  0.00    +0.000 A 
ATOM      5  C   UNL     1     -45.933 -66.713  27.197  0.00  0.00    +0.000 A 
ATOM      6  C   UNL     1     -47.302 -67.170  29.409  0.00  0.00    +0.000 A 
ATOM      7  C   UNL     1     -46.397 -64.002  27.890  0.00  0.00    +0.000 A 
ATOM      8  C   UNL     1     -45.670 -64.314  26.725  0.00  0.00    +0.000 A 
ATOM      9  C   UNL     1     -45.441 -65.664  26.385  0.00  0.00    +0.000 A 
ATOM     10  C   UNL     1     -47.874 -66.276  30.312  0.00  0.00    +0.000 A 
ATOM     11  C   UNL     1     -45.686 -68.160  26.828  0.00  0.00    +0.000 C 
ATOM     12  C   UNL     1     -47.440 -68.549  29.661  0.00  0.00    +0.000 A 
ATOM     13  C   UNL     1     -46.684 -62.584  28.323  0.00  0.00    +0.000 C 
ATOM     14  C   UNL     1     -48.576 -66.683  31.451  0.00  0.00    +0.000 A 
ATOM     15  C   UNL     1     -45.160 -63.314  25.884  0.00  0.00    +0.000 A 
ATOM     16  C   UNL     1     -44.714 -65.902  25.219  0.00  0.00    +0.000 A 
ATOM     17  C   UNL     1     -48.138 -68.978  30.792  0.00  0.00    +0.000 A 
ATOM     18  C   UNL     1     -48.695 -68.056  31.670  0.00  0.00    +0.000 A 
ATOM     19  C   UNL     1     -44.452 -63.672  24.752  0.00  0.00    +0.000 A 
ATOM     20  H   UNL     1     -47.898 -64.152  30.308  0.00  0.00    +0.000 HD
ENDROOT
TORSDOF 0
ENDMDL
MODEL 4
REMARK VINA RESULT:      -6.6     20.999     22.829
REMARK  Name = Ellipticine.pdbqt.pdb
REMARK  0 active torsions:
REMARK  status: ('A' for Active; 'I' for Inactive)
REMARK                            x       y       z     vdW  Elec       q    Type
REMARK                         _______ _______ _______ _____ _____    ______ ____
ROOT
ATOM      1  N   UNL     1     -31.929 -46.465  52.681  0.00  0.00    +0.000 N 
ATOM      2  N   UNL     1     -31.685 -52.708  54.162  0.00  0.00    +0.000 NA
ATOM      3  C   UNL     1     -33.266 -48.235  52.996  0.00  0.00    +0.000 A 
ATOM      4  C   UNL     1     -31.934 -47.808  52.995  0.00  0.00    +0.000 A 
ATOM      5  C   UNL     1     -33.537 -49.595  53.295  0.00  0.00    +0.000 A 
ATOM      6  C   UNL     1     -34.066 -47.085  52.667  0.00  0.00    +0.000 A 
ATOM      7  C   UNL     1     -30.858 -48.664  53.276  0.00  0.00    +0.000 A 
ATOM      8  C   UNL     1     -31.130 -50.014  53.572  0.00  0.00    +0.000 A 
ATOM      9  C   UNL     1     -32.464 -50.472  53.580  0.00  0.00    +0.000 A 
ATOM     10  C   UNL     1     -33.205 -46.006  52.478  0.00  0.00    +0.000 A 
ATOM     11  C   UNL     1     -34.967 -50.091  53.304  0.00  0.00    +0.000 C 
ATOM     12  C   UNL     1     -35.450 -46.867  52.513  0.00  0.00    +0.000 A 
ATOM     13  C   UNL     1     -29.458 -48.096  53.247  0.00  0.00    +0.000 C 
ATOM     14  C   UNL     1     -33.649 -44.722  52.144  0.00  0.00    +0.000 A 
ATOM     15  C   UNL     1     -30.104 -50.927  53.862  0.00  0.00    +0.000 A 
ATOM     16  C   UNL     1     -32.662 -51.820  53.881  0.00  0.00    +0.000 A 
ATOM     17  C   UNL     1     -35.915 -45.593  52.180  0.00  0.00    +0.000 A 
ATOM     18  C   UNL     1     -35.026 -44.540  51.999  0.00  0.00    +0.000 A 
ATOM     19  C   UNL     1     -30.424 -52.241  54.146  0.00  0.00    +0.000 A 
ATOM     20  H   UNL     1     -31.089 -45.902  52.612  0.00  0.00    +0.000 HD
ENDROOT
TORSDOF 0
ENDMDL
MODEL 5
REMARK VINA RESULT:      -6.6     12.818     16.041
REMARK  Name = Ellipticine.pdbqt.pdb
REMARK  0 active torsions:
REMARK  status: ('A' for Active; 'I' for Inactive)
REMARK                            x       y       z     vdW  Elec       q    Type
REMARK                         _______ _______ _______ _____ _____    ______ ____
ROOT
ATOM      1  N   UNL     1     -46.823 -68.169  28.241  0.00  0.00    +0.000 N 
ATOM      2  N   UNL     1     -44.851 -62.778  25.363  0.00  0.00    +0.000 NA
ATOM      3  C   UNL     1     -46.724 -65.955  28.568  0.00  0.00    +0.000 A 
ATOM      4  C   UNL     1     -46.417 -66.981  27.668  0.00  0.00    +0.000 A 
ATOM      5  C   UNL     1     -46.400 -64.622  28.205  0.00  0.00    +0.000 A 
ATOM      6  C   UNL     1     -47.334 -66.580  29.712  0.00  0.00    +0.000 A 
ATOM      7  C   UNL     1     -45.806 -66.750  26.426  0.00  0.00    +0.000 A 
ATOM      8  C   UNL     1     -45.486 -65.427  26.068  0.00  0.00    +0.000 A 
ATOM      9  C   UNL     1     -45.784 -64.371  26.956  0.00  0.00    +0.000 A 
ATOM     10  C   UNL     1     -47.380 -67.951  29.475  0.00  0.00    +0.000 A 
ATOM     11  C   UNL     1     -46.718 -63.487  29.154  0.00  0.00    +0.000 C 
ATOM     12  C   UNL     1     -47.853 -66.097  30.930  0.00  0.00    +0.000 A 
ATOM     13  C   UNL     1     -45.520 -67.934  25.533  0.00  0.00    +0.000 C 
ATOM     14  C   UNL     1     -47.914 -68.868  30.387  0.00  0.00    +0.000 A 
ATOM     15  C   UNL     1     -44.873 -65.121  24.843  0.00  0.00    +0.000 A 
ATOM     16  C   UNL     1     -45.440 -63.086  26.539  0.00  0.00    +0.000 A 
ATOM     17  C   UNL     1     -48.392 -66.995  31.855  0.00  0.00    +0.000 A 
ATOM     18  C   UNL     1     -48.420 -68.357  31.583  0.00  0.00    +0.000 A 
ATOM     19  C   UNL     1     -44.580 -63.805  24.539  0.00  0.00    +0.000 A 
ATOM     20  H   UNL     1     -46.718 -69.075  27.799  0.00  0.00    +0.000 HD
ENDROOT
TORSDOF 0
ENDMDL
MODEL 6
REMARK VINA RESULT:      -6.6     27.660     29.068
REMARK  Name = Ellipticine.pdbqt.pdb
REMARK  0 active torsions:
REMARK  status: ('A' for Active; 'I' for Inactive)
REMARK                            x       y       z     vdW  Elec       q    Type
REMARK                         _______ _______ _______ _____ _____    ______ ____
ROOT
ATOM      1  N   UNL     1     -65.502 -43.369  53.609  0.00  0.00    +0.000 N 
ATOM      2  N   UNL     1     -62.459 -39.499  57.732  0.00  0.00    +0.000 NA
ATOM      3  C   UNL     1     -64.229 -41.526  53.654  0.00  0.00    +0.000 A 
ATOM      4  C   UNL     1     -64.831 -42.506  54.450  0.00  0.00    +0.000 A 
ATOM      5  C   UNL     1     -63.471 -40.511  54.292  0.00  0.00    +0.000 A 
ATOM      6  C   UNL     1     -64.569 -41.839  52.291  0.00  0.00    +0.000 A 
ATOM      7  C   UNL     1     -64.718 -42.528  55.849  0.00  0.00    +0.000 A 
ATOM      8  C   UNL     1     -63.966 -41.520  56.480  0.00  0.00    +0.000 A 
ATOM      9  C   UNL     1     -63.347 -40.518  55.702  0.00  0.00    +0.000 A 
ATOM     10  C   UNL     1     -65.358 -42.986  52.300  0.00  0.00    +0.000 A 
ATOM     11  C   UNL     1     -62.806 -39.436  53.461  0.00  0.00    +0.000 C 
ATOM     12  C   UNL     1     -64.273 -41.245  51.047  0.00  0.00    +0.000 A 
ATOM     13  C   UNL     1     -65.410 -43.634  56.610  0.00  0.00    +0.000 C 
ATOM     14  C   UNL     1     -65.869 -43.573  51.138  0.00  0.00    +0.000 A 
ATOM     15  C   UNL     1     -63.810 -41.478  57.874  0.00  0.00    +0.000 A 
ATOM     16  C   UNL     1     -62.617 -39.550  56.391  0.00  0.00    +0.000 A 
ATOM     17  C   UNL     1     -64.773 -41.814  49.874  0.00  0.00    +0.000 A 
ATOM     18  C   UNL     1     -65.557 -42.960  49.923  0.00  0.00    +0.000 A 
ATOM     19  C   UNL     1     -63.060 -40.467  58.446  0.00  0.00    +0.000 A 
ATOM     20  H   UNL     1     -66.028 -44.175  53.927  0.00  0.00    +0.000 HD
ENDROOT
TORSDOF 0
ENDMDL
MODEL 7
REMARK VINA RESULT:      -6.5     21.365     23.537
REMARK  Name = Ellipticine.pdbqt.pdb
REMARK  0 active torsions:
REMARK  status: ('A' for Active; 'I' for Inactive)
REMARK                            x       y       z     vdW  Elec       q    Type
REMARK                         _______ _______ _______ _____ _____    ______ ____
ROOT
ATOM      1  N   UNL     1     -56.403 -41.501  37.595  0.00  0.00    +0.000 N 
ATOM      2  N   UNL     1     -55.458 -41.771  31.250  0.00  0.00    +0.000 NA
ATOM      3  C   UNL     1     -54.771 -41.781  36.087  0.00  0.00    +0.000 A 
ATOM      4  C   UNL     1     -56.144 -41.567  36.242  0.00  0.00    +0.000 A 
ATOM      5  C   UNL     1     -54.250 -41.887  34.772  0.00  0.00    +0.000 A 
ATOM      6  C   UNL     1     -54.212 -41.840  37.412  0.00  0.00    +0.000 A 
ATOM      7  C   UNL     1     -57.027 -41.454  35.156  0.00  0.00    +0.000 A 
ATOM      8  C   UNL     1     -56.507 -41.559  33.852  0.00  0.00    +0.000 A 
ATOM      9  C   UNL     1     -55.125 -41.775  33.665  0.00  0.00    +0.000 A 
ATOM     10  C   UNL     1     -55.252 -41.663  38.321  0.00  0.00    +0.000 A 
ATOM     11  C   UNL     1     -52.768 -42.118  34.567  0.00  0.00    +0.000 C 
ATOM     12  C   UNL     1     -52.910 -42.030  37.917  0.00  0.00    +0.000 A 
ATOM     13  C   UNL     1     -58.493 -41.223  35.440  0.00  0.00    +0.000 C 
ATOM     14  C   UNL     1     -55.064 -41.664  39.708  0.00  0.00    +0.000 A 
ATOM     15  C   UNL     1     -57.329 -41.455  32.720  0.00  0.00    +0.000 A 
ATOM     16  C   UNL     1     -54.678 -41.869  32.348  0.00  0.00    +0.000 A 
ATOM     17  C   UNL     1     -52.700 -42.035  39.299  0.00  0.00    +0.000 A 
ATOM     18  C   UNL     1     -53.763 -41.855  40.176  0.00  0.00    +0.000 A 
ATOM     19  C   UNL     1     -56.770 -41.566  31.460  0.00  0.00    +0.000 A 
ATOM     20  H   UNL     1     -57.326 -41.352  37.989  0.00  0.00    +0.000 HD
ENDROOT
TORSDOF 0
ENDMDL
MODEL 8
REMARK VINA RESULT:      -6.5     23.025     25.307
REMARK  Name = Ellipticine.pdbqt.pdb
REMARK  0 active torsions:
REMARK  status: ('A' for Active; 'I' for Inactive)
REMARK                            x       y       z     vdW  Elec       q    Type
REMARK                         _______ _______ _______ _____ _____    ______ ____
ROOT
ATOM      1  N   UNL     1     -61.671 -69.683  26.345  0.00  0.00    +0.000 N 
ATOM      2  N   UNL     1     -67.350 -72.678  26.388  0.00  0.00    +0.000 NA
ATOM      3  C   UNL     1     -62.814 -71.265  25.248  0.00  0.00    +0.000 A 
ATOM      4  C   UNL     1     -62.874 -70.357  26.309  0.00  0.00    +0.000 A 
ATOM      5  C   UNL     1     -63.944 -72.087  25.001  0.00  0.00    +0.000 A 
ATOM      6  C   UNL     1     -61.517 -71.108  24.643  0.00  0.00    +0.000 A 
ATOM      7  C   UNL     1     -63.998 -70.224  27.138  0.00  0.00    +0.000 A 
ATOM      8  C   UNL     1     -65.118 -71.040  26.891  0.00  0.00    +0.000 A 
ATOM      9  C   UNL     1     -65.086 -71.966  25.826  0.00  0.00    +0.000 A 
ATOM     10  C   UNL     1     -60.836 -70.119  25.349  0.00  0.00    +0.000 A 
ATOM     11  C   UNL     1     -63.914 -73.081  23.860  0.00  0.00    +0.000 C 
ATOM     12  C   UNL     1     -60.863 -71.721  23.556  0.00  0.00    +0.000 A 
ATOM     13  C   UNL     1     -63.953 -69.209  28.257  0.00  0.00    +0.000 C 
ATOM     14  C   UNL     1     -59.537 -69.708  25.029  0.00  0.00    +0.000 A 
ATOM     15  C   UNL     1     -66.277 -70.962  27.678  0.00  0.00    +0.000 A 
ATOM     16  C   UNL     1     -66.229 -72.744  25.638  0.00  0.00    +0.000 A 
ATOM     17  C   UNL     1     -59.566 -71.326  23.220  0.00  0.00    +0.000 A 
ATOM     18  C   UNL     1     -58.918 -70.336  23.947  0.00  0.00    +0.000 A 
ATOM     19  C   UNL     1     -67.350 -71.787  27.394  0.00  0.00    +0.000 A 
ATOM     20  H   UNL     1     -61.445 -68.962  27.022  0.00  0.00    +0.000 HD
ENDROOT
TORSDOF 0
ENDMDL
MODEL 9
REMARK VINA RESULT:      -6.5     20.573     22.201
REMARK  Name = Ellipticine.pdbqt.pdb
REMARK  0 active torsions:
REMARK  status: ('A' for Active; 'I' for Inactive)
REMARK                            x       y       z     vdW  Elec       q    Type
REMARK                         _______ _______ _______ _____ _____    ______ ____
ROOT
ATOM      1  N   UNL     1     -53.535 -41.434  40.627  0.00  0.00    +0.000 N 
ATOM      2  N   UNL     1     -55.283 -41.699  34.454  0.00  0.00    +0.000 NA
ATOM      3  C   UNL     1     -52.666 -41.702  38.580  0.00  0.00    +0.000 A 
ATOM      4  C   UNL     1     -53.855 -41.499  39.287  0.00  0.00    +0.000 A 
ATOM      5  C   UNL     1     -52.732 -41.805  37.166  0.00  0.00    +0.000 A 
ATOM      6  C   UNL     1     -51.611 -41.757  39.557  0.00  0.00    +0.000 A 
ATOM      7  C   UNL     1     -55.107 -41.392  38.660  0.00  0.00    +0.000 A 
ATOM      8  C   UNL     1     -55.170 -41.494  37.258  0.00  0.00    +0.000 A 
ATOM      9  C   UNL     1     -53.985 -41.699  36.518  0.00  0.00    +0.000 A 
ATOM     10  C   UNL     1     -52.186 -41.587  40.815  0.00  0.00    +0.000 A 
ATOM     11  C   UNL     1     -51.464 -42.025  36.370  0.00  0.00    +0.000 C 
ATOM     12  C   UNL     1     -50.215 -41.937  39.482  0.00  0.00    +0.000 A 
ATOM     13  C   UNL     1     -56.328 -41.173  39.523  0.00  0.00    +0.000 C 
ATOM     14  C   UNL     1     -51.444 -41.587  42.001  0.00  0.00    +0.000 A 
ATOM     15  C   UNL     1     -56.386 -41.397  36.564  0.00  0.00    +0.000 A 
ATOM     16  C   UNL     1     -54.119 -41.791  35.133  0.00  0.00    +0.000 A 
ATOM     17  C   UNL     1     -49.456 -41.940  40.654  0.00  0.00    +0.000 A 
ATOM     18  C   UNL     1     -50.064 -41.767  41.891  0.00  0.00    +0.000 A 
ATOM     19  C   UNL     1     -56.393 -41.504  35.186  0.00  0.00    +0.000 A 
ATOM     20  H   UNL     1     -54.215 -41.292  41.365  0.00  0.00    +0.000 HD
ENDROOT
TORSDOF 0
ENDMDL
