REMARK  Name = Ellipticine.pdbqt.pdb
REMARK  0 active torsions:
REMARK  status: ('A' for Active; 'I' for Inactive)
REMARK                            x       y       z     vdW  Elec       q    Type
REMARK                         _______ _______ _______ _____ _____    ______ ____
ROOT
ATOM      1  N   UNL     1      -1.440   1.725   0.000  0.00  0.00    +0.000 N 
ATOM      2  N   UNL     1       4.269  -1.214   0.000  0.00  0.00    +0.000 NA
ATOM      3  C   UNL     1      -0.535  -0.324   0.000  0.00  0.00    +0.000 A 
ATOM      4  C   UNL     1      -0.241   1.043   0.000  0.00  0.00    +0.000 A 
ATOM      5  C   UNL     1       0.544  -1.245   0.000  0.00  0.00    +0.000 A 
ATOM      6  C   UNL     1      -1.970  -0.436   0.000  0.00  0.00    +0.000 A 
ATOM      7  C   UNL     1       1.071   1.542   0.000  0.00  0.00    +0.000 A 
ATOM      8  C   UNL     1       2.140   0.626   0.000  0.00  0.00    +0.000 A 
ATOM      9  C   UNL     1       1.873  -0.760   0.000  0.00  0.00    +0.000 A 
ATOM     10  C   UNL     1      -2.498   0.853   0.000  0.00  0.00    +0.000 A 
ATOM     11  C   UNL     1       0.262  -2.732   0.000  0.00  0.00    +0.000 C 
ATOM     12  C   UNL     1      -2.867  -1.523   0.000  0.00  0.00    +0.000 A 
ATOM     13  C   UNL     1       1.273   3.039   0.000  0.00  0.00    +0.000 C 
ATOM     14  C   UNL     1      -3.872   1.117   0.000  0.00  0.00    +0.000 A 
ATOM     15  C   UNL     1       3.477   1.052   0.000  0.00  0.00    +0.000 A 
ATOM     16  C   UNL     1       2.978  -1.611   0.000  0.00  0.00    +0.000 A 
ATOM     17  C   UNL     1      -4.243  -1.282   0.000  0.00  0.00    +0.000 A 
ATOM     18  C   UNL     1      -4.733   0.018   0.000  0.00  0.00    +0.000 A 
ATOM     19  C   UNL     1       4.491   0.112   0.000  0.00  0.00    +0.000 A 
ATOM     20  H   UNL     1      -1.517   2.736   0.000  0.00  0.00    +0.000 HD
ENDROOT
TORSDOF 0
