MODEL 1
REMARK VINA RESULT:      -8.0      0.000      0.000
REMARK  Name = Enterolactone.pdbqt.pdb
REMARK  2 active torsions:
REMARK  status: ('A' for Active; 'I' for Inactive)
REMARK    1  A    between atoms: C_10  and  O_14
REMARK    2  A    between atoms: C_19  and  O_23
REMARK                            x       y       z     vdW  Elec       q    Type
REMARK                         _______ _______ _______ _____ _____    ______ ____
ROOT
ATOM      1  O   UNL     1     -47.872 -62.029  46.307  0.00  0.00    +0.000 OA
ATOM      2  O   UNL     1     -46.121 -63.510  45.888  0.00  0.00    +0.000 OA
ATOM      3  C   UNL     1     -47.855 -60.824  44.266  0.00  0.00    +0.000 C 
ATOM      4  C   UNL     1     -46.828 -61.838  44.239  0.00  0.00    +0.000 C 
ATOM      5  C   UNL     1     -48.376 -61.080  45.535  0.00  0.00    +0.000 C 
ATOM      6  C   UNL     1     -46.847 -62.591  45.556  0.00  0.00    +0.000 C 
ATOM      7  C   UNL     1     -48.444 -60.207  43.146  0.00  0.00    +0.000 C 
ATOM      8  C   UNL     1     -49.024 -59.588  42.001  0.00  0.00    +0.000 C 
ATOM      9  C   UNL     1     -49.139 -60.303  40.811  0.00  0.00    +0.000 C 
ATOM     10  C   UNL     1     -49.697 -59.683  39.697  0.00  0.00    +0.000 C 
ATOM     11  C   UNL     1     -50.138 -58.365  39.758  0.00  0.00    +0.000 C 
ATOM     12  C   UNL     1     -50.020 -57.656  40.951  0.00  0.00    +0.000 C 
ATOM     13  C   UNL     1     -49.463 -58.267  42.073  0.00  0.00    +0.000 C 
ATOM     14  C   UNL     1     -45.995 -62.141  43.139  0.00  0.00    +0.000 C 
ATOM     15  C   UNL     1     -45.162 -62.445  42.023  0.00  0.00    +0.000 C 
ATOM     16  C   UNL     1     -44.673 -61.416  41.224  0.00  0.00    +0.000 C 
ATOM     17  C   UNL     1     -43.870 -61.727  40.131  0.00  0.00    +0.000 C 
ATOM     18  C   UNL     1     -43.553 -63.047  39.828  0.00  0.00    +0.000 C 
ATOM     19  C   UNL     1     -44.046 -64.072  40.632  0.00  0.00    +0.000 C 
ATOM     20  C   UNL     1     -44.851 -63.772  41.730  0.00  0.00    +0.000 C 
ENDROOT
BRANCH  10  21
ATOM     21  O   UNL     1     -49.825 -60.355  38.516  0.00  0.00    +0.000 OA
ATOM     22  H   UNL     1     -49.948 -61.300  38.709  0.00  0.00    +0.000 HD
ENDBRANCH  10  21
BRANCH  17  23
ATOM     23  O   UNL     1     -43.374 -60.742  39.326  0.00  0.00    +0.000 OA
ATOM     24  H   UNL     1     -43.836 -60.781  38.470  0.00  0.00    +0.000 HD
ENDBRANCH  17  23
TORSDOF 2
ENDMDL
MODEL 2
REMARK VINA RESULT:      -6.9     21.872     22.626
REMARK  Name = Enterolactone.pdbqt.pdb
REMARK  2 active torsions:
REMARK  status: ('A' for Active; 'I' for Inactive)
REMARK    1  A    between atoms: C_10  and  O_14
REMARK    2  A    between atoms: C_19  and  O_23
REMARK                            x       y       z     vdW  Elec       q    Type
REMARK                         _______ _______ _______ _____ _____    ______ ____
ROOT
ATOM      1  O   UNL     1     -34.189 -50.745  53.530  0.00  0.00    +0.000 OA
ATOM      2  O   UNL     1     -31.864 -50.902  53.599  0.00  0.00    +0.000 OA
ATOM      3  C   UNL     1     -34.407 -48.430  53.070  0.00  0.00    +0.000 C 
ATOM      4  C   UNL     1     -33.008 -48.779  53.151  0.00  0.00    +0.000 C 
ATOM      5  C   UNL     1     -34.957 -49.691  53.302  0.00  0.00    +0.000 C 
ATOM      6  C   UNL     1     -32.889 -50.260  53.456  0.00  0.00    +0.000 C 
ATOM      7  C   UNL     1     -34.946 -47.307  52.414  0.00  0.00    +0.000 C 
ATOM      8  C   UNL     1     -35.474 -46.160  51.753  0.00  0.00    +0.000 C 
ATOM      9  C   UNL     1     -34.824 -45.645  50.634  0.00  0.00    +0.000 C 
ATOM     10  C   UNL     1     -35.344 -44.519  50.004  0.00  0.00    +0.000 C 
ATOM     11  C   UNL     1     -36.499 -43.905  50.476  0.00  0.00    +0.000 C 
ATOM     12  C   UNL     1     -37.145 -44.424  51.596  0.00  0.00    +0.000 C 
ATOM     13  C   UNL     1     -36.633 -45.552  52.235  0.00  0.00    +0.000 C 
ATOM     14  C   UNL     1     -31.924 -47.908  52.904  0.00  0.00    +0.000 C 
ATOM     15  C   UNL     1     -30.835 -47.024  52.648  0.00  0.00    +0.000 C 
ATOM     16  C   UNL     1     -30.901 -45.702  53.077  0.00  0.00    +0.000 C 
ATOM     17  C   UNL     1     -29.836 -44.846  52.811  0.00  0.00    +0.000 C 
ATOM     18  C   UNL     1     -28.713 -45.295  52.125  0.00  0.00    +0.000 C 
ATOM     19  C   UNL     1     -28.652 -46.620  51.700  0.00  0.00    +0.000 C 
ATOM     20  C   UNL     1     -29.714 -47.486  51.961  0.00  0.00    +0.000 C 
ENDROOT
BRANCH  10  21
ATOM     21  O   UNL     1     -34.732 -43.989  48.906  0.00  0.00    +0.000 OA
ATOM     22  H   UNL     1     -33.877 -43.613  49.179  0.00  0.00    +0.000 HD
ENDBRANCH  10  21
BRANCH  17  23
ATOM     23  O   UNL     1     -29.869 -43.544  53.215  0.00  0.00    +0.000 OA
ATOM     24  H   UNL     1     -30.624 -43.105  52.783  0.00  0.00    +0.000 HD
ENDBRANCH  17  23
TORSDOF 2
ENDMDL
MODEL 3
REMARK VINA RESULT:      -6.8      5.016      7.720
REMARK  Name = Enterolactone.pdbqt.pdb
REMARK  2 active torsions:
REMARK  status: ('A' for Active; 'I' for Inactive)
REMARK    1  A    between atoms: C_10  and  O_14
REMARK    2  A    between atoms: C_19  and  O_23
REMARK                            x       y       z     vdW  Elec       q    Type
REMARK                         _______ _______ _______ _____ _____    ______ ____
ROOT
ATOM      1  O   UNL     1     -42.393 -63.625  38.995  0.00  0.00    +0.000 OA
ATOM      2  O   UNL     1     -44.573 -64.406  39.265  0.00  0.00    +0.000 OA
ATOM      3  C   UNL     1     -42.813 -61.808  37.532  0.00  0.00    +0.000 C 
ATOM      4  C   UNL     1     -44.056 -62.463  37.860  0.00  0.00    +0.000 C 
ATOM      5  C   UNL     1     -41.947 -62.601  38.285  0.00  0.00    +0.000 C 
ATOM      6  C   UNL     1     -43.768 -63.628  38.788  0.00  0.00    +0.000 C 
ATOM      7  C   UNL     1     -42.667 -60.487  37.067  0.00  0.00    +0.000 C 
ATOM      8  C   UNL     1     -42.538 -59.151  36.589  0.00  0.00    +0.000 C 
ATOM      9  C   UNL     1     -43.458 -58.182  36.986  0.00  0.00    +0.000 C 
ATOM     10  C   UNL     1     -43.327 -56.883  36.504  0.00  0.00    +0.000 C 
ATOM     11  C   UNL     1     -42.295 -56.543  35.636  0.00  0.00    +0.000 C 
ATOM     12  C   UNL     1     -41.379 -57.516  35.243  0.00  0.00    +0.000 C 
ATOM     13  C   UNL     1     -41.501 -58.820  35.720  0.00  0.00    +0.000 C 
ATOM     14  C   UNL     1     -45.344 -62.043  37.457  0.00  0.00    +0.000 C 
ATOM     15  C   UNL     1     -46.639 -61.609  37.050  0.00  0.00    +0.000 C 
ATOM     16  C   UNL     1     -46.828 -61.100  35.768  0.00  0.00    +0.000 C 
ATOM     17  C   UNL     1     -48.096 -60.670  35.388  0.00  0.00    +0.000 C 
ATOM     18  C   UNL     1     -49.170 -60.742  36.268  0.00  0.00    +0.000 C 
ATOM     19  C   UNL     1     -48.974 -61.254  37.549  0.00  0.00    +0.000 C 
ATOM     20  C   UNL     1     -47.708 -61.687  37.942  0.00  0.00    +0.000 C 
ENDROOT
BRANCH  10  21
ATOM     21  O   UNL     1     -44.211 -55.911  36.873  0.00  0.00    +0.000 OA
ATOM     22  H   UNL     1     -43.943 -55.074  36.455  0.00  0.00    +0.000 HD
ENDBRANCH  10  21
BRANCH  17  23
ATOM     23  O   UNL     1     -48.315 -60.165  34.140  0.00  0.00    +0.000 OA
ATOM     24  H   UNL     1     -49.214 -59.792  34.111  0.00  0.00    +0.000 HD
ENDBRANCH  17  23
TORSDOF 2
ENDMDL
MODEL 4
REMARK VINA RESULT:      -6.8      5.852      8.123
REMARK  Name = Enterolactone.pdbqt.pdb
REMARK  2 active torsions:
REMARK  status: ('A' for Active; 'I' for Inactive)
REMARK    1  A    between atoms: C_10  and  O_14
REMARK    2  A    between atoms: C_19  and  O_23
REMARK                            x       y       z     vdW  Elec       q    Type
REMARK                         _______ _______ _______ _____ _____    ______ ____
ROOT
ATOM      1  O   UNL     1     -40.891 -62.489  37.107  0.00  0.00    +0.000 OA
ATOM      2  O   UNL     1     -39.599 -60.681  36.402  0.00  0.00    +0.000 OA
ATOM      3  C   UNL     1     -42.995 -61.413  37.285  0.00  0.00    +0.000 C 
ATOM      4  C   UNL     1     -42.002 -60.465  36.840  0.00  0.00    +0.000 C 
ATOM      5  C   UNL     1     -42.185 -62.544  37.381  0.00  0.00    +0.000 C 
ATOM      6  C   UNL     1     -40.661 -61.168  36.741  0.00  0.00    +0.000 C 
ATOM      7  C   UNL     1     -44.388 -61.301  37.110  0.00  0.00    +0.000 C 
ATOM      8  C   UNL     1     -45.795 -61.168  36.932  0.00  0.00    +0.000 C 
ATOM      9  C   UNL     1     -46.292 -60.499  35.816  0.00  0.00    +0.000 C 
ATOM     10  C   UNL     1     -47.668 -60.367  35.659  0.00  0.00    +0.000 C 
ATOM     11  C   UNL     1     -48.549 -60.892  36.599  0.00  0.00    +0.000 C 
ATOM     12  C   UNL     1     -48.046 -61.560  37.713  0.00  0.00    +0.000 C 
ATOM     13  C   UNL     1     -46.669 -61.698  37.880  0.00  0.00    +0.000 C 
ATOM     14  C   UNL     1     -42.247 -59.123  36.472  0.00  0.00    +0.000 C 
ATOM     15  C   UNL     1     -42.503 -57.772  36.097  0.00  0.00    +0.000 C 
ATOM     16  C   UNL     1     -43.424 -57.016  36.817  0.00  0.00    +0.000 C 
ATOM     17  C   UNL     1     -43.673 -55.702  36.434  0.00  0.00    +0.000 C 
ATOM     18  C   UNL     1     -43.017 -55.137  35.346  0.00  0.00    +0.000 C 
ATOM     19  C   UNL     1     -42.096 -55.899  34.630  0.00  0.00    +0.000 C 
ATOM     20  C   UNL     1     -41.838 -57.217  35.004  0.00  0.00    +0.000 C 
ENDROOT
BRANCH  10  21
ATOM     21  O   UNL     1     -48.187 -59.717  34.577  0.00  0.00    +0.000 OA
ATOM     22  H   UNL     1     -48.922 -60.247  34.220  0.00  0.00    +0.000 HD
ENDBRANCH  10  21
BRANCH  17  23
ATOM     23  O   UNL     1     -44.571 -54.934  37.117  0.00  0.00    +0.000 OA
ATOM     24  H   UNL     1     -45.285 -55.511  37.444  0.00  0.00    +0.000 HD
ENDBRANCH  17  23
TORSDOF 2
ENDMDL
MODEL 5
REMARK VINA RESULT:      -6.6      2.988      4.339
REMARK  Name = Enterolactone.pdbqt.pdb
REMARK  2 active torsions:
REMARK  status: ('A' for Active; 'I' for Inactive)
REMARK    1  A    between atoms: C_10  and  O_14
REMARK    2  A    between atoms: C_19  and  O_23
REMARK                            x       y       z     vdW  Elec       q    Type
REMARK                         _______ _______ _______ _____ _____    ______ ____
ROOT
ATOM      1  O   UNL     1     -45.916 -63.058  42.527  0.00  0.00    +0.000 OA
ATOM      2  O   UNL     1     -45.399 -64.037  40.475  0.00  0.00    +0.000 OA
ATOM      3  C   UNL     1     -47.389 -61.357  41.783  0.00  0.00    +0.000 C 
ATOM      4  C   UNL     1     -46.929 -62.128  40.653  0.00  0.00    +0.000 C 
ATOM      5  C   UNL     1     -46.714 -62.037  42.797  0.00  0.00    +0.000 C 
ATOM      6  C   UNL     1     -45.981 -63.205  41.147  0.00  0.00    +0.000 C 
ATOM      7  C   UNL     1     -48.555 -60.570  41.834  0.00  0.00    +0.000 C 
ATOM      8  C   UNL     1     -49.735 -59.772  41.864  0.00  0.00    +0.000 C 
ATOM      9  C   UNL     1     -50.841 -60.142  41.102  0.00  0.00    +0.000 C 
ATOM     10  C   UNL     1     -51.984 -59.348  41.133  0.00  0.00    +0.000 C 
ATOM     11  C   UNL     1     -52.034 -58.197  41.911  0.00  0.00    +0.000 C 
ATOM     12  C   UNL     1     -50.925 -57.832  42.670  0.00  0.00    +0.000 C 
ATOM     13  C   UNL     1     -49.775 -58.620  42.647  0.00  0.00    +0.000 C 
ATOM     14  C   UNL     1     -47.354 -61.968  39.316  0.00  0.00    +0.000 C 
ATOM     15  C   UNL     1     -47.792 -61.803  37.969  0.00  0.00    +0.000 C 
ATOM     16  C   UNL     1     -48.016 -60.525  37.465  0.00  0.00    +0.000 C 
ATOM     17  C   UNL     1     -48.454 -60.379  36.152  0.00  0.00    +0.000 C 
ATOM     18  C   UNL     1     -48.670 -61.489  35.343  0.00  0.00    +0.000 C 
ATOM     19  C   UNL     1     -48.443 -62.765  35.853  0.00  0.00    +0.000 C 
ATOM     20  C   UNL     1     -48.005 -62.924  37.167  0.00  0.00    +0.000 C 
ENDROOT
BRANCH  10  21
ATOM     21  O   UNL     1     -53.084 -59.683  40.398  0.00  0.00    +0.000 OA
ATOM     22  H   UNL     1     -53.850 -59.739  40.995  0.00  0.00    +0.000 HD
ENDBRANCH  10  21
BRANCH  17  23
ATOM     23  O   UNL     1     -48.684 -59.141  35.628  0.00  0.00    +0.000 OA
ATOM     24  H   UNL     1     -47.874 -58.840  35.179  0.00  0.00    +0.000 HD
ENDBRANCH  17  23
TORSDOF 2
ENDMDL
MODEL 6
REMARK VINA RESULT:      -6.4      9.302     11.885
REMARK  Name = Enterolactone.pdbqt.pdb
REMARK  2 active torsions:
REMARK  status: ('A' for Active; 'I' for Inactive)
REMARK    1  A    between atoms: C_10  and  O_14
REMARK    2  A    between atoms: C_19  and  O_23
REMARK                            x       y       z     vdW  Elec       q    Type
REMARK                         _______ _______ _______ _____ _____    ______ ____
ROOT
ATOM      1  O   UNL     1     -47.570 -67.260  30.727  0.00  0.00    +0.000 OA
ATOM      2  O   UNL     1     -47.377 -66.415  28.563  0.00  0.00    +0.000 OA
ATOM      3  C   UNL     1     -46.956 -65.326  31.953  0.00  0.00    +0.000 C 
ATOM      4  C   UNL     1     -46.918 -65.037  30.540  0.00  0.00    +0.000 C 
ATOM      5  C   UNL     1     -47.366 -66.659  31.889  0.00  0.00    +0.000 C 
ATOM      6  C   UNL     1     -47.304 -66.287  29.771  0.00  0.00    +0.000 C 
ATOM      7  C   UNL     1     -47.079 -64.384  32.992  0.00  0.00    +0.000 C 
ATOM      8  C   UNL     1     -47.197 -63.416  34.031  0.00  0.00    +0.000 C 
ATOM      9  C   UNL     1     -47.902 -62.237  33.802  0.00  0.00    +0.000 C 
ATOM     10  C   UNL     1     -48.000 -61.295  34.821  0.00  0.00    +0.000 C 
ATOM     11  C   UNL     1     -47.405 -61.516  36.059  0.00  0.00    +0.000 C 
ATOM     12  C   UNL     1     -46.701 -62.697  36.281  0.00  0.00    +0.000 C 
ATOM     13  C   UNL     1     -46.596 -63.647  35.267  0.00  0.00    +0.000 C 
ATOM     14  C   UNL     1     -46.650 -63.776  29.961  0.00  0.00    +0.000 C 
ATOM     15  C   UNL     1     -46.385 -62.500  29.386  0.00  0.00    +0.000 C 
ATOM     16  C   UNL     1     -45.414 -61.675  29.948  0.00  0.00    +0.000 C 
ATOM     17  C   UNL     1     -45.172 -60.427  29.383  0.00  0.00    +0.000 C 
ATOM     18  C   UNL     1     -45.885 -59.995  28.270  0.00  0.00    +0.000 C 
ATOM     19  C   UNL     1     -46.854 -60.825  27.712  0.00  0.00    +0.000 C 
ATOM     20  C   UNL     1     -47.106 -62.078  28.269  0.00  0.00    +0.000 C 
ENDROOT
BRANCH  10  21
ATOM     21  O   UNL     1     -48.684 -60.129  34.630  0.00  0.00    +0.000 OA
ATOM     22  H   UNL     1     -48.642 -59.897  33.686  0.00  0.00    +0.000 HD
ENDBRANCH  10  21
BRANCH  17  23
ATOM     23  O   UNL     1     -44.229 -59.594  29.910  0.00  0.00    +0.000 OA
ATOM     24  H   UNL     1     -43.418 -60.108  30.072  0.00  0.00    +0.000 HD
ENDBRANCH  17  23
TORSDOF 2
ENDMDL
MODEL 7
REMARK VINA RESULT:      -6.4     16.306     19.255
REMARK  Name = Enterolactone.pdbqt.pdb
REMARK  2 active torsions:
REMARK  status: ('A' for Active; 'I' for Inactive)
REMARK    1  A    between atoms: C_10  and  O_14
REMARK    2  A    between atoms: C_19  and  O_23
REMARK                            x       y       z     vdW  Elec       q    Type
REMARK                         _______ _______ _______ _____ _____    ______ ____
ROOT
ATOM      1  O   UNL     1     -43.787 -77.892  55.471  0.00  0.00    +0.000 OA
ATOM      2  O   UNL     1     -42.207 -76.408  54.612  0.00  0.00    +0.000 OA
ATOM      3  C   UNL     1     -45.281 -77.972  53.632  0.00  0.00    +0.000 C 
ATOM      4  C   UNL     1     -44.179 -77.094  53.323  0.00  0.00    +0.000 C 
ATOM      5  C   UNL     1     -44.892 -78.362  54.914  0.00  0.00    +0.000 C 
ATOM      6  C   UNL     1     -43.239 -77.047  54.514  0.00  0.00    +0.000 C 
ATOM      7  C   UNL     1     -46.122 -78.611  52.701  0.00  0.00    +0.000 C 
ATOM      8  C   UNL     1     -46.968 -79.243  51.745  0.00  0.00    +0.000 C 
ATOM      9  C   UNL     1     -46.461 -79.593  50.496  0.00  0.00    +0.000 C 
ATOM     10  C   UNL     1     -47.300 -80.200  49.567  0.00  0.00    +0.000 C 
ATOM     11  C   UNL     1     -48.633 -80.459  49.870  0.00  0.00    +0.000 C 
ATOM     12  C   UNL     1     -49.134 -80.106  51.120  0.00  0.00    +0.000 C 
ATOM     13  C   UNL     1     -48.302 -79.498  52.058  0.00  0.00    +0.000 C 
ATOM     14  C   UNL     1     -43.959 -76.447  52.086  0.00  0.00    +0.000 C 
ATOM     15  C   UNL     1     -43.741 -75.804  50.834  0.00  0.00    +0.000 C 
ATOM     16  C   UNL     1     -44.821 -75.288  50.123  0.00  0.00    +0.000 C 
ATOM     17  C   UNL     1     -44.596 -74.672  48.896  0.00  0.00    +0.000 C 
ATOM     18  C   UNL     1     -43.312 -74.565  48.374  0.00  0.00    +0.000 C 
ATOM     19  C   UNL     1     -42.235 -75.082  49.090  0.00  0.00    +0.000 C 
ATOM     20  C   UNL     1     -42.448 -75.703  50.321  0.00  0.00    +0.000 C 
ENDROOT
BRANCH  10  21
ATOM     21  O   UNL     1     -46.835 -80.556  48.334  0.00  0.00    +0.000 OA
ATOM     22  H   UNL     1     -45.935 -80.912  48.434  0.00  0.00    +0.000 HD
ENDBRANCH  10  21
BRANCH  17  23
ATOM     23  O   UNL     1     -45.633 -74.158  48.173  0.00  0.00    +0.000 OA
ATOM     24  H   UNL     1     -46.125 -73.535  48.738  0.00  0.00    +0.000 HD
ENDBRANCH  17  23
TORSDOF 2
ENDMDL
MODEL 8
REMARK VINA RESULT:      -6.3      9.427     12.007
REMARK  Name = Enterolactone.pdbqt.pdb
REMARK  2 active torsions:
REMARK  status: ('A' for Active; 'I' for Inactive)
REMARK    1  A    between atoms: C_10  and  O_14
REMARK    2  A    between atoms: C_19  and  O_23
REMARK                            x       y       z     vdW  Elec       q    Type
REMARK                         _______ _______ _______ _____ _____    ______ ____
ROOT
ATOM      1  O   UNL     1     -47.065 -67.386  30.341  0.00  0.00    +0.000 OA
ATOM      2  O   UNL     1     -47.184 -67.563  32.663  0.00  0.00    +0.000 OA
ATOM      3  C   UNL     1     -47.165 -65.027  30.129  0.00  0.00    +0.000 C 
ATOM      4  C   UNL     1     -47.215 -65.390  31.525  0.00  0.00    +0.000 C 
ATOM      5  C   UNL     1     -47.067 -66.305  29.577  0.00  0.00    +0.000 C 
ATOM      6  C   UNL     1     -47.160 -66.902  31.641  0.00  0.00    +0.000 C 
ATOM      7  C   UNL     1     -46.778 -63.778  29.608  0.00  0.00    +0.000 C 
ATOM      8  C   UNL     1     -46.392 -62.504  29.100  0.00  0.00    +0.000 C 
ATOM      9  C   UNL     1     -45.455 -61.738  29.790  0.00  0.00    +0.000 C 
ATOM     10  C   UNL     1     -45.094 -60.491  29.288  0.00  0.00    +0.000 C 
ATOM     11  C   UNL     1     -45.655 -60.004  28.112  0.00  0.00    +0.000 C 
ATOM     12  C   UNL     1     -46.590 -60.775  27.426  0.00  0.00    +0.000 C 
ATOM     13  C   UNL     1     -46.960 -62.025  27.920  0.00  0.00    +0.000 C 
ATOM     14  C   UNL     1     -47.226 -64.490  32.613  0.00  0.00    +0.000 C 
ATOM     15  C   UNL     1     -47.232 -63.575  33.706  0.00  0.00    +0.000 C 
ATOM     16  C   UNL     1     -47.963 -62.394  33.616  0.00  0.00    +0.000 C 
ATOM     17  C   UNL     1     -47.951 -61.503  34.686  0.00  0.00    +0.000 C 
ATOM     18  C   UNL     1     -47.222 -61.779  35.837  0.00  0.00    +0.000 C 
ATOM     19  C   UNL     1     -46.494 -62.964  35.921  0.00  0.00    +0.000 C 
ATOM     20  C   UNL     1     -46.498 -63.863  34.856  0.00  0.00    +0.000 C 
ENDROOT
BRANCH  10  21
ATOM     21  O   UNL     1     -44.179 -59.716  29.939  0.00  0.00    +0.000 OA
ATOM     22  H   UNL     1     -44.601 -58.871  30.175  0.00  0.00    +0.000 HD
ENDBRANCH  10  21
BRANCH  17  23
ATOM     23  O   UNL     1     -48.655 -60.336  34.629  0.00  0.00    +0.000 OA
ATOM     24  H   UNL     1     -49.454 -60.483  34.093  0.00  0.00    +0.000 HD
ENDBRANCH  17  23
TORSDOF 2
ENDMDL
MODEL 9
REMARK VINA RESULT:      -6.2     14.797     18.244
REMARK  Name = Enterolactone.pdbqt.pdb
REMARK  2 active torsions:
REMARK  status: ('A' for Active; 'I' for Inactive)
REMARK    1  A    between atoms: C_10  and  O_14
REMARK    2  A    between atoms: C_19  and  O_23
REMARK                            x       y       z     vdW  Elec       q    Type
REMARK                         _______ _______ _______ _____ _____    ______ ____
ROOT
ATOM      1  O   UNL     1     -40.463 -78.599  47.610  0.00  0.00    +0.000 OA
ATOM      2  O   UNL     1     -41.405 -77.652  45.700  0.00  0.00    +0.000 OA
ATOM      3  C   UNL     1     -41.789 -77.536  49.262  0.00  0.00    +0.000 C 
ATOM      4  C   UNL     1     -42.206 -77.100  47.951  0.00  0.00    +0.000 C 
ATOM      5  C   UNL     1     -40.774 -78.415  48.884  0.00  0.00    +0.000 C 
ATOM      6  C   UNL     1     -41.341 -77.782  46.908  0.00  0.00    +0.000 C 
ATOM      7  C   UNL     1     -42.560 -77.486  50.439  0.00  0.00    +0.000 C 
ATOM      8  C   UNL     1     -43.352 -77.421  51.622  0.00  0.00    +0.000 C 
ATOM      9  C   UNL     1     -44.737 -77.541  51.536  0.00  0.00    +0.000 C 
ATOM     10  C   UNL     1     -45.499 -77.465  52.698  0.00  0.00    +0.000 C 
ATOM     11  C   UNL     1     -44.897 -77.271  53.937  0.00  0.00    +0.000 C 
ATOM     12  C   UNL     1     -43.512 -77.151  54.016  0.00  0.00    +0.000 C 
ATOM     13  C   UNL     1     -42.738 -77.226  52.859  0.00  0.00    +0.000 C 
ATOM     14  C   UNL     1     -43.296 -76.245  47.672  0.00  0.00    +0.000 C 
ATOM     15  C   UNL     1     -44.400 -75.386  47.399  0.00  0.00    +0.000 C 
ATOM     16  C   UNL     1     -44.661 -74.305  48.237  0.00  0.00    +0.000 C 
ATOM     17  C   UNL     1     -45.748 -73.481  47.966  0.00  0.00    +0.000 C 
ATOM     18  C   UNL     1     -46.574 -73.723  46.873  0.00  0.00    +0.000 C 
ATOM     19  C   UNL     1     -46.307 -74.805  46.038  0.00  0.00    +0.000 C 
ATOM     20  C   UNL     1     -45.220 -75.638  46.300  0.00  0.00    +0.000 C 
ENDROOT
BRANCH  10  21
ATOM     21  O   UNL     1     -46.858 -77.579  52.648  0.00  0.00    +0.000 OA
ATOM     22  H   UNL     1     -47.251 -76.799  53.078  0.00  0.00    +0.000 HD
ENDBRANCH  10  21
BRANCH  17  23
ATOM     23  O   UNL     1     -46.033 -72.415  48.768  0.00  0.00    +0.000 OA
ATOM     24  H   UNL     1     -46.900 -72.564  49.184  0.00  0.00    +0.000 HD
ENDBRANCH  17  23
TORSDOF 2
ENDMDL
