MODEL 1
REMARK VINA RESULT:      -6.9      0.000      0.000
REMARK  Name = 
REMARK  12 active torsions:
REMARK  status: ('A' for Active; 'I' for Inactive)
REMARK    1  A    between atoms: O_2  and  C_12
REMARK    2  A    between atoms: O_2  and  C_24
REMARK    3  A    between atoms: O_3  and  C_18
REMARK    4  A    between atoms: O_4  and  C_23
REMARK    5  A    between atoms: O_5  and  C_25
REMARK    6  A    between atoms: O_6  and  C_26
REMARK    7  A    between atoms: O_8  and  C_27
REMARK    8  A    between atoms: O_9  and  C_31
REMARK    9  A    between atoms: O_10  and  C_32
REMARK   10  A    between atoms: O_11  and  C_33
REMARK   11  A    between atoms: C_13  and  C_16
REMARK   12  A    between atoms: C_24  and  C_28
REMARK                            x       y       z     vdW  Elec       q    Type
REMARK                         _______ _______ _______ _____ _____    ______ ____
ROOT
ATOM      1  O   UNL     1     -30.373 -51.037  55.049  0.00  0.00    +0.000 OA
ATOM      2  C   UNL     1     -32.135 -51.557  53.395  0.00  0.00    +0.000 C 
ATOM      3  C   UNL     1     -30.670 -51.158  53.647  0.00  0.00    +0.000 C 
ATOM      4  C   UNL     1     -32.374 -52.932  54.019  0.00  0.00    +0.000 C 
ATOM      5  C   UNL     1     -31.745 -53.031  55.386  0.00  0.00    +0.000 A 
ATOM      6  C   UNL     1     -30.792 -52.095  55.811  0.00  0.00    +0.000 A 
ATOM      7  C   UNL     1     -32.084 -54.077  56.252  0.00  0.00    +0.000 A 
ATOM      8  C   UNL     1     -30.229 -52.178  57.086  0.00  0.00    +0.000 A 
ATOM      9  C   UNL     1     -31.519 -54.176  57.522  0.00  0.00    +0.000 A 
ATOM     10  C   UNL     1     -30.598 -53.220  57.930  0.00  0.00    +0.000 A 
ENDROOT
BRANCH   3  11
ATOM     11  C   UNL     1     -30.318 -49.849  52.953  0.00  0.00    +0.000 A 
ATOM     12  C   UNL     1     -29.869 -49.864  51.618  0.00  0.00    +0.000 A 
ATOM     13  C   UNL     1     -30.466 -48.614  53.610  0.00  0.00    +0.000 A 
ATOM     14  C   UNL     1     -30.165 -47.431  52.941  0.00  0.00    +0.000 A 
ATOM     15  C   UNL     1     -29.568 -48.669  50.960  0.00  0.00    +0.000 A 
ATOM     16  C   UNL     1     -29.717 -47.456  51.623  0.00  0.00    +0.000 A 
BRANCH  14  17
ATOM     17  O   UNL     1     -30.301 -46.210  53.545  0.00  0.00    +0.000 OA
ATOM     18  H   UNL     1     -30.978 -45.705  53.063  0.00  0.00    +0.000 HD
ENDBRANCH  14  17
BRANCH  15  19
ATOM     19  O   UNL     1     -29.130 -48.681  49.667  0.00  0.00    +0.000 OA
ATOM     20  H   UNL     1     -28.592 -49.472  49.512  0.00  0.00    +0.000 HD
ENDBRANCH  15  19
BRANCH  16  21
ATOM     21  O   UNL     1     -29.431 -46.274  50.996  0.00  0.00    +0.000 OA
ATOM     22  H   UNL     1     -29.679 -45.585  51.642  0.00  0.00    +0.000 HD
ENDBRANCH  16  21
ENDBRANCH   3  11
BRANCH   7  23
ATOM     23  O   UNL     1     -32.989 -55.009  55.829  0.00  0.00    +0.000 OA
ATOM     24  H   UNL     1     -32.609 -55.497  55.080  0.00  0.00    +0.000 HD
ENDBRANCH   7  23
BRANCH  10  25
ATOM     25  O   UNL     1     -30.067 -53.344  59.180  0.00  0.00    +0.000 OA
ATOM     26  H   UNL     1     -30.353 -52.587  59.719  0.00  0.00    +0.000 HD
ENDBRANCH  10  25
BRANCH   2  27
ATOM     27  O   UNL     1     -33.017 -50.595  54.025  0.00  0.00    +0.000 OA
BRANCH  27  29
ATOM     28  O   UNL     1     -35.134 -50.894  53.189  0.00  0.00    +0.000 OA
ATOM     29  C   UNL     1     -34.115 -50.236  53.325  0.00  0.00    +0.000 C 
BRANCH  29  30
ATOM     30  C   UNL     1     -33.897 -48.911  52.692  0.00  0.00    +0.000 A 
ATOM     31  C   UNL     1     -33.977 -47.771  53.507  0.00  0.00    +0.000 A 
ATOM     32  C   UNL     1     -33.608 -48.784  51.322  0.00  0.00    +0.000 A 
ATOM     33  C   UNL     1     -33.415 -47.519  50.771  0.00  0.00    +0.000 A 
ATOM     34  C   UNL     1     -33.785 -46.517  52.939  0.00  0.00    +0.000 A 
ATOM     35  C   UNL     1     -33.510 -46.389  51.578  0.00  0.00    +0.000 A 
BRANCH  33  36
ATOM     36  O   UNL     1     -33.136 -47.377  49.442  0.00  0.00    +0.000 OA
ATOM     37  H   UNL     1     -32.491 -46.665  49.318  0.00  0.00    +0.000 HD
ENDBRANCH  33  36
BRANCH  34  38
ATOM     38  O   UNL     1     -33.857 -45.372  53.685  0.00  0.00    +0.000 OA
ATOM     39  H   UNL     1     -33.739 -45.604  54.624  0.00  0.00    +0.000 HD
ENDBRANCH  34  38
BRANCH  35  40
ATOM     40  O   UNL     1     -33.327 -45.138  51.054  0.00  0.00    +0.000 OA
ATOM     41  H   UNL     1     -32.370 -45.080  50.866  0.00  0.00    +0.000 HD
ENDBRANCH  35  40
ENDBRANCH  29  30
ENDBRANCH  27  29
ENDBRANCH   2  27
TORSDOF 12
ENDMDL
MODEL 2
REMARK VINA RESULT:      -6.6     22.672     24.878
REMARK  Name = 
REMARK  12 active torsions:
REMARK  status: ('A' for Active; 'I' for Inactive)
REMARK    1  A    between atoms: O_2  and  C_12
REMARK    2  A    between atoms: O_2  and  C_24
REMARK    3  A    between atoms: O_3  and  C_18
REMARK    4  A    between atoms: O_4  and  C_23
REMARK    5  A    between atoms: O_5  and  C_25
REMARK    6  A    between atoms: O_6  and  C_26
REMARK    7  A    between atoms: O_8  and  C_27
REMARK    8  A    between atoms: O_9  and  C_31
REMARK    9  A    between atoms: O_10  and  C_32
REMARK   10  A    between atoms: O_11  and  C_33
REMARK   11  A    between atoms: C_13  and  C_16
REMARK   12  A    between atoms: C_24  and  C_28
REMARK                            x       y       z     vdW  Elec       q    Type
REMARK                         _______ _______ _______ _____ _____    ______ ____
ROOT
ATOM      1  O   UNL     1     -46.132 -64.854  38.112  0.00  0.00    +0.000 OA
ATOM      2  C   UNL     1     -45.512 -62.924  39.526  0.00  0.00    +0.000 C 
ATOM      3  C   UNL     1     -46.621 -63.668  38.761  0.00  0.00    +0.000 C 
ATOM      4  C   UNL     1     -44.983 -63.845  40.625  0.00  0.00    +0.000 C 
ATOM      5  C   UNL     1     -44.795 -65.253  40.118  0.00  0.00    +0.000 A 
ATOM      6  C   UNL     1     -45.376 -65.668  38.913  0.00  0.00    +0.000 A 
ATOM      7  C   UNL     1     -44.052 -66.182  40.857  0.00  0.00    +0.000 A 
ATOM      8  C   UNL     1     -45.180 -66.966  38.437  0.00  0.00    +0.000 A 
ATOM      9  C   UNL     1     -43.860 -67.483  40.396  0.00  0.00    +0.000 A 
ATOM     10  C   UNL     1     -44.424 -67.863  39.185  0.00  0.00    +0.000 A 
ENDROOT
BRANCH   3  11
ATOM     11  C   UNL     1     -47.283 -62.774  37.722  0.00  0.00    +0.000 A 
ATOM     12  C   UNL     1     -48.103 -61.706  38.137  0.00  0.00    +0.000 A 
ATOM     13  C   UNL     1     -47.063 -62.971  36.345  0.00  0.00    +0.000 A 
ATOM     14  C   UNL     1     -47.657 -62.119  35.419  0.00  0.00    +0.000 A 
ATOM     15  C   UNL     1     -48.695 -60.862  37.196  0.00  0.00    +0.000 A 
ATOM     16  C   UNL     1     -48.471 -61.069  35.839  0.00  0.00    +0.000 A 
BRANCH  14  17
ATOM     17  O   UNL     1     -47.463 -62.275  34.073  0.00  0.00    +0.000 OA
ATOM     18  H   UNL     1     -46.531 -62.508  33.923  0.00  0.00    +0.000 HD
ENDBRANCH  14  17
BRANCH  15  19
ATOM     19  O   UNL     1     -49.492 -59.828  37.595  0.00  0.00    +0.000 OA
ATOM     20  H   UNL     1     -49.886 -60.034  38.456  0.00  0.00    +0.000 HD
ENDBRANCH  15  19
BRANCH  16  21
ATOM     21  O   UNL     1     -49.037 -60.252  34.901  0.00  0.00    +0.000 OA
ATOM     22  H   UNL     1     -49.924 -60.630  34.745  0.00  0.00    +0.000 HD
ENDBRANCH  16  21
ENDBRANCH   3  11
BRANCH   7  23
ATOM     23  O   UNL     1     -43.510 -65.788  42.048  0.00  0.00    +0.000 OA
ATOM     24  H   UNL     1     -43.371 -64.827  42.026  0.00  0.00    +0.000 HD
ENDBRANCH   7  23
BRANCH  10  25
ATOM     25  O   UNL     1     -44.215 -69.142  38.762  0.00  0.00    +0.000 OA
ATOM     26  H   UNL     1     -43.612 -69.125  37.999  0.00  0.00    +0.000 HD
ENDBRANCH  10  25
BRANCH   2  27
ATOM     27  O   UNL     1     -44.427 -62.602  38.620  0.00  0.00    +0.000 OA
BRANCH  27  29
ATOM     28  O   UNL     1     -43.404 -61.007  39.914  0.00  0.00    +0.000 OA
ATOM     29  C   UNL     1     -43.788 -61.432  38.837  0.00  0.00    +0.000 C 
BRANCH  29  30
ATOM     30  C   UNL     1     -43.644 -60.693  37.558  0.00  0.00    +0.000 A 
ATOM     31  C   UNL     1     -44.189 -61.269  36.400  0.00  0.00    +0.000 A 
ATOM     32  C   UNL     1     -42.994 -59.448  37.491  0.00  0.00    +0.000 A 
ATOM     33  C   UNL     1     -42.879 -58.794  36.266  0.00  0.00    +0.000 A 
ATOM     34  C   UNL     1     -44.063 -60.603  35.187  0.00  0.00    +0.000 A 
ATOM     35  C   UNL     1     -43.407 -59.374  35.117  0.00  0.00    +0.000 A 
BRANCH  33  36
ATOM     36  O   UNL     1     -42.248 -57.585  36.184  0.00  0.00    +0.000 OA
ATOM     37  H   UNL     1     -41.675 -57.463  36.955  0.00  0.00    +0.000 HD
ENDBRANCH  33  36
BRANCH  34  38
ATOM     38  O   UNL     1     -44.569 -61.121  34.026  0.00  0.00    +0.000 OA
ATOM     39  H   UNL     1     -44.946 -60.394  33.499  0.00  0.00    +0.000 HD
ENDBRANCH  34  38
BRANCH  35  40
ATOM     40  O   UNL     1     -43.301 -58.747  33.906  0.00  0.00    +0.000 OA
ATOM     41  H   UNL     1     -43.131 -59.463  33.264  0.00  0.00    +0.000 HD
ENDBRANCH  35  40
ENDBRANCH  29  30
ENDBRANCH  27  29
ENDBRANCH   2  27
TORSDOF 12
ENDMDL
MODEL 3
REMARK VINA RESULT:      -6.5      1.311      1.999
REMARK  Name = 
REMARK  12 active torsions:
REMARK  status: ('A' for Active; 'I' for Inactive)
REMARK    1  A    between atoms: O_2  and  C_12
REMARK    2  A    between atoms: O_2  and  C_24
REMARK    3  A    between atoms: O_3  and  C_18
REMARK    4  A    between atoms: O_4  and  C_23
REMARK    5  A    between atoms: O_5  and  C_25
REMARK    6  A    between atoms: O_6  and  C_26
REMARK    7  A    between atoms: O_8  and  C_27
REMARK    8  A    between atoms: O_9  and  C_31
REMARK    9  A    between atoms: O_10  and  C_32
REMARK   10  A    between atoms: O_11  and  C_33
REMARK   11  A    between atoms: C_13  and  C_16
REMARK   12  A    between atoms: C_24  and  C_28
REMARK                            x       y       z     vdW  Elec       q    Type
REMARK                         _______ _______ _______ _____ _____    ______ ____
ROOT
ATOM      1  O   UNL     1     -29.889 -50.876  55.216  0.00  0.00    +0.000 OA
ATOM      2  C   UNL     1     -31.489 -51.516  53.445  0.00  0.00    +0.000 C 
ATOM      3  C   UNL     1     -30.036 -51.171  53.816  0.00  0.00    +0.000 C 
ATOM      4  C   UNL     1     -31.895 -52.777  54.209  0.00  0.00    +0.000 C 
ATOM      5  C   UNL     1     -31.430 -52.723  55.642  0.00  0.00    +0.000 A 
ATOM      6  C   UNL     1     -30.465 -51.794  56.053  0.00  0.00    +0.000 A 
ATOM      7  C   UNL     1     -31.938 -53.620  56.590  0.00  0.00    +0.000 A 
ATOM      8  C   UNL     1     -30.054 -51.733  57.386  0.00  0.00    +0.000 A 
ATOM      9  C   UNL     1     -31.526 -53.576  57.920  0.00  0.00    +0.000 A 
ATOM     10  C   UNL     1     -30.588 -52.628  58.308  0.00  0.00    +0.000 A 
ENDROOT
BRANCH   3  11
ATOM     11  C   UNL     1     -29.516 -49.991  53.006  0.00  0.00    +0.000 A 
ATOM     12  C   UNL     1     -28.983 -48.868  53.668  0.00  0.00    +0.000 A 
ATOM     13  C   UNL     1     -29.522 -50.015  51.598  0.00  0.00    +0.000 A 
ATOM     14  C   UNL     1     -29.012 -48.936  50.884  0.00  0.00    +0.000 A 
ATOM     15  C   UNL     1     -28.478 -47.790  52.938  0.00  0.00    +0.000 A 
ATOM     16  C   UNL     1     -28.493 -47.826  51.548  0.00  0.00    +0.000 A 
BRANCH  14  17
ATOM     17  O   UNL     1     -28.996 -48.923  49.515  0.00  0.00    +0.000 OA
ATOM     18  H   UNL     1     -28.147 -49.290  49.215  0.00  0.00    +0.000 HD
ENDBRANCH  14  17
BRANCH  15  19
ATOM     19  O   UNL     1     -27.964 -46.699  53.577  0.00  0.00    +0.000 OA
ATOM     20  H   UNL     1     -28.687 -46.135  53.891  0.00  0.00    +0.000 HD
ENDBRANCH  15  19
BRANCH  16  21
ATOM     21  O   UNL     1     -27.999 -46.784  50.813  0.00  0.00    +0.000 OA
ATOM     22  H   UNL     1     -28.321 -45.984  51.271  0.00  0.00    +0.000 HD
ENDBRANCH  16  21
ENDBRANCH   3  11
BRANCH   7  23
ATOM     23  O   UNL     1     -32.856 -54.549  56.186  0.00  0.00    +0.000 OA
ATOM     24  H   UNL     1     -32.409 -55.209  55.630  0.00  0.00    +0.000 HD
ENDBRANCH   7  23
BRANCH  10  25
ATOM     25  O   UNL     1     -30.209 -52.609  59.617  0.00  0.00    +0.000 OA
ATOM     26  H   UNL     1     -31.000 -52.493  60.171  0.00  0.00    +0.000 HD
ENDBRANCH  10  25
BRANCH   2  27
ATOM     27  O   UNL     1     -32.364 -50.428  53.835  0.00  0.00    +0.000 OA
BRANCH  27  29
ATOM     28  O   UNL     1     -34.013 -50.886  52.306  0.00  0.00    +0.000 OA
ATOM     29  C   UNL     1     -33.348 -50.106  52.968  0.00  0.00    +0.000 C 
BRANCH  29  30
ATOM     30  C   UNL     1     -33.492 -48.630  52.897  0.00  0.00    +0.000 A 
ATOM     31  C   UNL     1     -32.331 -47.849  53.011  0.00  0.00    +0.000 A 
ATOM     32  C   UNL     1     -34.744 -48.017  52.712  0.00  0.00    +0.000 A 
ATOM     33  C   UNL     1     -34.830 -46.627  52.657  0.00  0.00    +0.000 A 
ATOM     34  C   UNL     1     -32.437 -46.465  52.957  0.00  0.00    +0.000 A 
ATOM     35  C   UNL     1     -33.680 -45.854  52.785  0.00  0.00    +0.000 A 
BRANCH  33  36
ATOM     36  O   UNL     1     -36.038 -46.015  52.480  0.00  0.00    +0.000 OA
ATOM     37  H   UNL     1     -35.901 -45.093  52.215  0.00  0.00    +0.000 HD
ENDBRANCH  33  36
BRANCH  34  38
ATOM     38  O   UNL     1     -31.340 -45.655  53.069  0.00  0.00    +0.000 OA
ATOM     39  H   UNL     1     -30.551 -46.214  53.180  0.00  0.00    +0.000 HD
ENDBRANCH  34  38
BRANCH  35  40
ATOM     40  O   UNL     1     -33.746 -44.488  52.737  0.00  0.00    +0.000 OA
ATOM     41  H   UNL     1     -33.165 -44.233  51.995  0.00  0.00    +0.000 HD
ENDBRANCH  35  40
ENDBRANCH  29  30
ENDBRANCH  27  29
ENDBRANCH   2  27
TORSDOF 12
ENDMDL
MODEL 4
REMARK VINA RESULT:      -6.5      2.292      7.262
REMARK  Name = 
REMARK  12 active torsions:
REMARK  status: ('A' for Active; 'I' for Inactive)
REMARK    1  A    between atoms: O_2  and  C_12
REMARK    2  A    between atoms: O_2  and  C_24
REMARK    3  A    between atoms: O_3  and  C_18
REMARK    4  A    between atoms: O_4  and  C_23
REMARK    5  A    between atoms: O_5  and  C_25
REMARK    6  A    between atoms: O_6  and  C_26
REMARK    7  A    between atoms: O_8  and  C_27
REMARK    8  A    between atoms: O_9  and  C_31
REMARK    9  A    between atoms: O_10  and  C_32
REMARK   10  A    between atoms: O_11  and  C_33
REMARK   11  A    between atoms: C_13  and  C_16
REMARK   12  A    between atoms: C_24  and  C_28
REMARK                            x       y       z     vdW  Elec       q    Type
REMARK                         _______ _______ _______ _____ _____    ______ ____
ROOT
ATOM      1  O   UNL     1     -29.856 -47.401  53.256  0.00  0.00    +0.000 OA
ATOM      2  C   UNL     1     -29.158 -49.770  53.198  0.00  0.00    +0.000 C 
ATOM      3  C   UNL     1     -30.107 -48.685  52.660  0.00  0.00    +0.000 C 
ATOM      4  C   UNL     1     -27.726 -49.384  52.832  0.00  0.00    +0.000 C 
ATOM      5  C   UNL     1     -27.475 -47.916  53.072  0.00  0.00    +0.000 A 
ATOM      6  C   UNL     1     -28.539 -47.025  53.262  0.00  0.00    +0.000 A 
ATOM      7  C   UNL     1     -26.170 -47.410  53.088  0.00  0.00    +0.000 A 
ATOM      8  C   UNL     1     -28.301 -45.671  53.507  0.00  0.00    +0.000 A 
ATOM      9  C   UNL     1     -25.922 -46.058  53.319  0.00  0.00    +0.000 A 
ATOM     10  C   UNL     1     -26.993 -45.200  53.531  0.00  0.00    +0.000 A 
ENDROOT
BRANCH   3  11
ATOM     11  C   UNL     1     -31.567 -49.055  52.881  0.00  0.00    +0.000 A 
ATOM     12  C   UNL     1     -32.519 -48.043  53.110  0.00  0.00    +0.000 A 
ATOM     13  C   UNL     1     -31.995 -50.395  52.827  0.00  0.00    +0.000 A 
ATOM     14  C   UNL     1     -33.340 -50.702  53.003  0.00  0.00    +0.000 A 
ATOM     15  C   UNL     1     -33.866 -48.365  53.288  0.00  0.00    +0.000 A 
ATOM     16  C   UNL     1     -34.274 -49.694  53.234  0.00  0.00    +0.000 A 
BRANCH  14  17
ATOM     17  O   UNL     1     -33.796 -51.992  52.953  0.00  0.00    +0.000 OA
ATOM     18  H   UNL     1     -33.134 -52.567  53.372  0.00  0.00    +0.000 HD
ENDBRANCH  14  17
BRANCH  15  19
ATOM     19  O   UNL     1     -34.790 -47.386  53.513  0.00  0.00    +0.000 OA
ATOM     20  H   UNL     1     -35.671 -47.782  53.595  0.00  0.00    +0.000 HD
ENDBRANCH  15  19
BRANCH  16  21
ATOM     21  O   UNL     1     -35.589 -50.031  53.402  0.00  0.00    +0.000 OA
ATOM     22  H   UNL     1     -36.070 -49.481  52.755  0.00  0.00    +0.000 HD
ENDBRANCH  16  21
ENDBRANCH   3  11
BRANCH   7  23
ATOM     23  O   UNL     1     -25.131 -48.271  52.872  0.00  0.00    +0.000 OA
ATOM     24  H   UNL     1     -25.416 -48.953  52.241  0.00  0.00    +0.000 HD
ENDBRANCH   7  23
BRANCH  10  25
ATOM     25  O   UNL     1     -26.715 -43.885  53.759  0.00  0.00    +0.000 OA
ATOM     26  H   UNL     1     -25.756 -43.747  53.678  0.00  0.00    +0.000 HD
ENDBRANCH  10  25
BRANCH   2  27
ATOM     27  O   UNL     1     -29.271 -49.844  54.641  0.00  0.00    +0.000 OA
BRANCH  27  29
ATOM     28  O   UNL     1     -27.681 -51.298  55.432  0.00  0.00    +0.000 OA
ATOM     29  C   UNL     1     -28.841 -50.986  55.222  0.00  0.00    +0.000 C 
BRANCH  29  30
ATOM     30  C   UNL     1     -30.002 -51.853  55.545  0.00  0.00    +0.000 A 
ATOM     31  C   UNL     1     -30.404 -52.799  54.588  0.00  0.00    +0.000 A 
ATOM     32  C   UNL     1     -30.683 -51.751  56.770  0.00  0.00    +0.000 A 
ATOM     33  C   UNL     1     -31.771 -52.584  57.027  0.00  0.00    +0.000 A 
ATOM     34  C   UNL     1     -31.493 -53.618  54.860  0.00  0.00    +0.000 A 
ATOM     35  C   UNL     1     -32.177 -53.510  56.071  0.00  0.00    +0.000 A 
BRANCH  33  36
ATOM     36  O   UNL     1     -32.446 -52.497  58.211  0.00  0.00    +0.000 OA
ATOM     37  H   UNL     1     -32.508 -51.569  58.484  0.00  0.00    +0.000 HD
ENDBRANCH  33  36
BRANCH  34  38
ATOM     38  O   UNL     1     -31.932 -54.552  53.962  0.00  0.00    +0.000 OA
ATOM     39  H   UNL     1     -31.287 -55.281  53.931  0.00  0.00    +0.000 HD
ENDBRANCH  34  38
BRANCH  35  40
ATOM     40  O   UNL     1     -33.245 -54.333  56.304  0.00  0.00    +0.000 OA
ATOM     41  H   UNL     1     -33.033 -55.163  55.835  0.00  0.00    +0.000 HD
ENDBRANCH  35  40
ENDBRANCH  29  30
ENDBRANCH  27  29
ENDBRANCH   2  27
TORSDOF 12
ENDMDL
MODEL 5
REMARK VINA RESULT:      -6.5      8.195     13.020
REMARK  Name = 
REMARK  12 active torsions:
REMARK  status: ('A' for Active; 'I' for Inactive)
REMARK    1  A    between atoms: O_2  and  C_12
REMARK    2  A    between atoms: O_2  and  C_24
REMARK    3  A    between atoms: O_3  and  C_18
REMARK    4  A    between atoms: O_4  and  C_23
REMARK    5  A    between atoms: O_5  and  C_25
REMARK    6  A    between atoms: O_6  and  C_26
REMARK    7  A    between atoms: O_8  and  C_27
REMARK    8  A    between atoms: O_9  and  C_31
REMARK    9  A    between atoms: O_10  and  C_32
REMARK   10  A    between atoms: O_11  and  C_33
REMARK   11  A    between atoms: C_13  and  C_16
REMARK   12  A    between atoms: C_24  and  C_28
REMARK                            x       y       z     vdW  Elec       q    Type
REMARK                         _______ _______ _______ _____ _____    ______ ____
ROOT
ATOM      1  O   UNL     1     -40.398 -40.926  46.956  0.00  0.00    +0.000 OA
ATOM      2  C   UNL     1     -38.569 -41.652  48.451  0.00  0.00    +0.000 C 
ATOM      3  C   UNL     1     -38.998 -40.786  47.254  0.00  0.00    +0.000 C 
ATOM      4  C   UNL     1     -39.334 -41.179  49.686  0.00  0.00    +0.000 C 
ATOM      5  C   UNL     1     -40.785 -40.923  49.369  0.00  0.00    +0.000 A 
ATOM      6  C   UNL     1     -41.223 -40.807  48.043  0.00  0.00    +0.000 A 
ATOM      7  C   UNL     1     -41.723 -40.771  50.397  0.00  0.00    +0.000 A 
ATOM      8  C   UNL     1     -42.572 -40.592  47.753  0.00  0.00    +0.000 A 
ATOM      9  C   UNL     1     -43.070 -40.543  50.119  0.00  0.00    +0.000 A 
ATOM     10  C   UNL     1     -43.483 -40.460  48.795  0.00  0.00    +0.000 A 
ENDROOT
BRANCH   3  11
ATOM     11  C   UNL     1     -38.193 -41.117  46.004  0.00  0.00    +0.000 A 
ATOM     12  C   UNL     1     -36.786 -41.062  46.043  0.00  0.00    +0.000 A 
ATOM     13  C   UNL     1     -38.828 -41.515  44.812  0.00  0.00    +0.000 A 
ATOM     14  C   UNL     1     -38.065 -41.840  43.695  0.00  0.00    +0.000 A 
ATOM     15  C   UNL     1     -36.034 -41.389  44.913  0.00  0.00    +0.000 A 
ATOM     16  C   UNL     1     -36.675 -41.778  43.742  0.00  0.00    +0.000 A 
BRANCH  14  17
ATOM     17  O   UNL     1     -38.646 -42.236  42.520  0.00  0.00    +0.000 OA
ATOM     18  H   UNL     1     -39.250 -42.974  42.710  0.00  0.00    +0.000 HD
ENDBRANCH  14  17
BRANCH  15  19
ATOM     19  O   UNL     1     -34.670 -41.333  44.947  0.00  0.00    +0.000 OA
ATOM     20  H   UNL     1     -34.356 -40.661  44.324  0.00  0.00    +0.000 HD
ENDBRANCH  15  19
BRANCH  16  21
ATOM     21  O   UNL     1     -35.957 -42.106  42.625  0.00  0.00    +0.000 OA
ATOM     22  H   UNL     1     -36.053 -43.074  42.545  0.00  0.00    +0.000 HD
ENDBRANCH  16  21
ENDBRANCH   3  11
BRANCH   7  23
ATOM     23  O   UNL     1     -41.294 -40.851  51.692  0.00  0.00    +0.000 OA
ATOM     24  H   UNL     1     -40.362 -40.579  51.730  0.00  0.00    +0.000 HD
ENDBRANCH   7  23
BRANCH  10  25
ATOM     25  O   UNL     1     -44.808 -40.241  48.558  0.00  0.00    +0.000 OA
ATOM     26  H   UNL     1     -45.319 -40.541  49.329  0.00  0.00    +0.000 HD
ENDBRANCH  10  25
BRANCH   2  27
ATOM     27  O   UNL     1     -38.903 -43.039  48.193  0.00  0.00    +0.000 OA
BRANCH  27  29
ATOM     28  O   UNL     1     -37.597 -44.337  46.823  0.00  0.00    +0.000 OA
ATOM     29  C   UNL     1     -37.871 -43.866  47.914  0.00  0.00    +0.000 C 
BRANCH  29  30
ATOM     30  C   UNL     1     -37.116 -44.163  49.158  0.00  0.00    +0.000 A 
ATOM     31  C   UNL     1     -37.802 -44.787  50.211  0.00  0.00    +0.000 A 
ATOM     32  C   UNL     1     -35.753 -43.846  49.289  0.00  0.00    +0.000 A 
ATOM     33  C   UNL     1     -35.087 -44.140  50.477  0.00  0.00    +0.000 A 
ATOM     34  C   UNL     1     -37.123 -45.071  51.390  0.00  0.00    +0.000 A 
ATOM     35  C   UNL     1     -35.773 -44.746  51.526  0.00  0.00    +0.000 A 
BRANCH  33  36
ATOM     36  O   UNL     1     -33.763 -43.837  50.623  0.00  0.00    +0.000 OA
ATOM     37  H   UNL     1     -33.282 -44.619  50.931  0.00  0.00    +0.000 HD
ENDBRANCH  33  36
BRANCH  34  38
ATOM     38  O   UNL     1     -37.743 -45.672  52.450  0.00  0.00    +0.000 OA
ATOM     39  H   UNL     1     -38.137 -44.981  53.013  0.00  0.00    +0.000 HD
ENDBRANCH  34  38
BRANCH  35  40
ATOM     40  O   UNL     1     -35.136 -45.039  52.701  0.00  0.00    +0.000 OA
ATOM     41  H   UNL     1     -35.515 -45.892  52.989  0.00  0.00    +0.000 HD
ENDBRANCH  35  40
ENDBRANCH  29  30
ENDBRANCH  27  29
ENDBRANCH   2  27
TORSDOF 12
ENDMDL
MODEL 6
REMARK VINA RESULT:      -6.4      7.487     11.564
REMARK  Name = 
REMARK  12 active torsions:
REMARK  status: ('A' for Active; 'I' for Inactive)
REMARK    1  A    between atoms: O_2  and  C_12
REMARK    2  A    between atoms: O_2  and  C_24
REMARK    3  A    between atoms: O_3  and  C_18
REMARK    4  A    between atoms: O_4  and  C_23
REMARK    5  A    between atoms: O_5  and  C_25
REMARK    6  A    between atoms: O_6  and  C_26
REMARK    7  A    between atoms: O_8  and  C_27
REMARK    8  A    between atoms: O_9  and  C_31
REMARK    9  A    between atoms: O_10  and  C_32
REMARK   10  A    between atoms: O_11  and  C_33
REMARK   11  A    between atoms: C_13  and  C_16
REMARK   12  A    between atoms: C_24  and  C_28
REMARK                            x       y       z     vdW  Elec       q    Type
REMARK                         _______ _______ _______ _____ _____    ______ ____
ROOT
ATOM      1  O   UNL     1     -37.863 -43.753  50.588  0.00  0.00    +0.000 OA
ATOM      2  C   UNL     1     -36.660 -42.036  49.279  0.00  0.00    +0.000 C 
ATOM      3  C   UNL     1     -37.843 -42.367  50.206  0.00  0.00    +0.000 C 
ATOM      4  C   UNL     1     -35.362 -42.305  50.039  0.00  0.00    +0.000 C 
ATOM      5  C   UNL     1     -35.434 -43.601  50.807  0.00  0.00    +0.000 A 
ATOM      6  C   UNL     1     -36.662 -44.235  51.037  0.00  0.00    +0.000 A 
ATOM      7  C   UNL     1     -34.273 -44.186  51.328  0.00  0.00    +0.000 A 
ATOM      8  C   UNL     1     -36.721 -45.447  51.729  0.00  0.00    +0.000 A 
ATOM      9  C   UNL     1     -34.323 -45.389  52.030  0.00  0.00    +0.000 A 
ATOM     10  C   UNL     1     -35.550 -46.012  52.221  0.00  0.00    +0.000 A 
ENDROOT
BRANCH   3  11
ATOM     11  C   UNL     1     -39.176 -42.013  49.562  0.00  0.00    +0.000 A 
ATOM     12  C   UNL     1     -39.552 -42.625  48.350  0.00  0.00    +0.000 A 
ATOM     13  C   UNL     1     -40.064 -41.108  50.174  0.00  0.00    +0.000 A 
ATOM     14  C   UNL     1     -41.289 -40.827  49.578  0.00  0.00    +0.000 A 
ATOM     15  C   UNL     1     -40.784 -42.330  47.762  0.00  0.00    +0.000 A 
ATOM     16  C   UNL     1     -41.650 -41.433  48.376  0.00  0.00    +0.000 A 
BRANCH  14  17
ATOM     17  O   UNL     1     -42.181 -39.956  50.145  0.00  0.00    +0.000 OA
ATOM     18  H   UNL     1     -42.278 -39.190  49.554  0.00  0.00    +0.000 HD
ENDBRANCH  14  17
BRANCH  15  19
ATOM     19  O   UNL     1     -41.150 -42.920  46.585  0.00  0.00    +0.000 OA
ATOM     20  H   UNL     1     -41.255 -43.874  46.718  0.00  0.00    +0.000 HD
ENDBRANCH  15  19
BRANCH  16  21
ATOM     21  O   UNL     1     -42.862 -41.133  47.819  0.00  0.00    +0.000 OA
ATOM     22  H   UNL     1     -43.516 -41.560  48.405  0.00  0.00    +0.000 HD
ENDBRANCH  16  21
ENDBRANCH   3  11
BRANCH   7  23
ATOM     23  O   UNL     1     -33.078 -43.554  51.133  0.00  0.00    +0.000 OA
ATOM     24  H   UNL     1     -32.613 -43.983  50.395  0.00  0.00    +0.000 HD
ENDBRANCH   7  23
BRANCH  10  25
ATOM     25  O   UNL     1     -35.563 -47.188  52.909  0.00  0.00    +0.000 OA
ATOM     26  H   UNL     1     -35.201 -47.036  53.799  0.00  0.00    +0.000 HD
ENDBRANCH  10  25
BRANCH   2  27
ATOM     27  O   UNL     1     -36.705 -42.890  48.108  0.00  0.00    +0.000 OA
BRANCH  27  29
ATOM     28  O   UNL     1     -34.574 -42.912  47.255  0.00  0.00    +0.000 OA
ATOM     29  C   UNL     1     -35.765 -42.666  47.163  0.00  0.00    +0.000 C 
BRANCH  29  30
ATOM     30  C   UNL     1     -36.389 -42.027  45.977  0.00  0.00    +0.000 A 
ATOM     31  C   UNL     1     -35.571 -41.246  45.145  0.00  0.00    +0.000 A 
ATOM     32  C   UNL     1     -37.751 -42.197  45.676  0.00  0.00    +0.000 A 
ATOM     33  C   UNL     1     -38.293 -41.573  44.553  0.00  0.00    +0.000 A 
ATOM     34  C   UNL     1     -36.130 -40.629  44.032  0.00  0.00    +0.000 A 
ATOM     35  C   UNL     1     -37.484 -40.786  43.738  0.00  0.00    +0.000 A 
BRANCH  33  36
ATOM     36  O   UNL     1     -39.615 -41.725  44.247  0.00  0.00    +0.000 OA
ATOM     37  H   UNL     1     -39.890 -42.635  44.431  0.00  0.00    +0.000 HD
ENDBRANCH  33  36
BRANCH  34  38
ATOM     38  O   UNL     1     -35.382 -39.852  43.190  0.00  0.00    +0.000 OA
ATOM     39  H   UNL     1     -35.065 -39.074  43.684  0.00  0.00    +0.000 HD
ENDBRANCH  34  38
BRANCH  35  40
ATOM     40  O   UNL     1     -37.999 -40.164  42.634  0.00  0.00    +0.000 OA
ATOM     41  H   UNL     1     -38.678 -40.777  42.291  0.00  0.00    +0.000 HD
ENDBRANCH  35  40
ENDBRANCH  29  30
ENDBRANCH  27  29
ENDBRANCH   2  27
TORSDOF 12
ENDMDL
MODEL 7
REMARK VINA RESULT:      -6.4      3.503      4.678
REMARK  Name = 
REMARK  12 active torsions:
REMARK  status: ('A' for Active; 'I' for Inactive)
REMARK    1  A    between atoms: O_2  and  C_12
REMARK    2  A    between atoms: O_2  and  C_24
REMARK    3  A    between atoms: O_3  and  C_18
REMARK    4  A    between atoms: O_4  and  C_23
REMARK    5  A    between atoms: O_5  and  C_25
REMARK    6  A    between atoms: O_6  and  C_26
REMARK    7  A    between atoms: O_8  and  C_27
REMARK    8  A    between atoms: O_9  and  C_31
REMARK    9  A    between atoms: O_10  and  C_32
REMARK   10  A    between atoms: O_11  and  C_33
REMARK   11  A    between atoms: C_13  and  C_16
REMARK   12  A    between atoms: C_24  and  C_28
REMARK                            x       y       z     vdW  Elec       q    Type
REMARK                         _______ _______ _______ _____ _____    ______ ____
ROOT
ATOM      1  O   UNL     1     -29.444 -53.957  54.787  0.00  0.00    +0.000 OA
ATOM      2  C   UNL     1     -31.254 -53.855  53.108  0.00  0.00    +0.000 C 
ATOM      3  C   UNL     1     -30.053 -54.633  53.674  0.00  0.00    +0.000 C 
ATOM      4  C   UNL     1     -32.319 -53.751  54.200  0.00  0.00    +0.000 C 
ATOM      5  C   UNL     1     -31.705 -53.410  55.534  0.00  0.00    +0.000 A 
ATOM      6  C   UNL     1     -30.326 -53.536  55.747  0.00  0.00    +0.000 A 
ATOM      7  C   UNL     1     -32.508 -52.980  56.598  0.00  0.00    +0.000 A 
ATOM      8  C   UNL     1     -29.760 -53.198  56.977  0.00  0.00    +0.000 A 
ATOM      9  C   UNL     1     -31.954 -52.650  57.834  0.00  0.00    +0.000 A 
ATOM     10  C   UNL     1     -30.580 -52.759  58.011  0.00  0.00    +0.000 A 
ENDROOT
BRANCH   3  11
ATOM     11  C   UNL     1     -28.994 -54.882  52.608  0.00  0.00    +0.000 A 
ATOM     12  C   UNL     1     -29.376 -55.366  51.342  0.00  0.00    +0.000 A 
ATOM     13  C   UNL     1     -27.636 -54.603  52.852  0.00  0.00    +0.000 A 
ATOM     14  C   UNL     1     -26.694 -54.812  51.850  0.00  0.00    +0.000 A 
ATOM     15  C   UNL     1     -28.419 -55.574  50.346  0.00  0.00    +0.000 A 
ATOM     16  C   UNL     1     -27.080 -55.296  50.602  0.00  0.00    +0.000 A 
BRANCH  14  17
ATOM     17  O   UNL     1     -25.365 -54.548  52.046  0.00  0.00    +0.000 OA
ATOM     18  H   UNL     1     -25.064 -53.949  51.341  0.00  0.00    +0.000 HD
ENDBRANCH  14  17
BRANCH  15  19
ATOM     19  O   UNL     1     -28.785 -56.046  49.119  0.00  0.00    +0.000 OA
ATOM     20  H   UNL     1     -29.397 -56.790  49.225  0.00  0.00    +0.000 HD
ENDBRANCH  15  19
BRANCH  16  21
ATOM     21  O   UNL     1     -26.127 -55.489  49.640  0.00  0.00    +0.000 OA
ATOM     22  H   UNL     1     -26.441 -56.261  49.132  0.00  0.00    +0.000 HD
ENDBRANCH  16  21
ENDBRANCH   3  11
BRANCH   7  23
ATOM     23  O   UNL     1     -33.857 -52.885  56.403  0.00  0.00    +0.000 OA
ATOM     24  H   UNL     1     -34.027 -52.736  55.458  0.00  0.00    +0.000 HD
ENDBRANCH   7  23
BRANCH  10  25
ATOM     25  O   UNL     1     -30.071 -52.425  59.230  0.00  0.00    +0.000 OA
ATOM     26  H   UNL     1     -29.100 -52.414  59.173  0.00  0.00    +0.000 HD
ENDBRANCH  10  25
BRANCH   2  27
ATOM     27  O   UNL     1     -30.836 -52.519  52.732  0.00  0.00    +0.000 OA
BRANCH  27  29
ATOM     28  O   UNL     1     -31.593 -52.272  50.579  0.00  0.00    +0.000 OA
ATOM     29  C   UNL     1     -31.542 -51.922  51.746  0.00  0.00    +0.000 C 
BRANCH  29  30
ATOM     30  C   UNL     1     -32.238 -50.724  52.282  0.00  0.00    +0.000 A 
ATOM     31  C   UNL     1     -33.566 -50.872  52.710  0.00  0.00    +0.000 A 
ATOM     32  C   UNL     1     -31.598 -49.476  52.373  0.00  0.00    +0.000 A 
ATOM     33  C   UNL     1     -32.294 -48.379  52.878  0.00  0.00    +0.000 A 
ATOM     34  C   UNL     1     -34.245 -49.767  53.208  0.00  0.00    +0.000 A 
ATOM     35  C   UNL     1     -33.616 -48.525  53.288  0.00  0.00    +0.000 A 
BRANCH  33  36
ATOM     36  O   UNL     1     -31.689 -47.158  52.972  0.00  0.00    +0.000 OA
ATOM     37  H   UNL     1     -32.235 -46.564  53.507  0.00  0.00    +0.000 HD
ENDBRANCH  33  36
BRANCH  34  38
ATOM     38  O   UNL     1     -35.543 -49.852  53.633  0.00  0.00    +0.000 OA
ATOM     39  H   UNL     1     -35.667 -50.706  54.085  0.00  0.00    +0.000 HD
ENDBRANCH  34  38
BRANCH  35  40
ATOM     40  O   UNL     1     -34.315 -47.458  53.784  0.00  0.00    +0.000 OA
ATOM     41  H   UNL     1     -34.956 -47.845  54.411  0.00  0.00    +0.000 HD
ENDBRANCH  35  40
ENDBRANCH  29  30
ENDBRANCH  27  29
ENDBRANCH   2  27
TORSDOF 12
ENDMDL
MODEL 8
REMARK VINA RESULT:      -6.4     15.039     17.206
REMARK  Name = 
REMARK  12 active torsions:
REMARK  status: ('A' for Active; 'I' for Inactive)
REMARK    1  A    between atoms: O_2  and  C_12
REMARK    2  A    between atoms: O_2  and  C_24
REMARK    3  A    between atoms: O_3  and  C_18
REMARK    4  A    between atoms: O_4  and  C_23
REMARK    5  A    between atoms: O_5  and  C_25
REMARK    6  A    between atoms: O_6  and  C_26
REMARK    7  A    between atoms: O_8  and  C_27
REMARK    8  A    between atoms: O_9  and  C_31
REMARK    9  A    between atoms: O_10  and  C_32
REMARK   10  A    between atoms: O_11  and  C_33
REMARK   11  A    between atoms: C_13  and  C_16
REMARK   12  A    between atoms: C_24  and  C_28
REMARK                            x       y       z     vdW  Elec       q    Type
REMARK                         _______ _______ _______ _____ _____    ______ ____
ROOT
ATOM      1  O   UNL     1     -33.264 -65.744  45.645  0.00  0.00    +0.000 OA
ATOM      2  C   UNL     1     -31.856 -64.696  43.905  0.00  0.00    +0.000 C 
ATOM      3  C   UNL     1     -32.322 -64.692  45.372  0.00  0.00    +0.000 C 
ATOM      4  C   UNL     1     -31.137 -66.017  43.632  0.00  0.00    +0.000 C 
ATOM      5  C   UNL     1     -31.882 -67.182  44.234  0.00  0.00    +0.000 A 
ATOM      6  C   UNL     1     -32.882 -66.979  45.194  0.00  0.00    +0.000 A 
ATOM      7  C   UNL     1     -31.571 -68.496  43.862  0.00  0.00    +0.000 A 
ATOM      8  C   UNL     1     -33.584 -68.059  45.733  0.00  0.00    +0.000 A 
ATOM      9  C   UNL     1     -32.257 -69.581  44.402  0.00  0.00    +0.000 A 
ATOM     10  C   UNL     1     -33.264 -69.352  45.332  0.00  0.00    +0.000 A 
ENDROOT
BRANCH   3  11
ATOM     11  C   UNL     1     -32.946 -63.358  45.758  0.00  0.00    +0.000 A 
ATOM     12  C   UNL     1     -34.347 -63.214  45.754  0.00  0.00    +0.000 A 
ATOM     13  C   UNL     1     -32.148 -62.269  46.156  0.00  0.00    +0.000 A 
ATOM     14  C   UNL     1     -32.748 -61.071  46.533  0.00  0.00    +0.000 A 
ATOM     15  C   UNL     1     -34.935 -62.004  46.132  0.00  0.00    +0.000 A 
ATOM     16  C   UNL     1     -34.134 -60.936  46.521  0.00  0.00    +0.000 A 
BRANCH  14  17
ATOM     17  O   UNL     1     -32.006 -59.991  46.932  0.00  0.00    +0.000 OA
ATOM     18  H   UNL     1     -31.532 -60.229  47.747  0.00  0.00    +0.000 HD
ENDBRANCH  14  17
BRANCH  15  19
ATOM     19  O   UNL     1     -36.292 -61.860  46.126  0.00  0.00    +0.000 OA
ATOM     20  H   UNL     1     -36.636 -61.981  47.024  0.00  0.00    +0.000 HD
ENDBRANCH  15  19
BRANCH  16  21
ATOM     21  O   UNL     1     -34.689 -59.744  46.899  0.00  0.00    +0.000 OA
ATOM     22  H   UNL     1     -34.564 -59.708  47.866  0.00  0.00    +0.000 HD
ENDBRANCH  16  21
ENDBRANCH   3  11
BRANCH   7  23
ATOM     23  O   UNL     1     -30.574 -68.698  42.949  0.00  0.00    +0.000 OA
ATOM     24  H   UNL     1     -30.973 -68.966  42.104  0.00  0.00    +0.000 HD
ENDBRANCH   7  23
BRANCH  10  25
ATOM     25  O   UNL     1     -33.918 -70.436  45.837  0.00  0.00    +0.000 OA
ATOM     26  H   UNL     1     -34.383 -70.888  45.113  0.00  0.00    +0.000 HD
ENDBRANCH  10  25
BRANCH   2  27
ATOM     27  O   UNL     1     -33.005 -64.596  43.028  0.00  0.00    +0.000 OA
BRANCH  27  29
ATOM     28  O   UNL     1     -32.251 -63.860  40.989  0.00  0.00    +0.000 OA
ATOM     29  C   UNL     1     -32.909 -63.717  42.006  0.00  0.00    +0.000 C 
BRANCH  29  30
ATOM     30  C   UNL     1     -33.703 -62.501  42.313  0.00  0.00    +0.000 A 
ATOM     31  C   UNL     1     -33.011 -61.344  42.705  0.00  0.00    +0.000 A 
ATOM     32  C   UNL     1     -35.105 -62.487  42.210  0.00  0.00    +0.000 A 
ATOM     33  C   UNL     1     -35.808 -61.323  42.514  0.00  0.00    +0.000 A 
ATOM     34  C   UNL     1     -33.729 -60.194  43.006  0.00  0.00    +0.000 A 
ATOM     35  C   UNL     1     -35.121 -60.182  42.916  0.00  0.00    +0.000 A 
BRANCH  33  36
ATOM     36  O   UNL     1     -37.170 -61.293  42.421  0.00  0.00    +0.000 OA
ATOM     37  H   UNL     1     -37.558 -61.324  43.308  0.00  0.00    +0.000 HD
ENDBRANCH  33  36
BRANCH  34  38
ATOM     38  O   UNL     1     -33.107 -59.040  43.399  0.00  0.00    +0.000 OA
ATOM     39  H   UNL     1     -33.719 -58.295  43.265  0.00  0.00    +0.000 HD
ENDBRANCH  34  38
BRANCH  35  40
ATOM     40  O   UNL     1     -35.795 -59.031  43.221  0.00  0.00    +0.000 OA
ATOM     41  H   UNL     1     -35.611 -58.425  42.477  0.00  0.00    +0.000 HD
ENDBRANCH  35  40
ENDBRANCH  29  30
ENDBRANCH  27  29
ENDBRANCH   2  27
TORSDOF 12
ENDMDL
MODEL 9
REMARK VINA RESULT:      -6.4      7.243     11.926
REMARK  Name = 
REMARK  12 active torsions:
REMARK  status: ('A' for Active; 'I' for Inactive)
REMARK    1  A    between atoms: O_2  and  C_12
REMARK    2  A    between atoms: O_2  and  C_24
REMARK    3  A    between atoms: O_3  and  C_18
REMARK    4  A    between atoms: O_4  and  C_23
REMARK    5  A    between atoms: O_5  and  C_25
REMARK    6  A    between atoms: O_6  and  C_26
REMARK    7  A    between atoms: O_8  and  C_27
REMARK    8  A    between atoms: O_9  and  C_31
REMARK    9  A    between atoms: O_10  and  C_32
REMARK   10  A    between atoms: O_11  and  C_33
REMARK   11  A    between atoms: C_13  and  C_16
REMARK   12  A    between atoms: C_24  and  C_28
REMARK                            x       y       z     vdW  Elec       q    Type
REMARK                         _______ _______ _______ _____ _____    ______ ____
ROOT
ATOM      1  O   UNL     1     -38.497 -42.836  50.095  0.00  0.00    +0.000 OA
ATOM      2  C   UNL     1     -37.330 -43.794  48.139  0.00  0.00    +0.000 C 
ATOM      3  C   UNL     1     -37.765 -43.972  49.604  0.00  0.00    +0.000 C 
ATOM      4  C   UNL     1     -38.585 -43.669  47.276  0.00  0.00    +0.000 C 
ATOM      5  C   UNL     1     -39.605 -42.764  47.919  0.00  0.00    +0.000 A 
ATOM      6  C   UNL     1     -39.505 -42.411  49.271  0.00  0.00    +0.000 A 
ATOM      7  C   UNL     1     -40.690 -42.275  47.181  0.00  0.00    +0.000 A 
ATOM      8  C   UNL     1     -40.440 -41.555  49.857  0.00  0.00    +0.000 A 
ATOM      9  C   UNL     1     -41.635 -41.430  47.759  0.00  0.00    +0.000 A 
ATOM     10  C   UNL     1     -41.499 -41.073  49.094  0.00  0.00    +0.000 A 
ENDROOT
BRANCH   3  11
ATOM     11  C   UNL     1     -36.573 -44.223  50.517  0.00  0.00    +0.000 A 
ATOM     12  C   UNL     1     -36.441 -43.491  51.714  0.00  0.00    +0.000 A 
ATOM     13  C   UNL     1     -35.610 -45.202  50.207  0.00  0.00    +0.000 A 
ATOM     14  C   UNL     1     -34.548 -45.431  51.075  0.00  0.00    +0.000 A 
ATOM     15  C   UNL     1     -35.367 -43.729  52.574  0.00  0.00    +0.000 A 
ATOM     16  C   UNL     1     -34.423 -44.698  52.253  0.00  0.00    +0.000 A 
BRANCH  14  17
ATOM     17  O   UNL     1     -33.595 -46.378  50.810  0.00  0.00    +0.000 OA
ATOM     18  H   UNL     1     -33.013 -46.451  51.586  0.00  0.00    +0.000 HD
ENDBRANCH  14  17
BRANCH  15  19
ATOM     19  O   UNL     1     -35.236 -43.019  53.733  0.00  0.00    +0.000 OA
ATOM     20  H   UNL     1     -34.383 -42.558  53.737  0.00  0.00    +0.000 HD
ENDBRANCH  15  19
BRANCH  16  21
ATOM     21  O   UNL     1     -33.365 -44.950  53.083  0.00  0.00    +0.000 OA
ATOM     22  H   UNL     1     -33.664 -44.650  53.963  0.00  0.00    +0.000 HD
ENDBRANCH  16  21
ENDBRANCH   3  11
BRANCH   7  23
ATOM     23  O   UNL     1     -40.808 -42.643  45.870  0.00  0.00    +0.000 OA
ATOM     24  H   UNL     1     -41.415 -43.399  45.810  0.00  0.00    +0.000 HD
ENDBRANCH   7  23
BRANCH  10  25
ATOM     25  O   UNL     1     -42.438 -40.242  49.627  0.00  0.00    +0.000 OA
ATOM     26  H   UNL     1     -41.990 -39.477  50.028  0.00  0.00    +0.000 HD
ENDBRANCH  10  25
BRANCH   2  27
ATOM     27  O   UNL     1     -36.545 -42.583  48.008  0.00  0.00    +0.000 OA
BRANCH  27  29
ATOM     28  O   UNL     1     -34.428 -43.354  47.572  0.00  0.00    +0.000 OA
ATOM     29  C   UNL     1     -35.404 -42.679  47.290  0.00  0.00    +0.000 C 
BRANCH  29  30
ATOM     30  C   UNL     1     -35.484 -41.798  46.098  0.00  0.00    +0.000 A 
ATOM     31  C   UNL     1     -34.283 -41.321  45.550  0.00  0.00    +0.000 A 
ATOM     32  C   UNL     1     -36.716 -41.449  45.517  0.00  0.00    +0.000 A 
ATOM     33  C   UNL     1     -36.742 -40.615  44.401  0.00  0.00    +0.000 A 
ATOM     34  C   UNL     1     -34.328 -40.488  44.439  0.00  0.00    +0.000 A 
ATOM     35  C   UNL     1     -35.550 -40.132  43.868  0.00  0.00    +0.000 A 
BRANCH  33  36
ATOM     36  O   UNL     1     -37.930 -40.264  43.825  0.00  0.00    +0.000 OA
ATOM     37  H   UNL     1     -37.851 -40.311  42.861  0.00  0.00    +0.000 HD
ENDBRANCH  33  36
BRANCH  34  38
ATOM     38  O   UNL     1     -33.189 -39.990  43.867  0.00  0.00    +0.000 OA
ATOM     39  H   UNL     1     -33.439 -39.436  43.106  0.00  0.00    +0.000 HD
ENDBRANCH  34  38
BRANCH  35  40
ATOM     40  O   UNL     1     -35.556 -39.309  42.775  0.00  0.00    +0.000 OA
ATOM     41  H   UNL     1     -35.567 -39.911  42.005  0.00  0.00    +0.000 HD
ENDBRANCH  35  40
ENDBRANCH  29  30
ENDBRANCH  27  29
ENDBRANCH   2  27
TORSDOF 12
ENDMDL
