MODEL 1
REMARK VINA RESULT:      -8.2      0.000      0.000
REMARK  Name = Estradiol.pdbqt.pdb
REMARK  2 active torsions:
REMARK  status: ('A' for Active; 'I' for Inactive)
REMARK    1  A    between atoms: C_5  and  O_19
REMARK    2  A    between atoms: C_18  and  O_21
REMARK                            x       y       z     vdW  Elec       q    Type
REMARK                         _______ _______ _______ _____ _____    ______ ____
ROOT
ATOM      1  C   UNL     1     -62.208 -66.558  39.551  0.00  0.00    +0.000 C 
ATOM      2  C   UNL     1     -63.138 -65.661  38.598  0.00  0.00    +0.000 C 
ATOM      3  C   UNL     1     -63.376 -66.025  37.192  0.00  0.00    +0.000 A 
ATOM      4  C   UNL     1     -63.024 -67.342  36.535  0.00  0.00    +0.000 A 
ATOM      5  C   UNL     1     -63.023 -66.621  40.860  0.00  0.00    +0.000 C 
ATOM      6  C   UNL     1     -62.066 -67.850  38.876  0.00  0.00    +0.000 C 
ATOM      7  C   UNL     1     -64.217 -65.176  39.406  0.00  0.00    +0.000 C 
ATOM      8  C   UNL     1     -62.414 -68.229  37.457  0.00  0.00    +0.000 C 
ATOM      9  C   UNL     1     -64.169 -65.786  40.784  0.00  0.00    +0.000 C 
ATOM     10  C   UNL     1     -64.031 -65.152  36.286  0.00  0.00    +0.000 A 
ATOM     11  C   UNL     1     -60.864 -65.817  39.778  0.00  0.00    +0.000 C 
ATOM     12  C   UNL     1     -63.291 -67.666  35.093  0.00  0.00    +0.000 A 
ATOM     13  C   UNL     1     -64.310 -65.486  34.842  0.00  0.00    +0.000 A 
ATOM     14  C   UNL     1     -63.941 -66.724  34.239  0.00  0.00    +0.000 A 
ATOM     15  C   UNL     1     -62.906 -68.893  34.552  0.00  0.00    +0.000 A 
ATOM     16  C   UNL     1     -64.189 -67.000  32.901  0.00  0.00    +0.000 A 
ATOM     17  C   UNL     1     -63.152 -69.177  33.209  0.00  0.00    +0.000 A 
ATOM     18  C   UNL     1     -63.787 -68.233  32.400  0.00  0.00    +0.000 A 
ENDROOT
BRANCH   5  19
ATOM     19  O   UNL     1     -62.929 -67.669  41.750  0.00  0.00    +0.000 OA
ATOM     20  H   UNL     1     -62.569 -68.469  41.328  0.00  0.00    +0.000 HD
ENDBRANCH   5  19
BRANCH  18  21
ATOM     21  O   UNL     1     -64.027 -68.502  31.083  0.00  0.00    +0.000 OA
ATOM     22  H   UNL     1     -63.176 -68.506  30.610  0.00  0.00    +0.000 HD
ENDBRANCH  18  21
TORSDOF 2
ENDMDL
MODEL 2
REMARK VINA RESULT:      -6.9     30.615     33.176
REMARK  Name = Estradiol.pdbqt.pdb
REMARK  2 active torsions:
REMARK  status: ('A' for Active; 'I' for Inactive)
REMARK    1  A    between atoms: C_5  and  O_19
REMARK    2  A    between atoms: C_18  and  O_21
REMARK                            x       y       z     vdW  Elec       q    Type
REMARK                         _______ _______ _______ _____ _____    ______ ____
ROOT
ATOM      1  C   UNL     1     -42.453 -75.353  64.086  0.00  0.00    +0.000 C 
ATOM      2  C   UNL     1     -42.379 -75.668  62.513  0.00  0.00    +0.000 C 
ATOM      3  C   UNL     1     -43.451 -76.403  61.824  0.00  0.00    +0.000 A 
ATOM      4  C   UNL     1     -44.818 -76.731  62.386  0.00  0.00    +0.000 A 
ATOM      5  C   UNL     1     -41.997 -73.881  64.159  0.00  0.00    +0.000 C 
ATOM      6  C   UNL     1     -43.849 -75.563  64.474  0.00  0.00    +0.000 C 
ATOM      7  C   UNL     1     -41.775 -74.529  61.888  0.00  0.00    +0.000 C 
ATOM      8  C   UNL     1     -44.963 -76.231  63.705  0.00  0.00    +0.000 C 
ATOM      9  C   UNL     1     -41.568 -73.418  62.887  0.00  0.00    +0.000 C 
ATOM     10  C   UNL     1     -43.318 -76.857  60.487  0.00  0.00    +0.000 A 
ATOM     11  C   UNL     1     -41.450 -76.274  64.827  0.00  0.00    +0.000 C 
ATOM     12  C   UNL     1     -45.881 -77.484  61.640  0.00  0.00    +0.000 A 
ATOM     13  C   UNL     1     -44.394 -77.602  59.736  0.00  0.00    +0.000 A 
ATOM     14  C   UNL     1     -45.663 -77.924  60.299  0.00  0.00    +0.000 A 
ATOM     15  C   UNL     1     -47.106 -77.776  62.241  0.00  0.00    +0.000 A 
ATOM     16  C   UNL     1     -46.630 -78.629  59.595  0.00  0.00    +0.000 A 
ATOM     17  C   UNL     1     -48.082 -78.484  61.539  0.00  0.00    +0.000 A 
ATOM     18  C   UNL     1     -47.836 -78.902  60.230  0.00  0.00    +0.000 A 
ENDROOT
BRANCH   5  19
ATOM     19  O   UNL     1     -42.396 -73.023  65.161  0.00  0.00    +0.000 OA
ATOM     20  H   UNL     1     -41.787 -73.049  65.922  0.00  0.00    +0.000 HD
ENDBRANCH   5  19
BRANCH  18  21
ATOM     21  O   UNL     1     -48.784 -79.600  59.539  0.00  0.00    +0.000 OA
ATOM     22  H   UNL     1     -49.597 -79.065  59.507  0.00  0.00    +0.000 HD
ENDBRANCH  18  21
TORSDOF 2
ENDMDL
MODEL 3
REMARK VINA RESULT:      -6.6     37.495     39.282
REMARK  Name = Estradiol.pdbqt.pdb
REMARK  2 active torsions:
REMARK  status: ('A' for Active; 'I' for Inactive)
REMARK    1  A    between atoms: C_5  and  O_19
REMARK    2  A    between atoms: C_18  and  O_21
REMARK                            x       y       z     vdW  Elec       q    Type
REMARK                         _______ _______ _______ _____ _____    ______ ____
ROOT
ATOM      1  C   UNL     1     -30.392 -52.165  54.170  0.00  0.00    +0.000 C 
ATOM      2  C   UNL     1     -31.976 -52.152  53.905  0.00  0.00    +0.000 C 
ATOM      3  C   UNL     1     -32.698 -50.902  53.621  0.00  0.00    +0.000 A 
ATOM      4  C   UNL     1     -32.075 -49.561  53.297  0.00  0.00    +0.000 A 
ATOM      5  C   UNL     1     -29.920 -53.379  53.342  0.00  0.00    +0.000 C 
ATOM      6  C   UNL     1     -29.891 -50.880  53.681  0.00  0.00    +0.000 C 
ATOM      7  C   UNL     1     -32.285 -53.342  53.169  0.00  0.00    +0.000 C 
ATOM      8  C   UNL     1     -30.660 -49.640  53.295  0.00  0.00    +0.000 C 
ATOM      9  C   UNL     1     -31.026 -54.081  52.794  0.00  0.00    +0.000 C 
ATOM     10  C   UNL     1     -34.114 -50.841  53.575  0.00  0.00    +0.000 A 
ATOM     11  C   UNL     1     -30.142 -52.404  55.682  0.00  0.00    +0.000 C 
ATOM     12  C   UNL     1     -32.858 -48.312  53.011  0.00  0.00    +0.000 A 
ATOM     13  C   UNL     1     -34.897 -49.587  53.274  0.00  0.00    +0.000 A 
ATOM     14  C   UNL     1     -34.286 -48.328  53.001  0.00  0.00    +0.000 A 
ATOM     15  C   UNL     1     -32.209 -47.105  52.753  0.00  0.00    +0.000 A 
ATOM     16  C   UNL     1     -35.028 -47.183  52.748  0.00  0.00    +0.000 A 
ATOM     17  C   UNL     1     -32.948 -45.949  52.498  0.00  0.00    +0.000 A 
ATOM     18  C   UNL     1     -34.343 -45.999  52.498  0.00  0.00    +0.000 A 
ENDROOT
BRANCH   5  19
ATOM     19  O   UNL     1     -28.648 -53.478  52.819  0.00  0.00    +0.000 OA
ATOM     20  H   UNL     1     -28.337 -52.626  52.465  0.00  0.00    +0.000 HD
ENDBRANCH   5  19
BRANCH  18  21
ATOM     21  O   UNL     1     -35.074 -44.871  52.254  0.00  0.00    +0.000 OA
ATOM     22  H   UNL     1     -34.734 -44.455  51.443  0.00  0.00    +0.000 HD
ENDBRANCH  18  21
TORSDOF 2
ENDMDL
MODEL 4
REMARK VINA RESULT:      -6.4     35.184     36.605
REMARK  Name = Estradiol.pdbqt.pdb
REMARK  2 active torsions:
REMARK  status: ('A' for Active; 'I' for Inactive)
REMARK    1  A    between atoms: C_5  and  O_19
REMARK    2  A    between atoms: C_18  and  O_21
REMARK                            x       y       z     vdW  Elec       q    Type
REMARK                         _______ _______ _______ _____ _____    ______ ____
ROOT
ATOM      1  C   UNL     1     -42.723 -38.751  50.500  0.00  0.00    +0.000 C 
ATOM      2  C   UNL     1     -42.870 -39.695  49.210  0.00  0.00    +0.000 C 
ATOM      3  C   UNL     1     -41.830 -40.673  48.850  0.00  0.00    +0.000 A 
ATOM      4  C   UNL     1     -40.664 -41.100  49.714  0.00  0.00    +0.000 A 
ATOM      5  C   UNL     1     -44.130 -38.819  51.132  0.00  0.00    +0.000 C 
ATOM      6  C   UNL     1     -41.672 -39.352  51.323  0.00  0.00    +0.000 C 
ATOM      7  C   UNL     1     -44.254 -40.051  49.109  0.00  0.00    +0.000 C 
ATOM      8  C   UNL     1     -40.679 -40.431  50.964  0.00  0.00    +0.000 C 
ATOM      9  C   UNL     1     -45.025 -39.544  50.301  0.00  0.00    +0.000 C 
ATOM     10  C   UNL     1     -41.848 -41.375  47.618  0.00  0.00    +0.000 A 
ATOM     11  C   UNL     1     -42.405 -37.308  50.029  0.00  0.00    +0.000 C 
ATOM     12  C   UNL     1     -39.629 -42.106  49.301  0.00  0.00    +0.000 A 
ATOM     13  C   UNL     1     -40.813 -42.395  47.211  0.00  0.00    +0.000 A 
ATOM     14  C   UNL     1     -39.706 -42.759  48.033  0.00  0.00    +0.000 A 
ATOM     15  C   UNL     1     -38.563 -42.423  50.144  0.00  0.00    +0.000 A 
ATOM     16  C   UNL     1     -38.755 -43.685  47.629  0.00  0.00    +0.000 A 
ATOM     17  C   UNL     1     -37.603 -43.352  49.743  0.00  0.00    +0.000 A 
ATOM     18  C   UNL     1     -37.707 -43.971  48.496  0.00  0.00    +0.000 A 
ENDROOT
BRANCH   5  19
ATOM     19  O   UNL     1     -44.354 -38.640  52.480  0.00  0.00    +0.000 OA
ATOM     20  H   UNL     1     -43.574 -38.886  53.011  0.00  0.00    +0.000 HD
ENDBRANCH   5  19
BRANCH  18  21
ATOM     21  O   UNL     1     -36.768 -44.878  48.095  0.00  0.00    +0.000 OA
ATOM     22  H   UNL     1     -36.136 -45.009  48.824  0.00  0.00    +0.000 HD
ENDBRANCH  18  21
TORSDOF 2
ENDMDL
MODEL 5
REMARK VINA RESULT:      -6.4      4.263      6.413
REMARK  Name = Estradiol.pdbqt.pdb
REMARK  2 active torsions:
REMARK  status: ('A' for Active; 'I' for Inactive)
REMARK    1  A    between atoms: C_5  and  O_19
REMARK    2  A    between atoms: C_18  and  O_21
REMARK                            x       y       z     vdW  Elec       q    Type
REMARK                         _______ _______ _______ _____ _____    ______ ____
ROOT
ATOM      1  C   UNL     1     -66.051 -69.253  42.148  0.00  0.00    +0.000 C 
ATOM      2  C   UNL     1     -65.657 -68.949  40.622  0.00  0.00    +0.000 C 
ATOM      3  C   UNL     1     -64.938 -67.722  40.243  0.00  0.00    +0.000 A 
ATOM      4  C   UNL     1     -64.272 -66.745  41.187  0.00  0.00    +0.000 A 
ATOM      5  C   UNL     1     -65.683 -70.743  42.304  0.00  0.00    +0.000 C 
ATOM      6  C   UNL     1     -65.236 -68.351  42.963  0.00  0.00    +0.000 C 
ATOM      7  C   UNL     1     -65.300 -70.202  40.027  0.00  0.00    +0.000 C 
ATOM      8  C   UNL     1     -64.419 -67.154  42.536  0.00  0.00    +0.000 C 
ATOM      9  C   UNL     1     -65.283 -71.300  41.060  0.00  0.00    +0.000 C 
ATOM     10  C   UNL     1     -64.751 -67.344  38.889  0.00  0.00    +0.000 A 
ATOM     11  C   UNL     1     -67.579 -69.046  42.319  0.00  0.00    +0.000 C 
ATOM     12  C   UNL     1     -63.547 -65.505  40.749  0.00  0.00    +0.000 A 
ATOM     13  C   UNL     1     -64.010 -66.104  38.451  0.00  0.00    +0.000 A 
ATOM     14  C   UNL     1     -63.417 -65.184  39.364  0.00  0.00    +0.000 A 
ATOM     15  C   UNL     1     -62.987 -64.636  41.685  0.00  0.00    +0.000 A 
ATOM     16  C   UNL     1     -62.758 -64.038  38.938  0.00  0.00    +0.000 A 
ATOM     17  C   UNL     1     -62.324 -63.483  41.265  0.00  0.00    +0.000 A 
ATOM     18  C   UNL     1     -62.217 -63.196  39.902  0.00  0.00    +0.000 A 
ENDROOT
BRANCH   5  19
ATOM     19  O   UNL     1     -65.331 -71.304  43.512  0.00  0.00    +0.000 OA
ATOM     20  H   UNL     1     -64.392 -71.567  43.528  0.00  0.00    +0.000 HD
ENDBRANCH   5  19
BRANCH  18  21
ATOM     21  O   UNL     1     -61.573 -62.067  39.483  0.00  0.00    +0.000 OA
ATOM     22  H   UNL     1     -61.409 -62.144  38.526  0.00  0.00    +0.000 HD
ENDBRANCH  18  21
TORSDOF 2
ENDMDL
MODEL 6
REMARK VINA RESULT:      -6.4     38.038     39.709
REMARK  Name = Estradiol.pdbqt.pdb
REMARK  2 active torsions:
REMARK  status: ('A' for Active; 'I' for Inactive)
REMARK    1  A    between atoms: C_5  and  O_19
REMARK    2  A    between atoms: C_18  and  O_21
REMARK                            x       y       z     vdW  Elec       q    Type
REMARK                         _______ _______ _______ _____ _____    ______ ____
ROOT
ATOM      1  C   UNL     1     -32.792 -47.892  51.519  0.00  0.00    +0.000 C 
ATOM      2  C   UNL     1     -33.645 -48.953  52.370  0.00  0.00    +0.000 C 
ATOM      3  C   UNL     1     -32.991 -49.997  53.175  0.00  0.00    +0.000 A 
ATOM      4  C   UNL     1     -31.519 -50.075  53.516  0.00  0.00    +0.000 A 
ATOM      5  C   UNL     1     -33.513 -46.560  51.815  0.00  0.00    +0.000 C 
ATOM      6  C   UNL     1     -31.427 -47.958  52.043  0.00  0.00    +0.000 C 
ATOM      7  C   UNL     1     -34.781 -48.252  52.890  0.00  0.00    +0.000 C 
ATOM      8  C   UNL     1     -30.804 -48.987  52.955  0.00  0.00    +0.000 C 
ATOM      9  C   UNL     1     -34.689 -46.780  52.581  0.00  0.00    +0.000 C 
ATOM     10  C   UNL     1     -33.720 -51.055  53.775  0.00  0.00    +0.000 A 
ATOM     11  C   UNL     1     -32.906 -48.252  50.014  0.00  0.00    +0.000 C 
ATOM     12  C   UNL     1     -30.900 -51.163  54.345  0.00  0.00    +0.000 A 
ATOM     13  C   UNL     1     -33.096 -52.139  54.619  0.00  0.00    +0.000 A 
ATOM     14  C   UNL     1     -31.701 -52.206  54.901  0.00  0.00    +0.000 A 
ATOM     15  C   UNL     1     -29.526 -51.182  54.589  0.00  0.00    +0.000 A 
ATOM     16  C   UNL     1     -31.146 -53.226  55.663  0.00  0.00    +0.000 A 
ATOM     17  C   UNL     1     -28.963 -52.204  55.354  0.00  0.00    +0.000 A 
ATOM     18  C   UNL     1     -29.774 -53.211  55.880  0.00  0.00    +0.000 A 
ENDROOT
BRANCH   5  19
ATOM     19  O   UNL     1     -32.876 -45.339  51.773  0.00  0.00    +0.000 OA
ATOM     20  H   UNL     1     -31.913 -45.438  51.666  0.00  0.00    +0.000 HD
ENDBRANCH   5  19
BRANCH  18  21
ATOM     21  O   UNL     1     -29.228 -54.217  56.626  0.00  0.00    +0.000 OA
ATOM     22  H   UNL     1     -29.897 -54.917  56.732  0.00  0.00    +0.000 HD
ENDBRANCH  18  21
TORSDOF 2
ENDMDL
MODEL 7
REMARK VINA RESULT:      -6.3     30.772     33.420
REMARK  Name = Estradiol.pdbqt.pdb
REMARK  2 active torsions:
REMARK  status: ('A' for Active; 'I' for Inactive)
REMARK    1  A    between atoms: C_5  and  O_19
REMARK    2  A    between atoms: C_18  and  O_21
REMARK                            x       y       z     vdW  Elec       q    Type
REMARK                         _______ _______ _______ _____ _____    ______ ____
ROOT
ATOM      1  C   UNL     1     -42.294 -75.049  64.449  0.00  0.00    +0.000 C 
ATOM      2  C   UNL     1     -41.668 -74.784  62.994  0.00  0.00    +0.000 C 
ATOM      3  C   UNL     1     -42.134 -75.523  61.810  0.00  0.00    +0.000 A 
ATOM      4  C   UNL     1     -43.364 -76.401  61.728  0.00  0.00    +0.000 A 
ATOM      5  C   UNL     1     -42.483 -73.620  65.002  0.00  0.00    +0.000 C 
ATOM      6  C   UNL     1     -43.547 -75.770  64.224  0.00  0.00    +0.000 C 
ATOM      7  C   UNL     1     -41.405 -73.378  62.903  0.00  0.00    +0.000 C 
ATOM      8  C   UNL     1     -44.053 -76.436  62.967  0.00  0.00    +0.000 C 
ATOM      9  C   UNL     1     -41.931 -72.656  64.117  0.00  0.00    +0.000 C 
ATOM     10  C   UNL     1     -41.469 -75.445  60.560  0.00  0.00    +0.000 A 
ATOM     11  C   UNL     1     -41.261 -75.832  65.300  0.00  0.00    +0.000 C 
ATOM     12  C   UNL     1     -43.800 -77.134  60.493  0.00  0.00    +0.000 A 
ATOM     13  C   UNL     1     -41.916 -76.174  59.317  0.00  0.00    +0.000 A 
ATOM     14  C   UNL     1     -43.064 -77.018  59.274  0.00  0.00    +0.000 A 
ATOM     15  C   UNL     1     -44.930 -77.952  60.507  0.00  0.00    +0.000 A 
ATOM     16  C   UNL     1     -43.444 -77.695  58.124  0.00  0.00    +0.000 A 
ATOM     17  C   UNL     1     -45.318 -78.635  59.354  0.00  0.00    +0.000 A 
ATOM     18  C   UNL     1     -44.575 -78.501  58.180  0.00  0.00    +0.000 A 
ENDROOT
BRANCH   5  19
ATOM     19  O   UNL     1     -43.445 -73.302  65.936  0.00  0.00    +0.000 OA
ATOM     20  H   UNL     1     -44.248 -73.843  65.826  0.00  0.00    +0.000 HD
ENDBRANCH   5  19
BRANCH  18  21
ATOM     21  O   UNL     1     -44.945 -79.171  57.048  0.00  0.00    +0.000 OA
ATOM     22  H   UNL     1     -44.191 -79.708  56.749  0.00  0.00    +0.000 HD
ENDBRANCH  18  21
TORSDOF 2
ENDMDL
MODEL 8
REMARK VINA RESULT:      -6.2     33.512     35.113
REMARK  Name = Estradiol.pdbqt.pdb
REMARK  2 active torsions:
REMARK  status: ('A' for Active; 'I' for Inactive)
REMARK    1  A    between atoms: C_5  and  O_19
REMARK    2  A    between atoms: C_18  and  O_21
REMARK                            x       y       z     vdW  Elec       q    Type
REMARK                         _______ _______ _______ _____ _____    ______ ____
ROOT
ATOM      1  C   UNL     1     -42.091 -76.300  61.992  0.00  0.00    +0.000 C 
ATOM      2  C   UNL     1     -41.953 -75.533  63.395  0.00  0.00    +0.000 C 
ATOM      3  C   UNL     1     -43.123 -75.280  64.252  0.00  0.00    +0.000 A 
ATOM      4  C   UNL     1     -44.501 -75.884  64.088  0.00  0.00    +0.000 A 
ATOM      5  C   UNL     1     -40.894 -77.274  62.018  0.00  0.00    +0.000 C 
ATOM      6  C   UNL     1     -43.396 -76.961  62.020  0.00  0.00    +0.000 C 
ATOM      7  C   UNL     1     -40.714 -75.952  63.979  0.00  0.00    +0.000 C 
ATOM      8  C   UNL     1     -44.548 -76.759  62.974  0.00  0.00    +0.000 C 
ATOM      9  C   UNL     1     -40.076 -77.042  63.156  0.00  0.00    +0.000 C 
ATOM     10  C   UNL     1     -43.056 -74.442  65.394  0.00  0.00    +0.000 A 
ATOM     11  C   UNL     1     -41.932 -75.270  60.843  0.00  0.00    +0.000 C 
ATOM     12  C   UNL     1     -45.663 -75.595  64.993  0.00  0.00    +0.000 A 
ATOM     13  C   UNL     1     -44.223 -74.164  66.309  0.00  0.00    +0.000 A 
ATOM     14  C   UNL     1     -45.520 -74.724  66.115  0.00  0.00    +0.000 A 
ATOM     15  C   UNL     1     -46.913 -76.167  64.756  0.00  0.00    +0.000 A 
ATOM     16  C   UNL     1     -46.585 -74.437  66.959  0.00  0.00    +0.000 A 
ATOM     17  C   UNL     1     -47.988 -75.883  65.600  0.00  0.00    +0.000 A 
ATOM     18  C   UNL     1     -47.814 -75.024  66.687  0.00  0.00    +0.000 A 
ENDROOT
BRANCH   5  19
ATOM     19  O   UNL     1     -40.889 -78.471  61.336  0.00  0.00    +0.000 OA
ATOM     20  H   UNL     1     -40.090 -78.571  60.788  0.00  0.00    +0.000 HD
ENDBRANCH   5  19
BRANCH  18  21
ATOM     21  O   UNL     1     -48.862 -74.738  67.514  0.00  0.00    +0.000 OA
ATOM     22  H   UNL     1     -48.543 -74.151  68.222  0.00  0.00    +0.000 HD
ENDBRANCH  18  21
TORSDOF 2
ENDMDL
MODEL 9
REMARK VINA RESULT:      -6.0     35.342     36.143
REMARK  Name = Estradiol.pdbqt.pdb
REMARK  2 active torsions:
REMARK  status: ('A' for Active; 'I' for Inactive)
REMARK    1  A    between atoms: C_5  and  O_19
REMARK    2  A    between atoms: C_18  and  O_21
REMARK                            x       y       z     vdW  Elec       q    Type
REMARK                         _______ _______ _______ _____ _____    ______ ____
ROOT
ATOM      1  C   UNL     1     -47.897 -37.254  53.278  0.00  0.00    +0.000 C 
ATOM      2  C   UNL     1     -47.911 -37.224  51.672  0.00  0.00    +0.000 C 
ATOM      3  C   UNL     1     -46.887 -37.923  50.881  0.00  0.00    +0.000 A 
ATOM      4  C   UNL     1     -45.879 -38.924  51.403  0.00  0.00    +0.000 A 
ATOM      5  C   UNL     1     -49.380 -37.501  53.626  0.00  0.00    +0.000 C 
ATOM      6  C   UNL     1     -47.006 -38.354  53.653  0.00  0.00    +0.000 C 
ATOM      7  C   UNL     1     -49.285 -37.271  51.268  0.00  0.00    +0.000 C 
ATOM      8  C   UNL     1     -46.033 -39.128  52.797  0.00  0.00    +0.000 C 
ATOM      9  C   UNL     1     -50.187 -37.472  52.458  0.00  0.00    +0.000 C 
ATOM     10  C   UNL     1     -46.769 -37.752  49.478  0.00  0.00    +0.000 A 
ATOM     11  C   UNL     1     -47.437 -35.867  53.798  0.00  0.00    +0.000 C 
ATOM     12  C   UNL     1     -44.852 -39.613  50.552  0.00  0.00    +0.000 A 
ATOM     13  C   UNL     1     -45.744 -38.456  48.623  0.00  0.00    +0.000 A 
ATOM     14  C   UNL     1     -44.786 -39.374  49.145  0.00  0.00    +0.000 A 
ATOM     15  C   UNL     1     -43.934 -40.500  51.115  0.00  0.00    +0.000 A 
ATOM     16  C   UNL     1     -43.839 -39.994  48.342  0.00  0.00    +0.000 A 
ATOM     17  C   UNL     1     -42.980 -41.127  50.313  0.00  0.00    +0.000 A 
ATOM     18  C   UNL     1     -42.941 -40.869  48.942  0.00  0.00    +0.000 A 
ENDROOT
BRANCH   5  19
ATOM     19  O   UNL     1     -49.781 -38.127  54.787  0.00  0.00    +0.000 OA
ATOM     20  H   UNL     1     -50.538 -38.720  54.633  0.00  0.00    +0.000 HD
ENDBRANCH   5  19
BRANCH  18  21
ATOM     21  O   UNL     1     -42.006 -41.475  48.151  0.00  0.00    +0.000 OA
ATOM     22  H   UNL     1     -41.140 -41.068  48.334  0.00  0.00    +0.000 HD
ENDBRANCH  18  21
TORSDOF 2
ENDMDL
