MODEL 1
REMARK VINA RESULT:      -7.1      0.000      0.000
REMARK  Name = 
REMARK  11 active torsions:
REMARK  status: ('A' for Active; 'I' for Inactive)
REMARK    1  A    between atoms: O_1  and  C_16
REMARK    2  A    between atoms: O_1  and  C_22
REMARK    3  A    between atoms: O_6  and  C_24
REMARK    4  A    between atoms: O_8  and  C_26
REMARK    5  A    between atoms: O_11  and  C_36
REMARK    6  A    between atoms: O_11  and  C_41
REMARK    7  A    between atoms: O_12  and  C_37
REMARK    8  A    between atoms: O_12  and  C_42
REMARK    9  A    between atoms: O_13  and  C_39
REMARK   10  A    between atoms: C_17  and  C_23
REMARK   11  A    between atoms: C_35  and  C_40
REMARK                            x       y       z     vdW  Elec       q    Type
REMARK                         _______ _______ _______ _____ _____    ______ ____
ROOT
ATOM      1  O   UNL     1     -66.725 -73.160  43.192  0.00  0.00    +0.000 OA
ATOM      2  O   UNL     1     -67.902 -71.795  44.609  0.00  0.00    +0.000 OA
ATOM      3  O   UNL     1     -63.777 -66.252  39.404  0.00  0.00    +0.000 OA
ATOM      4  O   UNL     1     -65.518 -65.223  40.720  0.00  0.00    +0.000 OA
ATOM      5  C   UNL     1     -65.912 -71.564  41.722  0.00  0.00    +0.000 C 
ATOM      6  C   UNL     1     -66.343 -70.860  42.994  0.00  0.00    +0.000 C 
ATOM      7  C   UNL     1     -64.758 -70.816  41.067  0.00  0.00    +0.000 C 
ATOM      8  C   UNL     1     -67.026 -69.531  42.675  0.00  0.00    +0.000 C 
ATOM      9  C   UNL     1     -65.048 -69.317  41.005  0.00  0.00    +0.000 A 
ATOM     10  C   UNL     1     -66.082 -68.704  41.785  0.00  0.00    +0.000 A 
ATOM     11  C   UNL     1     -65.666 -72.958  42.241  0.00  0.00    +0.000 C 
ATOM     12  C   UNL     1     -67.117 -71.941  43.687  0.00  0.00    +0.000 C 
ATOM     13  C   UNL     1     -64.238 -68.514  40.179  0.00  0.00    +0.000 A 
ATOM     14  C   UNL     1     -66.280 -67.309  41.719  0.00  0.00    +0.000 A 
ATOM     15  C   UNL     1     -64.469 -67.155  40.148  0.00  0.00    +0.000 A 
ATOM     16  C   UNL     1     -65.459 -66.570  40.896  0.00  0.00    +0.000 A 
ATOM     17  C   UNL     1     -64.449 -65.028  39.770  0.00  0.00    +0.000 C 
ENDROOT
BRANCH   8  18
ATOM     18  C   UNL     1     -68.440 -69.653  42.101  0.00  0.00    +0.000 A 
ATOM     19  C   UNL     1     -69.596 -69.569  42.896  0.00  0.00    +0.000 A 
ATOM     20  C   UNL     1     -68.603 -69.846  40.718  0.00  0.00    +0.000 A 
ATOM     21  C   UNL     1     -69.876 -69.926  40.152  0.00  0.00    +0.000 A 
ATOM     22  C   UNL     1     -70.885 -69.668  42.353  0.00  0.00    +0.000 A 
ATOM     23  C   UNL     1     -71.012 -69.846  40.975  0.00  0.00    +0.000 A 
BRANCH  21  24
ATOM     24  O   UNL     1     -70.144 -70.090  38.813  0.00  0.00    +0.000 OA
ATOM     25  C   UNL     1     -69.168 -70.802  38.056  0.00  0.00    +0.000 C 
ENDBRANCH  21  24
BRANCH  22  26
ATOM     26  O   UNL     1     -71.871 -69.558  43.296  0.00  0.00    +0.000 OA
ATOM     27  C   UNL     1     -72.338 -68.257  43.625  0.00  0.00    +0.000 C 
ENDBRANCH  22  26
BRANCH  23  28
ATOM     28  O   UNL     1     -72.238 -69.937  40.363  0.00  0.00    +0.000 OA
ATOM     29  H   UNL     1     -72.134 -69.455  39.519  0.00  0.00    +0.000 HD
ENDBRANCH  23  28
ENDBRANCH   8  18
BRANCH   7  30
ATOM     30  O   UNL     1     -63.579 -70.972  41.858  0.00  0.00    +0.000 OA
BRANCH  30  34
ATOM     31  O   UNL     1     -61.982 -72.090  40.567  0.00  0.00    +0.000 OA
ATOM     32  O   UNL     1     -58.382 -71.537  40.058  0.00  0.00    +0.000 OA
ATOM     33  O   UNL     1     -59.118 -73.198  38.546  0.00  0.00    +0.000 OA
ATOM     34  C   UNL     1     -62.371 -70.823  41.101  0.00  0.00    +0.000 C 
ATOM     35  C   UNL     1     -61.308 -70.244  42.062  0.00  0.00    +0.000 C 
ATOM     36  C   UNL     1     -59.616 -71.597  40.782  0.00  0.00    +0.000 C 
ATOM     37  C   UNL     1     -59.918 -70.237  41.411  0.00  0.00    +0.000 C 
ATOM     38  C   UNL     1     -60.757 -71.987  39.847  0.00  0.00    +0.000 C 
ATOM     39  C   UNL     1     -60.383 -73.314  39.195  0.00  0.00    +0.000 C 
ATOM     40  C   UNL     1     -58.095 -72.806  39.461  0.00  0.00    +0.000 C 
ATOM     41  C   UNL     1     -56.796 -72.675  38.688  0.00  0.00    +0.000 C 
BRANCH  35  42
ATOM     42  O   UNL     1     -61.686 -68.907  42.431  0.00  0.00    +0.000 OA
ATOM     43  H   UNL     1     -61.018 -68.318  42.029  0.00  0.00    +0.000 HD
ENDBRANCH  35  42
BRANCH  37  44
ATOM     44  O   UNL     1     -58.910 -69.958  42.397  0.00  0.00    +0.000 OA
ATOM     45  H   UNL     1     -58.618 -69.042  42.230  0.00  0.00    +0.000 HD
ENDBRANCH  37  44
ENDBRANCH  30  34
ENDBRANCH   7  30
TORSDOF 8
ENDMDL
MODEL 2
REMARK VINA RESULT:      -7.1     29.781     35.598
REMARK  Name = 
REMARK  11 active torsions:
REMARK  status: ('A' for Active; 'I' for Inactive)
REMARK    1  A    between atoms: O_1  and  C_16
REMARK    2  A    between atoms: O_1  and  C_22
REMARK    3  A    between atoms: O_6  and  C_24
REMARK    4  A    between atoms: O_8  and  C_26
REMARK    5  A    between atoms: O_11  and  C_36
REMARK    6  A    between atoms: O_11  and  C_41
REMARK    7  A    between atoms: O_12  and  C_37
REMARK    8  A    between atoms: O_12  and  C_42
REMARK    9  A    between atoms: O_13  and  C_39
REMARK   10  A    between atoms: C_17  and  C_23
REMARK   11  A    between atoms: C_35  and  C_40
REMARK                            x       y       z     vdW  Elec       q    Type
REMARK                         _______ _______ _______ _____ _____    ______ ____
ROOT
ATOM      1  O   UNL     1     -29.207 -58.524  43.596  0.00  0.00    +0.000 OA
ATOM      2  O   UNL     1     -29.040 -56.585  44.808  0.00  0.00    +0.000 OA
ATOM      3  O   UNL     1     -35.879 -60.577  48.290  0.00  0.00    +0.000 OA
ATOM      4  O   UNL     1     -35.064 -58.734  49.614  0.00  0.00    +0.000 OA
ATOM      5  C   UNL     1     -30.877 -59.580  44.805  0.00  0.00    +0.000 C 
ATOM      6  C   UNL     1     -30.909 -58.103  45.146  0.00  0.00    +0.000 C 
ATOM      7  C   UNL     1     -32.273 -60.180  44.913  0.00  0.00    +0.000 C 
ATOM      8  C   UNL     1     -31.182 -57.893  46.634  0.00  0.00    +0.000 C 
ATOM      9  C   UNL     1     -32.952 -59.748  46.212  0.00  0.00    +0.000 A 
ATOM     10  C   UNL     1     -32.468 -58.653  47.002  0.00  0.00    +0.000 A 
ATOM     11  C   UNL     1     -30.209 -59.544  43.454  0.00  0.00    +0.000 C 
ATOM     12  C   UNL     1     -29.612 -57.632  44.559  0.00  0.00    +0.000 C 
ATOM     13  C   UNL     1     -34.114 -60.431  46.618  0.00  0.00    +0.000 A 
ATOM     14  C   UNL     1     -33.157 -58.272  48.171  0.00  0.00    +0.000 A 
ATOM     15  C   UNL     1     -34.753 -60.021  47.769  0.00  0.00    +0.000 A 
ATOM     16  C   UNL     1     -34.289 -58.973  48.522  0.00  0.00    +0.000 A 
ATOM     17  C   UNL     1     -36.070 -59.757  49.461  0.00  0.00    +0.000 C 
ENDROOT
BRANCH   8  18
ATOM     18  C   UNL     1     -30.006 -58.220  47.558  0.00  0.00    +0.000 A 
ATOM     19  C   UNL     1     -29.180 -57.231  48.121  0.00  0.00    +0.000 A 
ATOM     20  C   UNL     1     -29.737 -59.562  47.875  0.00  0.00    +0.000 A 
ATOM     21  C   UNL     1     -28.697 -59.898  48.742  0.00  0.00    +0.000 A 
ATOM     22  C   UNL     1     -28.116 -57.546  48.978  0.00  0.00    +0.000 A 
ATOM     23  C   UNL     1     -27.884 -58.887  49.283  0.00  0.00    +0.000 A 
BRANCH  21  24
ATOM     24  O   UNL     1     -28.366 -61.175  49.134  0.00  0.00    +0.000 OA
ATOM     25  C   UNL     1     -28.270 -62.148  48.097  0.00  0.00    +0.000 C 
ENDBRANCH  21  24
BRANCH  22  26
ATOM     26  O   UNL     1     -27.440 -56.439  49.417  0.00  0.00    +0.000 OA
ATOM     27  C   UNL     1     -27.804 -55.891  50.676  0.00  0.00    +0.000 C 
ENDBRANCH  22  26
BRANCH  23  28
ATOM     28  O   UNL     1     -26.873 -59.278  50.125  0.00  0.00    +0.000 OA
ATOM     29  H   UNL     1     -27.205 -60.089  50.558  0.00  0.00    +0.000 HD
ENDBRANCH  23  28
ENDBRANCH   8  18
BRANCH   7  30
ATOM     30  O   UNL     1     -33.085 -59.690  43.846  0.00  0.00    +0.000 OA
BRANCH  30  34
ATOM     31  O   UNL     1     -33.367 -61.638  42.584  0.00  0.00    +0.000 OA
ATOM     32  O   UNL     1     -36.162 -62.881  40.541  0.00  0.00    +0.000 OA
ATOM     33  O   UNL     1     -34.532 -64.584  40.717  0.00  0.00    +0.000 OA
ATOM     34  C   UNL     1     -34.036 -60.653  43.375  0.00  0.00    +0.000 C 
ATOM     35  C   UNL     1     -35.098 -59.876  42.564  0.00  0.00    +0.000 C 
ATOM     36  C   UNL     1     -35.264 -61.913  41.095  0.00  0.00    +0.000 C 
ATOM     37  C   UNL     1     -36.053 -60.836  41.839  0.00  0.00    +0.000 C 
ATOM     38  C   UNL     1     -34.292 -62.587  42.059  0.00  0.00    +0.000 C 
ATOM     39  C   UNL     1     -33.576 -63.693  41.291  0.00  0.00    +0.000 C 
ATOM     40  C   UNL     1     -35.430 -63.896  39.847  0.00  0.00    +0.000 C 
ATOM     41  C   UNL     1     -36.427 -64.905  39.307  0.00  0.00    +0.000 C 
BRANCH  35  42
ATOM     42  O   UNL     1     -35.839 -59.024  43.454  0.00  0.00    +0.000 OA
ATOM     43  H   UNL     1     -35.994 -58.193  42.964  0.00  0.00    +0.000 HD
ENDBRANCH  35  42
BRANCH  37  44
ATOM     44  O   UNL     1     -36.850 -60.115  40.885  0.00  0.00    +0.000 OA
ATOM     45  H   UNL     1     -36.936 -60.702  40.110  0.00  0.00    +0.000 HD
ENDBRANCH  37  44
ENDBRANCH  30  34
ENDBRANCH   7  30
TORSDOF 8
ENDMDL
MODEL 3
REMARK VINA RESULT:      -7.0     20.161     23.008
REMARK  Name = 
REMARK  11 active torsions:
REMARK  status: ('A' for Active; 'I' for Inactive)
REMARK    1  A    between atoms: O_1  and  C_16
REMARK    2  A    between atoms: O_1  and  C_22
REMARK    3  A    between atoms: O_6  and  C_24
REMARK    4  A    between atoms: O_8  and  C_26
REMARK    5  A    between atoms: O_11  and  C_36
REMARK    6  A    between atoms: O_11  and  C_41
REMARK    7  A    between atoms: O_12  and  C_37
REMARK    8  A    between atoms: O_12  and  C_42
REMARK    9  A    between atoms: O_13  and  C_39
REMARK   10  A    between atoms: C_17  and  C_23
REMARK   11  A    between atoms: C_35  and  C_40
REMARK                            x       y       z     vdW  Elec       q    Type
REMARK                         _______ _______ _______ _____ _____    ______ ____
ROOT
ATOM      1  O   UNL     1     -46.988 -68.271  32.403  0.00  0.00    +0.000 OA
ATOM      2  O   UNL     1     -48.250 -68.711  30.541  0.00  0.00    +0.000 OA
ATOM      3  O   UNL     1     -45.880 -60.458  29.491  0.00  0.00    +0.000 OA
ATOM      4  O   UNL     1     -46.804 -61.454  27.498  0.00  0.00    +0.000 OA
ATOM      5  C   UNL     1     -46.220 -66.157  31.847  0.00  0.00    +0.000 C 
ATOM      6  C   UNL     1     -47.426 -66.466  30.980  0.00  0.00    +0.000 C 
ATOM      7  C   UNL     1     -46.123 -64.659  32.107  0.00  0.00    +0.000 C 
ATOM      8  C   UNL     1     -47.217 -65.954  29.556  0.00  0.00    +0.000 C 
ATOM      9  C   UNL     1     -46.309 -63.870  30.812  0.00  0.00    +0.000 A 
ATOM     10  C   UNL     1     -46.857 -64.460  29.627  0.00  0.00    +0.000 A 
ATOM     11  C   UNL     1     -46.468 -67.078  33.015  0.00  0.00    +0.000 C 
ATOM     12  C   UNL     1     -47.598 -67.936  31.220  0.00  0.00    +0.000 C 
ATOM     13  C   UNL     1     -45.962 -62.505  30.807  0.00  0.00    +0.000 A 
ATOM     14  C   UNL     1     -47.043 -63.674  28.471  0.00  0.00    +0.000 A 
ATOM     15  C   UNL     1     -46.163 -61.777  29.654  0.00  0.00    +0.000 A 
ATOM     16  C   UNL     1     -46.689 -62.344  28.520  0.00  0.00    +0.000 A 
ATOM     17  C   UNL     1     -46.287 -60.260  28.121  0.00  0.00    +0.000 C 
ENDROOT
BRANCH   8  18
ATOM     18  C   UNL     1     -46.232 -66.770  28.715  0.00  0.00    +0.000 A 
ATOM     19  C   UNL     1     -46.495 -67.150  27.387  0.00  0.00    +0.000 A 
ATOM     20  C   UNL     1     -45.003 -67.153  29.279  0.00  0.00    +0.000 A 
ATOM     21  C   UNL     1     -44.064 -67.866  28.532  0.00  0.00    +0.000 A 
ATOM     22  C   UNL     1     -45.576 -67.885  26.624  0.00  0.00    +0.000 A 
ATOM     23  C   UNL     1     -44.359 -68.237  27.210  0.00  0.00    +0.000 A 
BRANCH  21  24
ATOM     24  O   UNL     1     -42.827 -68.267  28.981  0.00  0.00    +0.000 OA
ATOM     25  C   UNL     1     -42.576 -68.100  30.374  0.00  0.00    +0.000 C 
ENDBRANCH  21  24
BRANCH  22  26
ATOM     26  O   UNL     1     -46.024 -68.149  25.358  0.00  0.00    +0.000 OA
ATOM     27  C   UNL     1     -45.303 -67.597  24.266  0.00  0.00    +0.000 C 
ENDBRANCH  22  26
BRANCH  23  28
ATOM     28  O   UNL     1     -43.400 -68.943  26.527  0.00  0.00    +0.000 OA
ATOM     29  H   UNL     1     -43.682 -68.911  25.592  0.00  0.00    +0.000 HD
ENDBRANCH  23  28
ENDBRANCH   8  18
BRANCH   7  30
ATOM     30  O   UNL     1     -47.177 -64.260  32.984  0.00  0.00    +0.000 OA
BRANCH  30  34
ATOM     31  O   UNL     1     -46.409 -64.420  35.187  0.00  0.00    +0.000 OA
ATOM     32  O   UNL     1     -46.703 -62.170  38.081  0.00  0.00    +0.000 OA
ATOM     33  O   UNL     1     -45.229 -63.933  38.635  0.00  0.00    +0.000 OA
ATOM     34  C   UNL     1     -46.712 -63.519  34.120  0.00  0.00    +0.000 C 
ATOM     35  C   UNL     1     -47.834 -62.525  34.497  0.00  0.00    +0.000 C 
ATOM     36  C   UNL     1     -47.121 -62.844  36.889  0.00  0.00    +0.000 C 
ATOM     37  C   UNL     1     -47.528 -61.822  35.827  0.00  0.00    +0.000 C 
ATOM     38  C   UNL     1     -45.988 -63.712  36.350  0.00  0.00    +0.000 C 
ATOM     39  C   UNL     1     -45.573 -64.669  37.462  0.00  0.00    +0.000 C 
ATOM     40  C   UNL     1     -46.315 -63.120  39.078  0.00  0.00    +0.000 C 
ATOM     41  C   UNL     1     -45.857 -62.350  40.304  0.00  0.00    +0.000 C 
BRANCH  35  42
ATOM     42  O   UNL     1     -47.974 -61.552  33.448  0.00  0.00    +0.000 OA
ATOM     43  H   UNL     1     -48.064 -62.061  32.619  0.00  0.00    +0.000 HD
ENDBRANCH  35  42
BRANCH  37  44
ATOM     44  O   UNL     1     -48.690 -61.119  36.295  0.00  0.00    +0.000 OA
ATOM     45  H   UNL     1     -48.487 -60.845  37.210  0.00  0.00    +0.000 HD
ENDBRANCH  37  44
ENDBRANCH  30  34
ENDBRANCH   7  30
TORSDOF 8
ENDMDL
MODEL 4
REMARK VINA RESULT:      -6.9     26.363     31.143
REMARK  Name = 
REMARK  11 active torsions:
REMARK  status: ('A' for Active; 'I' for Inactive)
REMARK    1  A    between atoms: O_1  and  C_16
REMARK    2  A    between atoms: O_1  and  C_22
REMARK    3  A    between atoms: O_6  and  C_24
REMARK    4  A    between atoms: O_8  and  C_26
REMARK    5  A    between atoms: O_11  and  C_36
REMARK    6  A    between atoms: O_11  and  C_41
REMARK    7  A    between atoms: O_12  and  C_37
REMARK    8  A    between atoms: O_12  and  C_42
REMARK    9  A    between atoms: O_13  and  C_39
REMARK   10  A    between atoms: C_17  and  C_23
REMARK   11  A    between atoms: C_35  and  C_40
REMARK                            x       y       z     vdW  Elec       q    Type
REMARK                         _______ _______ _______ _____ _____    ______ ____
ROOT
ATOM      1  O   UNL     1     -45.475 -51.216  31.226  0.00  0.00    +0.000 OA
ATOM      2  O   UNL     1     -44.964 -49.034  30.742  0.00  0.00    +0.000 OA
ATOM      3  O   UNL     1     -37.240 -52.675  32.122  0.00  0.00    +0.000 OA
ATOM      4  O   UNL     1     -37.107 -50.498  31.093  0.00  0.00    +0.000 OA
ATOM      5  C   UNL     1     -43.334 -52.097  31.297  0.00  0.00    +0.000 C 
ATOM      6  C   UNL     1     -43.231 -50.590  31.438  0.00  0.00    +0.000 C 
ATOM      7  C   UNL     1     -42.194 -52.779  32.043  0.00  0.00    +0.000 C 
ATOM      8  C   UNL     1     -42.033 -50.052  30.657  0.00  0.00    +0.000 C 
ATOM      9  C   UNL     1     -40.858 -52.108  31.724  0.00  0.00    +0.000 A 
ATOM     10  C   UNL     1     -40.777 -50.815  31.111  0.00  0.00    +0.000 A 
ATOM     11  C   UNL     1     -44.746 -52.329  31.771  0.00  0.00    +0.000 C 
ATOM     12  C   UNL     1     -44.615 -50.159  31.058  0.00  0.00    +0.000 C 
ATOM     13  C   UNL     1     -39.672 -52.777  32.085  0.00  0.00    +0.000 A 
ATOM     14  C   UNL     1     -39.518 -50.226  30.876  0.00  0.00    +0.000 A 
ATOM     15  C   UNL     1     -38.465 -52.161  31.835  0.00  0.00    +0.000 A 
ATOM     16  C   UNL     1     -38.390 -50.922  31.249  0.00  0.00    +0.000 A 
ATOM     17  C   UNL     1     -36.383 -51.616  31.647  0.00  0.00    +0.000 C 
ENDROOT
BRANCH   8  18
ATOM     18  C   UNL     1     -42.209 -50.035  29.137  0.00  0.00    +0.000 A 
ATOM     19  C   UNL     1     -42.291 -51.207  28.365  0.00  0.00    +0.000 A 
ATOM     20  C   UNL     1     -42.308 -48.800  28.472  0.00  0.00    +0.000 A 
ATOM     21  C   UNL     1     -42.506 -48.744  27.092  0.00  0.00    +0.000 A 
ATOM     22  C   UNL     1     -42.468 -51.176  26.974  0.00  0.00    +0.000 A 
ATOM     23  C   UNL     1     -42.575 -49.934  26.348  0.00  0.00    +0.000 A 
BRANCH  21  24
ATOM     24  O   UNL     1     -42.637 -47.592  26.352  0.00  0.00    +0.000 OA
ATOM     25  C   UNL     1     -43.866 -46.885  26.498  0.00  0.00    +0.000 C 
ENDBRANCH  21  24
BRANCH  22  26
ATOM     26  O   UNL     1     -42.524 -52.424  26.416  0.00  0.00    +0.000 OA
ATOM     27  C   UNL     1     -43.253 -53.430  27.103  0.00  0.00    +0.000 C 
ENDBRANCH  22  26
BRANCH  23  28
ATOM     28  O   UNL     1     -42.765 -49.816  24.993  0.00  0.00    +0.000 OA
ATOM     29  H   UNL     1     -43.675 -50.135  24.838  0.00  0.00    +0.000 HD
ENDBRANCH  23  28
ENDBRANCH   8  18
BRANCH   7  30
ATOM     30  O   UNL     1     -42.395 -52.639  33.450  0.00  0.00    +0.000 OA
BRANCH  30  34
ATOM     31  O   UNL     1     -43.083 -54.869  33.300  0.00  0.00    +0.000 OA
ATOM     32  O   UNL     1     -44.268 -57.269  35.822  0.00  0.00    +0.000 OA
ATOM     33  O   UNL     1     -43.960 -58.408  33.774  0.00  0.00    +0.000 OA
ATOM     34  C   UNL     1     -42.453 -53.896  34.136  0.00  0.00    +0.000 C 
ATOM     35  C   UNL     1     -43.238 -53.656  35.446  0.00  0.00    +0.000 C 
ATOM     36  C   UNL     1     -44.122 -55.998  35.180  0.00  0.00    +0.000 C 
ATOM     37  C   UNL     1     -43.539 -54.981  36.162  0.00  0.00    +0.000 C 
ATOM     38  C   UNL     1     -43.200 -56.121  33.970  0.00  0.00    +0.000 C 
ATOM     39  C   UNL     1     -43.786 -57.189  33.053  0.00  0.00    +0.000 C 
ATOM     40  C   UNL     1     -44.808 -58.228  34.908  0.00  0.00    +0.000 C 
ATOM     41  C   UNL     1     -44.913 -59.557  35.633  0.00  0.00    +0.000 C 
BRANCH  35  42
ATOM     42  O   UNL     1     -42.470 -52.797  36.305  0.00  0.00    +0.000 OA
ATOM     43  H   UNL     1     -41.728 -52.467  35.762  0.00  0.00    +0.000 HD
ENDBRANCH  35  42
BRANCH  37  44
ATOM     44  O   UNL     1     -44.492 -54.769  37.216  0.00  0.00    +0.000 OA
ATOM     45  H   UNL     1     -45.363 -55.002  36.841  0.00  0.00    +0.000 HD
ENDBRANCH  37  44
ENDBRANCH  30  34
ENDBRANCH   7  30
TORSDOF 8
ENDMDL
MODEL 5
REMARK VINA RESULT:      -6.9     30.619     33.252
REMARK  Name = 
REMARK  11 active torsions:
REMARK  status: ('A' for Active; 'I' for Inactive)
REMARK    1  A    between atoms: O_1  and  C_16
REMARK    2  A    between atoms: O_1  and  C_22
REMARK    3  A    between atoms: O_6  and  C_24
REMARK    4  A    between atoms: O_8  and  C_26
REMARK    5  A    between atoms: O_11  and  C_36
REMARK    6  A    between atoms: O_11  and  C_41
REMARK    7  A    between atoms: O_12  and  C_37
REMARK    8  A    between atoms: O_12  and  C_42
REMARK    9  A    between atoms: O_13  and  C_39
REMARK   10  A    between atoms: C_17  and  C_23
REMARK   11  A    between atoms: C_35  and  C_40
REMARK                            x       y       z     vdW  Elec       q    Type
REMARK                         _______ _______ _______ _____ _____    ______ ____
ROOT
ATOM      1  O   UNL     1     -56.163 -40.529  36.467  0.00  0.00    +0.000 OA
ATOM      2  O   UNL     1     -55.401 -42.119  37.933  0.00  0.00    +0.000 OA
ATOM      3  O   UNL     1     -49.785 -42.545  31.367  0.00  0.00    +0.000 OA
ATOM      4  O   UNL     1     -49.044 -43.712  33.344  0.00  0.00    +0.000 OA
ATOM      5  C   UNL     1     -54.433 -40.578  34.927  0.00  0.00    +0.000 C 
ATOM      6  C   UNL     1     -54.374 -41.853  35.745  0.00  0.00    +0.000 C 
ATOM      7  C   UNL     1     -53.903 -40.824  33.520  0.00  0.00    +0.000 C 
ATOM      8  C   UNL     1     -52.927 -42.231  36.060  0.00  0.00    +0.000 C 
ATOM      9  C   UNL     1     -52.587 -41.600  33.563  0.00  0.00    +0.000 A 
ATOM     10  C   UNL     1     -52.144 -42.293  34.738  0.00  0.00    +0.000 A 
ATOM     11  C   UNL     1     -55.883 -40.201  35.096  0.00  0.00    +0.000 C 
ATOM     12  C   UNL     1     -55.316 -41.533  36.866  0.00  0.00    +0.000 C 
ATOM     13  C   UNL     1     -51.809 -41.661  32.391  0.00  0.00    +0.000 A 
ATOM     14  C   UNL     1     -50.941 -43.026  34.709  0.00  0.00    +0.000 A 
ATOM     15  C   UNL     1     -50.640 -42.391  32.412  0.00  0.00    +0.000 A 
ATOM     16  C   UNL     1     -50.219 -43.055  33.537  0.00  0.00    +0.000 A 
ATOM     17  C   UNL     1     -48.773 -43.382  31.966  0.00  0.00    +0.000 C 
ENDROOT
BRANCH   8  18
ATOM     18  C   UNL     1     -52.250 -41.358  37.119  0.00  0.00    +0.000 A 
ATOM     19  C   UNL     1     -51.961 -41.818  38.417  0.00  0.00    +0.000 A 
ATOM     20  C   UNL     1     -51.883 -40.042  36.791  0.00  0.00    +0.000 A 
ATOM     21  C   UNL     1     -51.231 -39.228  37.718  0.00  0.00    +0.000 A 
ATOM     22  C   UNL     1     -51.326 -41.012  39.372  0.00  0.00    +0.000 A 
ATOM     23  C   UNL     1     -50.963 -39.714  39.008  0.00  0.00    +0.000 A 
BRANCH  21  24
ATOM     24  O   UNL     1     -50.811 -37.938  37.489  0.00  0.00    +0.000 OA
ATOM     25  C   UNL     1     -51.807 -37.018  37.049  0.00  0.00    +0.000 C 
ENDBRANCH  21  24
BRANCH  22  26
ATOM     26  O   UNL     1     -51.136 -41.650  40.567  0.00  0.00    +0.000 OA
ATOM     27  C   UNL     1     -52.092 -41.437  41.596  0.00  0.00    +0.000 C 
ENDBRANCH  22  26
BRANCH  23  28
ATOM     28  O   UNL     1     -50.325 -38.866  39.879  0.00  0.00    +0.000 OA
ATOM     29  H   UNL     1     -49.660 -38.402  39.335  0.00  0.00    +0.000 HD
ENDBRANCH  23  28
ENDBRANCH   8  18
BRANCH   7  30
ATOM     30  O   UNL     1     -54.831 -41.634  32.797  0.00  0.00    +0.000 OA
BRANCH  30  34
ATOM     31  O   UNL     1     -55.381 -39.748  31.529  0.00  0.00    +0.000 OA
ATOM     32  O   UNL     1     -57.297 -39.329  28.418  0.00  0.00    +0.000 OA
ATOM     33  O   UNL     1     -56.291 -37.265  28.975  0.00  0.00    +0.000 OA
ATOM     34  C   UNL     1     -55.091 -41.146  31.475  0.00  0.00    +0.000 C 
ATOM     35  C   UNL     1     -56.277 -41.967  30.919  0.00  0.00    +0.000 C 
ATOM     36  C   UNL     1     -56.970 -39.877  29.699  0.00  0.00    +0.000 C 
ATOM     37  C   UNL     1     -56.775 -41.389  29.586  0.00  0.00    +0.000 C 
ATOM     38  C   UNL     1     -55.691 -39.239  30.235  0.00  0.00    +0.000 C 
ATOM     39  C   UNL     1     -55.910 -37.731  30.269  0.00  0.00    +0.000 C 
ATOM     40  C   UNL     1     -57.476 -37.913  28.515  0.00  0.00    +0.000 C 
ATOM     41  C   UNL     1     -57.792 -37.386  27.127  0.00  0.00    +0.000 C 
BRANCH  35  42
ATOM     42  O   UNL     1     -55.863 -43.332  30.739  0.00  0.00    +0.000 OA
ATOM     43  H   UNL     1     -55.388 -43.579  31.557  0.00  0.00    +0.000 HD
ENDBRANCH  35  42
BRANCH  37  44
ATOM     44  O   UNL     1     -58.032 -41.985  29.226  0.00  0.00    +0.000 OA
ATOM     45  H   UNL     1     -58.697 -41.275  29.308  0.00  0.00    +0.000 HD
ENDBRANCH  37  44
ENDBRANCH  30  34
ENDBRANCH   7  30
TORSDOF 8
ENDMDL
MODEL 6
REMARK VINA RESULT:      -6.7      0.953      2.206
REMARK  Name = 
REMARK  11 active torsions:
REMARK  status: ('A' for Active; 'I' for Inactive)
REMARK    1  A    between atoms: O_1  and  C_16
REMARK    2  A    between atoms: O_1  and  C_22
REMARK    3  A    between atoms: O_6  and  C_24
REMARK    4  A    between atoms: O_8  and  C_26
REMARK    5  A    between atoms: O_11  and  C_36
REMARK    6  A    between atoms: O_11  and  C_41
REMARK    7  A    between atoms: O_12  and  C_37
REMARK    8  A    between atoms: O_12  and  C_42
REMARK    9  A    between atoms: O_13  and  C_39
REMARK   10  A    between atoms: C_17  and  C_23
REMARK   11  A    between atoms: C_35  and  C_40
REMARK                            x       y       z     vdW  Elec       q    Type
REMARK                         _______ _______ _______ _____ _____    ______ ____
ROOT
ATOM      1  O   UNL     1     -66.425 -73.249  42.208  0.00  0.00    +0.000 OA
ATOM      2  O   UNL     1     -67.926 -72.048  43.456  0.00  0.00    +0.000 OA
ATOM      3  O   UNL     1     -63.355 -65.956  39.355  0.00  0.00    +0.000 OA
ATOM      4  O   UNL     1     -65.368 -65.118  40.386  0.00  0.00    +0.000 OA
ATOM      5  C   UNL     1     -65.481 -71.520  40.988  0.00  0.00    +0.000 C 
ATOM      6  C   UNL     1     -66.178 -70.923  42.195  0.00  0.00    +0.000 C 
ATOM      7  C   UNL     1     -64.286 -70.665  40.588  0.00  0.00    +0.000 C 
ATOM      8  C   UNL     1     -66.887 -69.621  41.824  0.00  0.00    +0.000 C 
ATOM      9  C   UNL     1     -64.666 -69.185  40.549  0.00  0.00    +0.000 A 
ATOM     10  C   UNL     1     -65.863 -68.685  41.160  0.00  0.00    +0.000 A 
ATOM     11  C   UNL     1     -65.232 -72.926  41.474  0.00  0.00    +0.000 C 
ATOM     12  C   UNL     1     -66.983 -72.089  42.684  0.00  0.00    +0.000 C 
ATOM     13  C   UNL     1     -63.783 -68.285  39.922  0.00  0.00    +0.000 A 
ATOM     14  C   UNL     1     -66.144 -67.304  41.128  0.00  0.00    +0.000 A 
ATOM     15  C   UNL     1     -64.101 -66.944  39.917  0.00  0.00    +0.000 A 
ATOM     16  C   UNL     1     -65.246 -66.467  40.504  0.00  0.00    +0.000 A 
ATOM     17  C   UNL     1     -64.166 -64.800  39.654  0.00  0.00    +0.000 C 
ENDROOT
BRANCH   8  18
ATOM     18  C   UNL     1     -68.165 -69.794  41.000  0.00  0.00    +0.000 A 
ATOM     19  C   UNL     1     -68.153 -70.133  39.635  0.00  0.00    +0.000 A 
ATOM     20  C   UNL     1     -69.412 -69.624  41.625  0.00  0.00    +0.000 A 
ATOM     21  C   UNL     1     -70.599 -69.809  40.917  0.00  0.00    +0.000 A 
ATOM     22  C   UNL     1     -69.333 -70.303  38.897  0.00  0.00    +0.000 A 
ATOM     23  C   UNL     1     -70.554 -70.140  39.552  0.00  0.00    +0.000 A 
BRANCH  21  24
ATOM     24  O   UNL     1     -71.867 -69.689  41.439  0.00  0.00    +0.000 OA
ATOM     25  C   UNL     1     -72.028 -70.079  42.801  0.00  0.00    +0.000 C 
ENDBRANCH  21  24
BRANCH  22  26
ATOM     26  O   UNL     1     -69.101 -70.632  37.589  0.00  0.00    +0.000 OA
ATOM     27  C   UNL     1     -69.094 -72.008  37.238  0.00  0.00    +0.000 C 
ENDBRANCH  22  26
BRANCH  23  28
ATOM     28  O   UNL     1     -71.754 -70.303  38.906  0.00  0.00    +0.000 OA
ATOM     29  H   UNL     1     -71.867 -71.270  38.825  0.00  0.00    +0.000 HD
ENDBRANCH  23  28
ENDBRANCH   8  18
BRANCH   7  30
ATOM     30  O   UNL     1     -63.257 -70.796  41.569  0.00  0.00    +0.000 OA
BRANCH  30  34
ATOM     31  O   UNL     1     -61.706 -72.304  40.681  0.00  0.00    +0.000 OA
ATOM     32  O   UNL     1     -58.028 -72.358  40.676  0.00  0.00    +0.000 OA
ATOM     33  O   UNL     1     -58.816 -74.088  39.272  0.00  0.00    +0.000 OA
ATOM     34  C   UNL     1     -61.950 -70.932  40.997  0.00  0.00    +0.000 C 
ATOM     35  C   UNL     1     -60.946 -70.386  42.038  0.00  0.00    +0.000 C 
ATOM     36  C   UNL     1     -59.341 -72.135  41.202  0.00  0.00    +0.000 C 
ATOM     37  C   UNL     1     -59.498 -70.672  41.614  0.00  0.00    +0.000 C 
ATOM     38  C   UNL     1     -60.394 -72.482  40.153  0.00  0.00    +0.000 C 
ATOM     39  C   UNL     1     -60.159 -73.927  39.725  0.00  0.00    +0.000 C 
ATOM     40  C   UNL     1     -57.876 -73.725  40.283  0.00  0.00    +0.000 C 
ATOM     41  C   UNL     1     -56.481 -73.894  39.711  0.00  0.00    +0.000 C 
BRANCH  35  42
ATOM     42  O   UNL     1     -61.144 -68.969  42.186  0.00  0.00    +0.000 OA
ATOM     43  H   UNL     1     -61.931 -68.750  41.649  0.00  0.00    +0.000 HD
ENDBRANCH  35  42
BRANCH  37  44
ATOM     44  O   UNL     1     -58.601 -70.409  42.706  0.00  0.00    +0.000 OA
ATOM     45  H   UNL     1     -57.848 -69.920  42.322  0.00  0.00    +0.000 HD
ENDBRANCH  37  44
ENDBRANCH  30  34
ENDBRANCH   7  30
TORSDOF 8
ENDMDL
MODEL 7
REMARK VINA RESULT:      -6.7     37.463     39.763
REMARK  Name = 
REMARK  11 active torsions:
REMARK  status: ('A' for Active; 'I' for Inactive)
REMARK    1  A    between atoms: O_1  and  C_16
REMARK    2  A    between atoms: O_1  and  C_22
REMARK    3  A    between atoms: O_6  and  C_24
REMARK    4  A    between atoms: O_8  and  C_26
REMARK    5  A    between atoms: O_11  and  C_36
REMARK    6  A    between atoms: O_11  and  C_41
REMARK    7  A    between atoms: O_12  and  C_37
REMARK    8  A    between atoms: O_12  and  C_42
REMARK    9  A    between atoms: O_13  and  C_39
REMARK   10  A    between atoms: C_17  and  C_23
REMARK   11  A    between atoms: C_35  and  C_40
REMARK                            x       y       z     vdW  Elec       q    Type
REMARK                         _______ _______ _______ _____ _____    ______ ____
ROOT
ATOM      1  O   UNL     1     -40.056 -38.924  50.855  0.00  0.00    +0.000 OA
ATOM      2  O   UNL     1     -40.356 -37.033  49.593  0.00  0.00    +0.000 OA
ATOM      3  O   UNL     1     -37.875 -42.969  43.810  0.00  0.00    +0.000 OA
ATOM      4  O   UNL     1     -38.775 -40.967  42.809  0.00  0.00    +0.000 OA
ATOM      5  C   UNL     1     -39.669 -40.452  49.158  0.00  0.00    +0.000 C 
ATOM      6  C   UNL     1     -39.449 -39.059  48.600  0.00  0.00    +0.000 C 
ATOM      7  C   UNL     1     -38.775 -41.457  48.443  0.00  0.00    +0.000 C 
ATOM      8  C   UNL     1     -39.998 -38.950  47.178  0.00  0.00    +0.000 C 
ATOM      9  C   UNL     1     -38.840 -41.262  46.929  0.00  0.00    +0.000 A 
ATOM     10  C   UNL     1     -39.376 -40.074  46.332  0.00  0.00    +0.000 A 
ATOM     11  C   UNL     1     -39.446 -40.205  50.628  0.00  0.00    +0.000 C 
ATOM     12  C   UNL     1     -40.034 -38.206  49.685  0.00  0.00    +0.000 C 
ATOM     13  C   UNL     1     -38.317 -42.275  46.102  0.00  0.00    +0.000 A 
ATOM     14  C   UNL     1     -39.375 -39.930  44.929  0.00  0.00    +0.000 A 
ATOM     15  C   UNL     1     -38.338 -42.088  44.736  0.00  0.00    +0.000 A 
ATOM     16  C   UNL     1     -38.850 -40.949  44.167  0.00  0.00    +0.000 A 
ATOM     17  C   UNL     1     -38.156 -42.252  42.589  0.00  0.00    +0.000 C 
ENDROOT
BRANCH   8  18
ATOM     18  C   UNL     1     -41.525 -38.898  47.078  0.00  0.00    +0.000 A 
ATOM     19  C   UNL     1     -42.200 -38.178  46.076  0.00  0.00    +0.000 A 
ATOM     20  C   UNL     1     -42.297 -39.606  48.015  0.00  0.00    +0.000 A 
ATOM     21  C   UNL     1     -43.690 -39.612  47.935  0.00  0.00    +0.000 A 
ATOM     22  C   UNL     1     -43.599 -38.152  45.989  0.00  0.00    +0.000 A 
ATOM     23  C   UNL     1     -44.336 -38.877  46.927  0.00  0.00    +0.000 A 
BRANCH  21  24
ATOM     24  O   UNL     1     -44.534 -40.289  48.785  0.00  0.00    +0.000 OA
ATOM     25  C   UNL     1     -43.963 -40.752  50.006  0.00  0.00    +0.000 C 
ENDBRANCH  21  24
BRANCH  22  26
ATOM     26  O   UNL     1     -44.054 -37.396  44.942  0.00  0.00    +0.000 OA
ATOM     27  C   UNL     1     -44.404 -36.044  45.199  0.00  0.00    +0.000 C 
ENDBRANCH  22  26
BRANCH  23  28
ATOM     28  O   UNL     1     -45.707 -38.916  46.902  0.00  0.00    +0.000 OA
ATOM     29  H   UNL     1     -45.932 -39.338  46.050  0.00  0.00    +0.000 HD
ENDBRANCH  23  28
ENDBRANCH   8  18
BRANCH   7  30
ATOM     30  O   UNL     1     -37.416 -41.241  48.824  0.00  0.00    +0.000 OA
BRANCH  30  34
ATOM     31  O   UNL     1     -37.294 -43.077  50.266  0.00  0.00    +0.000 OA
ATOM     32  O   UNL     1     -34.473 -45.134  51.423  0.00  0.00    +0.000 OA
ATOM     33  O   UNL     1     -36.489 -46.128  52.153  0.00  0.00    +0.000 OA
ATOM     34  C   UNL     1     -36.714 -42.455  49.117  0.00  0.00    +0.000 C 
ATOM     35  C   UNL     1     -35.233 -42.074  49.346  0.00  0.00    +0.000 C 
ATOM     36  C   UNL     1     -35.160 -43.939  51.035  0.00  0.00    +0.000 C 
ATOM     37  C   UNL     1     -34.428 -43.272  49.870  0.00  0.00    +0.000 C 
ATOM     38  C   UNL     1     -36.590 -44.266  50.614  0.00  0.00    +0.000 C 
ATOM     39  C   UNL     1     -37.258 -44.986  51.781  0.00  0.00    +0.000 C 
ATOM     40  C   UNL     1     -35.155 -45.766  52.510  0.00  0.00    +0.000 C 
ATOM     41  C   UNL     1     -34.401 -47.036  52.859  0.00  0.00    +0.000 C 
BRANCH  35  42
ATOM     42  O   UNL     1     -34.671 -41.608  48.108  0.00  0.00    +0.000 OA
ATOM     43  H   UNL     1     -33.824 -42.082  48.001  0.00  0.00    +0.000 HD
ENDBRANCH  35  42
BRANCH  37  44
ATOM     44  O   UNL     1     -33.138 -42.837  50.332  0.00  0.00    +0.000 OA
ATOM     45  H   UNL     1     -33.019 -43.243  51.212  0.00  0.00    +0.000 HD
ENDBRANCH  37  44
ENDBRANCH  30  34
ENDBRANCH   7  30
TORSDOF 8
ENDMDL
MODEL 8
REMARK VINA RESULT:      -6.6     37.672     40.531
REMARK  Name = 
REMARK  11 active torsions:
REMARK  status: ('A' for Active; 'I' for Inactive)
REMARK    1  A    between atoms: O_1  and  C_16
REMARK    2  A    between atoms: O_1  and  C_22
REMARK    3  A    between atoms: O_6  and  C_24
REMARK    4  A    between atoms: O_8  and  C_26
REMARK    5  A    between atoms: O_11  and  C_36
REMARK    6  A    between atoms: O_11  and  C_41
REMARK    7  A    between atoms: O_12  and  C_37
REMARK    8  A    between atoms: O_12  and  C_42
REMARK    9  A    between atoms: O_13  and  C_39
REMARK   10  A    between atoms: C_17  and  C_23
REMARK   11  A    between atoms: C_35  and  C_40
REMARK                            x       y       z     vdW  Elec       q    Type
REMARK                         _______ _______ _______ _____ _____    ______ ____
ROOT
ATOM      1  O   UNL     1     -38.815 -43.174  48.604  0.00  0.00    +0.000 OA
ATOM      2  O   UNL     1     -38.880 -44.118  46.516  0.00  0.00    +0.000 OA
ATOM      3  O   UNL     1     -42.851 -36.510  45.434  0.00  0.00    +0.000 OA
ATOM      4  O   UNL     1     -42.268 -37.594  43.360  0.00  0.00    +0.000 OA
ATOM      5  C   UNL     1     -39.653 -41.076  48.094  0.00  0.00    +0.000 C 
ATOM      6  C   UNL     1     -40.022 -42.019  46.966  0.00  0.00    +0.000 C 
ATOM      7  C   UNL     1     -40.708 -39.986  48.241  0.00  0.00    +0.000 C 
ATOM      8  C   UNL     1     -39.888 -41.325  45.611  0.00  0.00    +0.000 C 
ATOM      9  C   UNL     1     -41.064 -39.388  46.881  0.00  0.00    +0.000 A 
ATOM     10  C   UNL     1     -40.717 -40.030  45.647  0.00  0.00    +0.000 A 
ATOM     11  C   UNL     1     -39.461 -42.052  49.227  0.00  0.00    +0.000 C 
ATOM     12  C   UNL     1     -39.161 -43.207  47.276  0.00  0.00    +0.000 C 
ATOM     13  C   UNL     1     -41.793 -38.184  46.851  0.00  0.00    +0.000 A 
ATOM     14  C   UNL     1     -41.107 -39.454  44.421  0.00  0.00    +0.000 A 
ATOM     15  C   UNL     1     -42.152 -37.659  45.628  0.00  0.00    +0.000 A 
ATOM     16  C   UNL     1     -41.819 -38.276  44.448  0.00  0.00    +0.000 A 
ATOM     17  C   UNL     1     -42.920 -36.473  43.993  0.00  0.00    +0.000 C 
ENDROOT
BRANCH   8  18
ATOM     18  C   UNL     1     -38.448 -41.104  45.139  0.00  0.00    +0.000 A 
ATOM     19  C   UNL     1     -37.921 -41.713  43.987  0.00  0.00    +0.000 A 
ATOM     20  C   UNL     1     -37.611 -40.247  45.874  0.00  0.00    +0.000 A 
ATOM     21  C   UNL     1     -36.305 -39.992  45.455  0.00  0.00    +0.000 A 
ATOM     22  C   UNL     1     -36.605 -41.488  43.558  0.00  0.00    +0.000 A 
ATOM     23  C   UNL     1     -35.804 -40.621  44.303  0.00  0.00    +0.000 A 
BRANCH  21  24
ATOM     24  O   UNL     1     -35.414 -39.155  46.088  0.00  0.00    +0.000 OA
ATOM     25  C   UNL     1     -35.766 -37.774  46.129  0.00  0.00    +0.000 C 
ENDBRANCH  21  24
BRANCH  22  26
ATOM     26  O   UNL     1     -36.292 -42.173  42.416  0.00  0.00    +0.000 OA
ATOM     27  C   UNL     1     -36.985 -41.835  41.224  0.00  0.00    +0.000 C 
ENDBRANCH  22  26
BRANCH  23  28
ATOM     28  O   UNL     1     -34.510 -40.336  43.944  0.00  0.00    +0.000 OA
ATOM     29  H   UNL     1     -34.155 -41.177  43.596  0.00  0.00    +0.000 HD
ENDBRANCH  23  28
ENDBRANCH   8  18
BRANCH   7  30
ATOM     30  O   UNL     1     -41.909 -40.554  48.765  0.00  0.00    +0.000 OA
BRANCH  30  34
ATOM     31  O   UNL     1     -41.294 -39.099  50.489  0.00  0.00    +0.000 OA
ATOM     32  O   UNL     1     -42.196 -38.962  54.052  0.00  0.00    +0.000 OA
ATOM     33  O   UNL     1     -40.972 -37.016  53.501  0.00  0.00    +0.000 OA
ATOM     34  C   UNL     1     -42.337 -39.936  49.984  0.00  0.00    +0.000 C 
ATOM     35  C   UNL     1     -42.696 -41.076  50.964  0.00  0.00    +0.000 C 
ATOM     36  C   UNL     1     -41.860 -39.572  52.801  0.00  0.00    +0.000 C 
ATOM     37  C   UNL     1     -42.972 -40.530  52.373  0.00  0.00    +0.000 C 
ATOM     38  C   UNL     1     -41.670 -38.504  51.728  0.00  0.00    +0.000 C 
ATOM     39  C   UNL     1     -40.601 -37.537  52.226  0.00  0.00    +0.000 C 
ATOM     40  C   UNL     1     -41.162 -38.060  54.457  0.00  0.00    +0.000 C 
ATOM     41  C   UNL     1     -41.584 -37.425  55.769  0.00  0.00    +0.000 C 
BRANCH  35  42
ATOM     42  O   UNL     1     -43.853 -41.773  50.472  0.00  0.00    +0.000 OA
ATOM     43  H   UNL     1     -44.476 -41.826  51.223  0.00  0.00    +0.000 HD
ENDBRANCH  35  42
BRANCH  37  44
ATOM     44  O   UNL     1     -43.032 -41.609  53.320  0.00  0.00    +0.000 OA
ATOM     45  H   UNL     1     -42.105 -41.859  53.501  0.00  0.00    +0.000 HD
ENDBRANCH  37  44
ENDBRANCH  30  34
ENDBRANCH   7  30
TORSDOF 8
ENDMDL
MODEL 9
REMARK VINA RESULT:      -6.4     24.451     28.551
REMARK  Name = 
REMARK  11 active torsions:
REMARK  status: ('A' for Active; 'I' for Inactive)
REMARK    1  A    between atoms: O_1  and  C_16
REMARK    2  A    between atoms: O_1  and  C_22
REMARK    3  A    between atoms: O_6  and  C_24
REMARK    4  A    between atoms: O_8  and  C_26
REMARK    5  A    between atoms: O_11  and  C_36
REMARK    6  A    between atoms: O_11  and  C_41
REMARK    7  A    between atoms: O_12  and  C_37
REMARK    8  A    between atoms: O_12  and  C_42
REMARK    9  A    between atoms: O_13  and  C_39
REMARK   10  A    between atoms: C_17  and  C_23
REMARK   11  A    between atoms: C_35  and  C_40
REMARK                            x       y       z     vdW  Elec       q    Type
REMARK                         _______ _______ _______ _____ _____    ______ ____
ROOT
ATOM      1  O   UNL     1     -65.493 -45.587  38.461  0.00  0.00    +0.000 OA
ATOM      2  O   UNL     1     -66.191 -46.510  40.440  0.00  0.00    +0.000 OA
ATOM      3  O   UNL     1     -66.750 -37.995  41.856  0.00  0.00    +0.000 OA
ATOM      4  O   UNL     1     -67.873 -39.324  43.527  0.00  0.00    +0.000 OA
ATOM      5  C   UNL     1     -65.953 -43.360  38.902  0.00  0.00    +0.000 C 
ATOM      6  C   UNL     1     -65.911 -44.105  40.222  0.00  0.00    +0.000 C 
ATOM      7  C   UNL     1     -65.507 -41.916  39.092  0.00  0.00    +0.000 C 
ATOM      8  C   UNL     1     -67.005 -43.603  41.164  0.00  0.00    +0.000 C 
ATOM      9  C   UNL     1     -66.198 -41.289  40.303  0.00  0.00    +0.000 A 
ATOM     10  C   UNL     1     -66.867 -42.077  41.296  0.00  0.00    +0.000 A 
ATOM     11  C   UNL     1     -65.112 -44.267  38.039  0.00  0.00    +0.000 C 
ATOM     12  C   UNL     1     -65.929 -45.531  39.762  0.00  0.00    +0.000 C 
ATOM     13  C   UNL     1     -66.136 -39.891  40.457  0.00  0.00    +0.000 A 
ATOM     14  C   UNL     1     -67.454 -41.449  42.414  0.00  0.00    +0.000 A 
ATOM     15  C   UNL     1     -66.724 -39.323  41.567  0.00  0.00    +0.000 A 
ATOM     16  C   UNL     1     -67.363 -40.079  42.517  0.00  0.00    +0.000 A 
ATOM     17  C   UNL     1     -67.482 -38.002  43.100  0.00  0.00    +0.000 C 
ENDROOT
BRANCH   8  18
ATOM     18  C   UNL     1     -68.423 -44.050  40.801  0.00  0.00    +0.000 A 
ATOM     19  C   UNL     1     -69.137 -43.513  39.714  0.00  0.00    +0.000 A 
ATOM     20  C   UNL     1     -69.046 -45.047  41.570  0.00  0.00    +0.000 A 
ATOM     21  C   UNL     1     -70.323 -45.506  41.248  0.00  0.00    +0.000 A 
ATOM     22  C   UNL     1     -70.431 -43.943  39.385  0.00  0.00    +0.000 A 
ATOM     23  C   UNL     1     -71.014 -44.945  40.161  0.00  0.00    +0.000 A 
BRANCH  21  24
ATOM     24  O   UNL     1     -71.010 -46.491  41.920  0.00  0.00    +0.000 OA
ATOM     25  C   UNL     1     -70.975 -46.426  43.344  0.00  0.00    +0.000 C 
ENDBRANCH  21  24
BRANCH  22  26
ATOM     26  O   UNL     1     -70.946 -43.296  38.294  0.00  0.00    +0.000 OA
ATOM     27  C   UNL     1     -71.748 -42.146  38.519  0.00  0.00    +0.000 C 
ENDBRANCH  22  26
BRANCH  23  28
ATOM     28  O   UNL     1     -72.270 -45.432  39.896  0.00  0.00    +0.000 OA
ATOM     29  H   UNL     1     -72.435 -45.206  38.960  0.00  0.00    +0.000 HD
ENDBRANCH  23  28
ENDBRANCH   8  18
BRANCH   7  30
ATOM     30  O   UNL     1     -64.105 -41.882  39.360  0.00  0.00    +0.000 OA
BRANCH  30  34
ATOM     31  O   UNL     1     -63.888 -40.577  37.432  0.00  0.00    +0.000 OA
ATOM     32  O   UNL     1     -61.066 -38.675  36.035  0.00  0.00    +0.000 OA
ATOM     33  O   UNL     1     -63.009 -38.186  34.782  0.00  0.00    +0.000 OA
ATOM     34  C   UNL     1     -63.450 -40.747  38.782  0.00  0.00    +0.000 C 
ATOM     35  C   UNL     1     -61.929 -41.011  38.874  0.00  0.00    +0.000 C 
ATOM     36  C   UNL     1     -61.723 -39.761  36.699  0.00  0.00    +0.000 C 
ATOM     37  C   UNL     1     -61.135 -39.951  38.097  0.00  0.00    +0.000 C 
ATOM     38  C   UNL     1     -63.219 -39.483  36.811  0.00  0.00    +0.000 C 
ATOM     39  C   UNL     1     -63.748 -39.237  35.402  0.00  0.00    +0.000 C 
ATOM     40  C   UNL     1     -61.615 -38.489  34.727  0.00  0.00    +0.000 C 
ATOM     41  C   UNL     1     -60.903 -37.312  34.086  0.00  0.00    +0.000 C 
BRANCH  35  42
ATOM     42  O   UNL     1     -61.533 -41.008  40.255  0.00  0.00    +0.000 OA
ATOM     43  H   UNL     1     -61.426 -40.069  40.503  0.00  0.00    +0.000 HD
ENDBRANCH  35  42
BRANCH  37  44
ATOM     44  O   UNL     1     -59.764 -40.359  37.962  0.00  0.00    +0.000 OA
ATOM     45  H   UNL     1     -59.786 -41.321  37.796  0.00  0.00    +0.000 HD
ENDBRANCH  37  44
ENDBRANCH  30  34
ENDBRANCH   7  30
TORSDOF 8
ENDMDL
