MODEL 1
REMARK VINA RESULT:      -8.0      0.000      0.000
REMARK  Name = Foretinib.pdbqt.pdb
REMARK  11 active torsions:
REMARK  status: ('A' for Active; 'I' for Inactive)
REMARK    1  A    between atoms: C_2  and  N_31
REMARK    2  A    between atoms: C_7  and  O_8
REMARK    3  A    between atoms: O_8  and  C_9
REMARK    4  A    between atoms: C_17  and  O_19
REMARK    5  A    between atoms: C_18  and  O_29
REMARK    6  A    between atoms: O_19  and  C_20
REMARK    7  A    between atoms: C_21  and  C_22
REMARK    8  A    between atoms: C_22  and  N_23
REMARK    9  A    between atoms: C_32  and  C_35
REMARK   10  A    between atoms: C_35  and  C_38
REMARK   11  A    between atoms: N_40  and  C_42
REMARK                            x       y       z     vdW  Elec       q    Type
REMARK                         _______ _______ _______ _____ _____    ______ ____
ROOT
ATOM      1  F   UNL     1     -32.526 -47.854  50.316  0.00  0.00    +0.000 F 
ATOM      2  C   UNL     1     -33.011 -50.423  52.831  0.00  0.00    +0.000 A 
ATOM      3  C   UNL     1     -32.457 -49.702  51.774  0.00  0.00    +0.000 A 
ATOM      4  C   UNL     1     -34.165 -49.948  53.459  0.00  0.00    +0.000 A 
ATOM      5  C   UNL     1     -33.053 -48.516  51.356  0.00  0.00    +0.000 A 
ATOM      6  C   UNL     1     -34.763 -48.761  53.039  0.00  0.00    +0.000 A 
ATOM      7  C   UNL     1     -34.191 -48.030  52.000  0.00  0.00    +0.000 A 
ENDROOT
BRANCH   2   8
ATOM      8  N   UNL     1     -32.461 -51.629  53.303  0.00  0.00    +0.000 N 
ATOM      9  C   UNL     1     -31.459 -51.738  54.254  0.00  0.00    +0.000 C 
ATOM     10  O   UNL     1     -30.883 -50.810  54.807  0.00  0.00    +0.000 OA
ATOM     11  H   UNL     1     -32.805 -52.485  52.878  0.00  0.00    +0.000 HD
BRANCH   9  12
ATOM     12  C   UNL     1     -31.039 -53.146  54.558  0.00  0.00    +0.000 C 
ATOM     13  C   UNL     1     -30.097 -53.786  53.647  0.00  0.00    +0.000 C 
ATOM     14  C   UNL     1     -31.525 -54.199  53.673  0.00  0.00    +0.000 C 
BRANCH  12  15
ATOM     15  C   UNL     1     -30.901 -53.458  56.018  0.00  0.00    +0.000 C 
ATOM     16  O   UNL     1     -31.853 -53.954  56.610  0.00  0.00    +0.000 OA
ATOM     17  N   UNL     1     -29.652 -53.190  56.553  0.00  0.00    +0.000 N 
ATOM     18  H   UNL     1     -28.936 -52.830  55.931  0.00  0.00    +0.000 HD
BRANCH  17  19
ATOM     19  C   UNL     1     -29.273 -53.409  57.890  0.00  0.00    +0.000 A 
ATOM     20  C   UNL     1     -28.748 -54.661  58.220  0.00  0.00    +0.000 A 
ATOM     21  C   UNL     1     -28.354 -54.939  59.526  0.00  0.00    +0.000 A 
ATOM     22  C   UNL     1     -28.488 -53.956  60.501  0.00  0.00    +0.000 A 
ATOM     23  F   UNL     1     -28.108 -54.220  61.758  0.00  0.00    +0.000 F 
ATOM     24  C   UNL     1     -29.006 -52.704  60.191  0.00  0.00    +0.000 A 
ATOM     25  C   UNL     1     -29.398 -52.435  58.882  0.00  0.00    +0.000 A 
ENDBRANCH  17  19
ENDBRANCH  12  15
ENDBRANCH   9  12
ENDBRANCH   2   8
BRANCH   7  26
ATOM     26  O   UNL     1     -34.858 -46.903  51.587  0.00  0.00    +0.000 OA
BRANCH  26  27
ATOM     27  C   UNL     1     -34.402 -45.689  52.062  0.00  0.00    +0.000 A 
ATOM     28  C   UNL     1     -34.966 -44.518  51.533  0.00  0.00    +0.000 A 
ATOM     29  C   UNL     1     -34.538 -43.288  52.061  0.00  0.00    +0.000 A 
ATOM     30  C   UNL     1     -35.923 -44.539  50.506  0.00  0.00    +0.000 A 
ATOM     31  N   UNL     1     -33.630 -43.207  53.047  0.00  0.00    +0.000 NA
ATOM     32  C   UNL     1     -35.087 -42.127  51.538  0.00  0.00    +0.000 A 
ATOM     33  C   UNL     1     -33.120 -44.358  53.538  0.00  0.00    +0.000 A 
ATOM     34  C   UNL     1     -33.474 -45.616  53.095  0.00  0.00    +0.000 A 
ATOM     35  C   UNL     1     -36.043 -42.141  50.514  0.00  0.00    +0.000 A 
ATOM     36  C   UNL     1     -36.467 -43.363  49.989  0.00  0.00    +0.000 A 
BRANCH  36  37
ATOM     37  O   UNL     1     -37.401 -43.323  48.981  0.00  0.00    +0.000 OA
ATOM     38  C   UNL     1     -36.998 -43.877  47.759  0.00  0.00    +0.000 C 
ENDBRANCH  36  37
BRANCH  35  39
ATOM     39  O   UNL     1     -36.593 -40.999  49.981  0.00  0.00    +0.000 OA
BRANCH  39  40
ATOM     40  C   UNL     1     -37.900 -40.854  50.188  0.00  0.00    +0.000 C 
ATOM     41  C   UNL     1     -39.402 -40.691  50.443  0.00  0.00    +0.000 C 
BRANCH  41  42
ATOM     42  C   UNL     1     -40.903 -40.524  50.705  0.00  0.00    +0.000 C 
BRANCH  42  43
ATOM     43  N   UNL     1     -42.329 -40.365  50.952  0.00  0.00    +0.000 N 
ATOM     44  C   UNL     1     -42.659 -38.936  50.661  0.00  0.00    +0.000 C 
ATOM     45  C   UNL     1     -43.494 -38.343  49.480  0.00  0.00    +0.000 C 
ATOM     46  O   UNL     1     -44.136 -38.868  48.413  0.00  0.00    +0.000 OA
ATOM     47  C   UNL     1     -43.834 -40.157  48.671  0.00  0.00    +0.000 C 
ATOM     48  C   UNL     1     -43.038 -40.931  49.766  0.00  0.00    +0.000 C 
ENDBRANCH  42  43
ENDBRANCH  41  42
ENDBRANCH  39  40
ENDBRANCH  35  39
ENDBRANCH  26  27
ENDBRANCH   7  26
TORSDOF 11
ENDMDL
MODEL 2
REMARK VINA RESULT:      -7.9     21.045     22.699
REMARK  Name = Foretinib.pdbqt.pdb
REMARK  11 active torsions:
REMARK  status: ('A' for Active; 'I' for Inactive)
REMARK    1  A    between atoms: C_2  and  N_31
REMARK    2  A    between atoms: C_7  and  O_8
REMARK    3  A    between atoms: O_8  and  C_9
REMARK    4  A    between atoms: C_17  and  O_19
REMARK    5  A    between atoms: C_18  and  O_29
REMARK    6  A    between atoms: O_19  and  C_20
REMARK    7  A    between atoms: C_21  and  C_22
REMARK    8  A    between atoms: C_22  and  N_23
REMARK    9  A    between atoms: C_32  and  C_35
REMARK   10  A    between atoms: C_35  and  C_38
REMARK   11  A    between atoms: N_40  and  C_42
REMARK                            x       y       z     vdW  Elec       q    Type
REMARK                         _______ _______ _______ _____ _____    ______ ____
ROOT
ATOM      1  F   UNL     1     -41.158 -58.890  36.383  0.00  0.00    +0.000 F 
ATOM      2  C   UNL     1     -44.054 -60.763  37.511  0.00  0.00    +0.000 A 
ATOM      3  C   UNL     1     -42.749 -60.278  37.427  0.00  0.00    +0.000 A 
ATOM      4  C   UNL     1     -45.025 -60.283  36.629  0.00  0.00    +0.000 A 
ATOM      5  C   UNL     1     -42.426 -59.319  36.472  0.00  0.00    +0.000 A 
ATOM      6  C   UNL     1     -44.700 -59.323  35.672  0.00  0.00    +0.000 A 
ATOM      7  C   UNL     1     -43.403 -58.822  35.609  0.00  0.00    +0.000 A 
ENDROOT
BRANCH   2   8
ATOM      8  N   UNL     1     -44.449 -61.732  38.451  0.00  0.00    +0.000 N 
ATOM      9  C   UNL     1     -44.710 -63.064  38.171  0.00  0.00    +0.000 C 
ATOM     10  O   UNL     1     -44.663 -63.594  37.069  0.00  0.00    +0.000 OA
ATOM     11  H   UNL     1     -44.591 -61.412  39.405  0.00  0.00    +0.000 HD
BRANCH   9  12
ATOM     12  C   UNL     1     -45.138 -63.877  39.358  0.00  0.00    +0.000 C 
ATOM     13  C   UNL     1     -44.785 -65.293  39.373  0.00  0.00    +0.000 C 
ATOM     14  C   UNL     1     -46.191 -64.865  39.151  0.00  0.00    +0.000 C 
BRANCH  12  15
ATOM     15  C   UNL     1     -45.100 -63.146  40.666  0.00  0.00    +0.000 C 
ATOM     16  O   UNL     1     -44.014 -62.809  41.124  0.00  0.00    +0.000 OA
ATOM     17  N   UNL     1     -46.341 -62.873  41.215  0.00  0.00    +0.000 N 
ATOM     18  H   UNL     1     -47.165 -63.164  40.697  0.00  0.00    +0.000 HD
BRANCH  17  19
ATOM     19  C   UNL     1     -46.567 -62.190  42.424  0.00  0.00    +0.000 A 
ATOM     20  C   UNL     1     -46.840 -60.822  42.356  0.00  0.00    +0.000 A 
ATOM     21  C   UNL     1     -47.072 -60.090  43.518  0.00  0.00    +0.000 A 
ATOM     22  C   UNL     1     -47.031 -60.736  44.748  0.00  0.00    +0.000 A 
ATOM     23  F   UNL     1     -47.256 -60.035  45.867  0.00  0.00    +0.000 F 
ATOM     24  C   UNL     1     -46.763 -62.098  44.835  0.00  0.00    +0.000 A 
ATOM     25  C   UNL     1     -46.531 -62.821  43.669  0.00  0.00    +0.000 A 
ENDBRANCH  17  19
ENDBRANCH  12  15
ENDBRANCH   9  12
ENDBRANCH   2   8
BRANCH   7  26
ATOM     26  O   UNL     1     -43.124 -57.927  34.605  0.00  0.00    +0.000 OA
BRANCH  26  27
ATOM     27  C   UNL     1     -43.010 -56.597  34.958  0.00  0.00    +0.000 A 
ATOM     28  C   UNL     1     -41.800 -55.942  34.683  0.00  0.00    +0.000 A 
ATOM     29  C   UNL     1     -41.710 -54.574  34.994  0.00  0.00    +0.000 A 
ATOM     30  C   UNL     1     -40.695 -56.603  34.124  0.00  0.00    +0.000 A 
ATOM     31  N   UNL     1     -42.735 -53.889  35.525  0.00  0.00    +0.000 NA
ATOM     32  C   UNL     1     -40.513 -53.923  34.732  0.00  0.00    +0.000 A 
ATOM     33  C   UNL     1     -43.888 -54.554  35.763  0.00  0.00    +0.000 A 
ATOM     34  C   UNL     1     -44.083 -55.892  35.492  0.00  0.00    +0.000 A 
ATOM     35  C   UNL     1     -39.408 -54.576  34.172  0.00  0.00    +0.000 A 
ATOM     36  C   UNL     1     -39.497 -55.935  33.865  0.00  0.00    +0.000 A 
BRANCH  36  37
ATOM     37  O   UNL     1     -38.383 -56.531  33.324  0.00  0.00    +0.000 OA
ATOM     38  C   UNL     1     -38.363 -57.932  33.367  0.00  0.00    +0.000 C 
ENDBRANCH  36  37
BRANCH  35  39
ATOM     39  O   UNL     1     -38.214 -53.947  33.910  0.00  0.00    +0.000 OA
BRANCH  39  40
ATOM     40  C   UNL     1     -38.270 -52.998  32.979  0.00  0.00    +0.000 C 
ATOM     41  C   UNL     1     -38.352 -51.901  31.911  0.00  0.00    +0.000 C 
BRANCH  41  42
ATOM     42  C   UNL     1     -38.437 -50.801  30.848  0.00  0.00    +0.000 C 
BRANCH  42  43
ATOM     43  N   UNL     1     -38.517 -49.756  29.837  0.00  0.00    +0.000 N 
ATOM     44  C   UNL     1     -39.010 -50.405  28.584  0.00  0.00    +0.000 C 
ATOM     45  C   UNL     1     -40.395 -50.245  27.877  0.00  0.00    +0.000 C 
ATOM     46  O   UNL     1     -41.517 -49.538  28.134  0.00  0.00    +0.000 OA
ATOM     47  C   UNL     1     -41.075 -48.957  29.268  0.00  0.00    +0.000 C 
ATOM     48  C   UNL     1     -39.765 -48.984  30.113  0.00  0.00    +0.000 C 
ENDBRANCH  42  43
ENDBRANCH  41  42
ENDBRANCH  39  40
ENDBRANCH  35  39
ENDBRANCH  26  27
ENDBRANCH   7  26
TORSDOF 11
ENDMDL
MODEL 3
REMARK VINA RESULT:      -7.8      3.554      5.883
REMARK  Name = Foretinib.pdbqt.pdb
REMARK  11 active torsions:
REMARK  status: ('A' for Active; 'I' for Inactive)
REMARK    1  A    between atoms: C_2  and  N_31
REMARK    2  A    between atoms: C_7  and  O_8
REMARK    3  A    between atoms: O_8  and  C_9
REMARK    4  A    between atoms: C_17  and  O_19
REMARK    5  A    between atoms: C_18  and  O_29
REMARK    6  A    between atoms: O_19  and  C_20
REMARK    7  A    between atoms: C_21  and  C_22
REMARK    8  A    between atoms: C_22  and  N_23
REMARK    9  A    between atoms: C_32  and  C_35
REMARK   10  A    between atoms: C_35  and  C_38
REMARK   11  A    between atoms: N_40  and  C_42
REMARK                            x       y       z     vdW  Elec       q    Type
REMARK                         _______ _______ _______ _____ _____    ______ ____
ROOT
ATOM      1  F   UNL     1     -32.525 -47.592  50.543  0.00  0.00    +0.000 F 
ATOM      2  C   UNL     1     -33.012 -50.338  52.864  0.00  0.00    +0.000 A 
ATOM      3  C   UNL     1     -32.462 -49.546  51.856  0.00  0.00    +0.000 A 
ATOM      4  C   UNL     1     -34.150 -49.897  53.543  0.00  0.00    +0.000 A 
ATOM      5  C   UNL     1     -33.047 -48.324  51.537  0.00  0.00    +0.000 A 
ATOM      6  C   UNL     1     -34.737 -48.674  53.222  0.00  0.00    +0.000 A 
ATOM      7  C   UNL     1     -34.169 -47.874  52.233  0.00  0.00    +0.000 A 
ENDROOT
BRANCH   2   8
ATOM      8  N   UNL     1     -32.472 -51.583  53.236  0.00  0.00    +0.000 N 
ATOM      9  C   UNL     1     -31.467 -51.777  54.169  0.00  0.00    +0.000 C 
ATOM     10  O   UNL     1     -30.879 -50.902  54.792  0.00  0.00    +0.000 OA
ATOM     11  H   UNL     1     -32.827 -52.399  52.745  0.00  0.00    +0.000 HD
BRANCH   9  12
ATOM     12  C   UNL     1     -31.061 -53.209  54.358  0.00  0.00    +0.000 C 
ATOM     13  C   UNL     1     -30.963 -54.050  53.170  0.00  0.00    +0.000 C 
ATOM     14  C   UNL     1     -32.078 -54.231  54.136  0.00  0.00    +0.000 C 
BRANCH  12  15
ATOM     15  C   UNL     1     -30.054 -53.438  55.445  0.00  0.00    +0.000 C 
ATOM     16  O   UNL     1     -28.870 -53.538  55.142  0.00  0.00    +0.000 OA
ATOM     17  N   UNL     1     -30.577 -53.462  56.727  0.00  0.00    +0.000 N 
ATOM     18  H   UNL     1     -31.575 -53.309  56.835  0.00  0.00    +0.000 HD
BRANCH  17  19
ATOM     19  C   UNL     1     -29.836 -53.646  57.908  0.00  0.00    +0.000 A 
ATOM     20  C   UNL     1     -29.816 -52.599  58.832  0.00  0.00    +0.000 A 
ATOM     21  C   UNL     1     -29.100 -52.721  60.021  0.00  0.00    +0.000 A 
ATOM     22  C   UNL     1     -28.405 -53.897  60.279  0.00  0.00    +0.000 A 
ATOM     23  F   UNL     1     -27.718 -54.018  61.422  0.00  0.00    +0.000 F 
ATOM     24  C   UNL     1     -28.415 -54.950  59.372  0.00  0.00    +0.000 A 
ATOM     25  C   UNL     1     -29.133 -54.820  58.186  0.00  0.00    +0.000 A 
ENDBRANCH  17  19
ENDBRANCH  12  15
ENDBRANCH   9  12
ENDBRANCH   2   8
BRANCH   7  26
ATOM     26  O   UNL     1     -34.826 -46.710  51.915  0.00  0.00    +0.000 OA
BRANCH  26  27
ATOM     27  C   UNL     1     -34.157 -45.524  52.147  0.00  0.00    +0.000 A 
ATOM     28  C   UNL     1     -34.327 -44.478  51.227  0.00  0.00    +0.000 A 
ATOM     29  C   UNL     1     -33.689 -43.256  51.499  0.00  0.00    +0.000 A 
ATOM     30  C   UNL     1     -35.096 -44.618  50.061  0.00  0.00    +0.000 A 
ATOM     31  N   UNL     1     -32.946 -43.063  52.600  0.00  0.00    +0.000 NA
ATOM     32  C   UNL     1     -33.848 -42.221  50.589  0.00  0.00    +0.000 A 
ATOM     33  C   UNL     1     -32.818 -44.091  53.468  0.00  0.00    +0.000 A 
ATOM     34  C   UNL     1     -33.404 -45.328  53.299  0.00  0.00    +0.000 A 
ATOM     35  C   UNL     1     -34.615 -42.353  49.425  0.00  0.00    +0.000 A 
ATOM     36  C   UNL     1     -35.248 -43.568  49.155  0.00  0.00    +0.000 A 
BRANCH  36  37
ATOM     37  O   UNL     1     -35.983 -43.649  47.996  0.00  0.00    +0.000 OA
ATOM     38  C   UNL     1     -37.285 -44.148  48.137  0.00  0.00    +0.000 C 
ENDBRANCH  36  37
BRANCH  35  39
ATOM     39  O   UNL     1     -34.779 -41.339  48.511  0.00  0.00    +0.000 OA
BRANCH  39  40
ATOM     40  C   UNL     1     -33.821 -41.251  47.591  0.00  0.00    +0.000 C 
ATOM     41  C   UNL     1     -32.728 -41.139  46.522  0.00  0.00    +0.000 C 
BRANCH  41  42
ATOM     42  C   UNL     1     -31.637 -41.021  45.452  0.00  0.00    +0.000 C 
BRANCH  42  43
ATOM     43  N   UNL     1     -30.601 -40.910  44.435  0.00  0.00    +0.000 N 
ATOM     44  C   UNL     1     -29.492 -41.824  44.849  0.00  0.00    +0.000 C 
ATOM     45  C   UNL     1     -29.033 -43.167  44.194  0.00  0.00    +0.000 C 
ATOM     46  O   UNL     1     -29.446 -43.898  43.135  0.00  0.00    +0.000 OA
ATOM     47  C   UNL     1     -30.450 -43.077  42.765  0.00  0.00    +0.000 C 
ATOM     48  C   UNL     1     -31.051 -41.730  43.271  0.00  0.00    +0.000 C 
ENDBRANCH  42  43
ENDBRANCH  41  42
ENDBRANCH  39  40
ENDBRANCH  35  39
ENDBRANCH  26  27
ENDBRANCH   7  26
TORSDOF 11
ENDMDL
MODEL 4
REMARK VINA RESULT:      -7.8      2.806      3.800
REMARK  Name = Foretinib.pdbqt.pdb
REMARK  11 active torsions:
REMARK  status: ('A' for Active; 'I' for Inactive)
REMARK    1  A    between atoms: C_2  and  N_31
REMARK    2  A    between atoms: C_7  and  O_8
REMARK    3  A    between atoms: O_8  and  C_9
REMARK    4  A    between atoms: C_17  and  O_19
REMARK    5  A    between atoms: C_18  and  O_29
REMARK    6  A    between atoms: O_19  and  C_20
REMARK    7  A    between atoms: C_21  and  C_22
REMARK    8  A    between atoms: C_22  and  N_23
REMARK    9  A    between atoms: C_32  and  C_35
REMARK   10  A    between atoms: C_35  and  C_38
REMARK   11  A    between atoms: N_40  and  C_42
REMARK                            x       y       z     vdW  Elec       q    Type
REMARK                         _______ _______ _______ _____ _____    ______ ____
ROOT
ATOM      1  F   UNL     1     -32.548 -47.862  50.360  0.00  0.00    +0.000 F 
ATOM      2  C   UNL     1     -33.022 -50.457  52.852  0.00  0.00    +0.000 A 
ATOM      3  C   UNL     1     -32.476 -49.729  51.795  0.00  0.00    +0.000 A 
ATOM      4  C   UNL     1     -34.161 -49.978  53.503  0.00  0.00    +0.000 A 
ATOM      5  C   UNL     1     -33.066 -48.532  51.400  0.00  0.00    +0.000 A 
ATOM      6  C   UNL     1     -34.752 -48.780  53.106  0.00  0.00    +0.000 A 
ATOM      7  C   UNL     1     -34.189 -48.042  52.068  0.00  0.00    +0.000 A 
ENDROOT
BRANCH   2   8
ATOM      8  N   UNL     1     -32.477 -51.674  53.301  0.00  0.00    +0.000 N 
ATOM      9  C   UNL     1     -31.486 -51.806  54.260  0.00  0.00    +0.000 C 
ATOM     10  O   UNL     1     -30.916 -50.892  54.842  0.00  0.00    +0.000 OA
ATOM     11  H   UNL     1     -32.816 -52.519  52.851  0.00  0.00    +0.000 HD
BRANCH   9  12
ATOM     12  C   UNL     1     -31.071 -53.221  54.536  0.00  0.00    +0.000 C 
ATOM     13  C   UNL     1     -30.146 -53.852  53.599  0.00  0.00    +0.000 C 
ATOM     14  C   UNL     1     -31.576 -54.257  53.641  0.00  0.00    +0.000 C 
BRANCH  12  15
ATOM     15  C   UNL     1     -30.911 -53.557  55.988  0.00  0.00    +0.000 C 
ATOM     16  O   UNL     1     -31.833 -54.118  56.569  0.00  0.00    +0.000 OA
ATOM     17  N   UNL     1     -29.678 -53.233  56.528  0.00  0.00    +0.000 N 
ATOM     18  H   UNL     1     -28.984 -52.819  55.912  0.00  0.00    +0.000 HD
BRANCH  17  19
ATOM     19  C   UNL     1     -29.284 -53.460  57.859  0.00  0.00    +0.000 A 
ATOM     20  C   UNL     1     -28.710 -54.696  58.164  0.00  0.00    +0.000 A 
ATOM     21  C   UNL     1     -28.299 -54.982  59.464  0.00  0.00    +0.000 A 
ATOM     22  C   UNL     1     -28.466 -54.021  60.456  0.00  0.00    +0.000 A 
ATOM     23  F   UNL     1     -28.070 -54.292  61.707  0.00  0.00    +0.000 F 
ATOM     24  C   UNL     1     -29.033 -52.785  60.170  0.00  0.00    +0.000 A 
ATOM     25  C   UNL     1     -29.441 -52.508  58.868  0.00  0.00    +0.000 A 
ENDBRANCH  17  19
ENDBRANCH  12  15
ENDBRANCH   9  12
ENDBRANCH   2   8
BRANCH   7  26
ATOM     26  O   UNL     1     -34.850 -46.903  51.677  0.00  0.00    +0.000 OA
BRANCH  26  27
ATOM     27  C   UNL     1     -34.394 -45.703  52.185  0.00  0.00    +0.000 A 
ATOM     28  C   UNL     1     -35.002 -44.521  51.736  0.00  0.00    +0.000 A 
ATOM     29  C   UNL     1     -34.572 -43.307  52.299  0.00  0.00    +0.000 A 
ATOM     30  C   UNL     1     -36.005 -44.516  50.753  0.00  0.00    +0.000 A 
ATOM     31  N   UNL     1     -33.621 -43.251  53.244  0.00  0.00    +0.000 NA
ATOM     32  C   UNL     1     -35.164 -42.135  51.853  0.00  0.00    +0.000 A 
ATOM     33  C   UNL     1     -33.069 -44.413  53.660  0.00  0.00    +0.000 A 
ATOM     34  C   UNL     1     -33.420 -45.657  53.177  0.00  0.00    +0.000 A 
ATOM     35  C   UNL     1     -36.167 -42.123  50.874  0.00  0.00    +0.000 A 
ATOM     36  C   UNL     1     -36.593 -43.328  50.315  0.00  0.00    +0.000 A 
BRANCH  36  37
ATOM     37  O   UNL     1     -37.574 -43.263  49.354  0.00  0.00    +0.000 OA
ATOM     38  C   UNL     1     -37.240 -43.811  48.108  0.00  0.00    +0.000 C 
ENDBRANCH  36  37
BRANCH  35  39
ATOM     39  O   UNL     1     -36.761 -40.970  50.418  0.00  0.00    +0.000 OA
BRANCH  39  40
ATOM     40  C   UNL     1     -36.504 -39.881  51.139  0.00  0.00    +0.000 C 
ATOM     41  C   UNL     1     -36.192 -38.632  51.970  0.00  0.00    +0.000 C 
BRANCH  41  42
ATOM     42  C   UNL     1     -35.874 -37.381  52.797  0.00  0.00    +0.000 C 
BRANCH  42  43
ATOM     43  N   UNL     1     -35.573 -36.194  53.583  0.00  0.00    +0.000 N 
ATOM     44  C   UNL     1     -36.833 -35.815  54.292  0.00  0.00    +0.000 C 
ATOM     45  C   UNL     1     -37.166 -35.905  55.817  0.00  0.00    +0.000 C 
ATOM     46  O   UNL     1     -36.495 -36.322  56.913  0.00  0.00    +0.000 OA
ATOM     47  C   UNL     1     -35.359 -36.669  56.274  0.00  0.00    +0.000 C 
ATOM     48  C   UNL     1     -34.844 -36.657  54.802  0.00  0.00    +0.000 C 
ENDBRANCH  42  43
ENDBRANCH  41  42
ENDBRANCH  39  40
ENDBRANCH  35  39
ENDBRANCH  26  27
ENDBRANCH   7  26
TORSDOF 11
ENDMDL
MODEL 5
REMARK VINA RESULT:      -7.7      3.733      4.885
REMARK  Name = Foretinib.pdbqt.pdb
REMARK  11 active torsions:
REMARK  status: ('A' for Active; 'I' for Inactive)
REMARK    1  A    between atoms: C_2  and  N_31
REMARK    2  A    between atoms: C_7  and  O_8
REMARK    3  A    between atoms: O_8  and  C_9
REMARK    4  A    between atoms: C_17  and  O_19
REMARK    5  A    between atoms: C_18  and  O_29
REMARK    6  A    between atoms: O_19  and  C_20
REMARK    7  A    between atoms: C_21  and  C_22
REMARK    8  A    between atoms: C_22  and  N_23
REMARK    9  A    between atoms: C_32  and  C_35
REMARK   10  A    between atoms: C_35  and  C_38
REMARK   11  A    between atoms: N_40  and  C_42
REMARK                            x       y       z     vdW  Elec       q    Type
REMARK                         _______ _______ _______ _____ _____    ______ ____
ROOT
ATOM      1  F   UNL     1     -32.237 -45.114  51.770  0.00  0.00    +0.000 F 
ATOM      2  C   UNL     1     -33.180 -48.538  52.509  0.00  0.00    +0.000 A 
ATOM      3  C   UNL     1     -32.407 -47.429  52.167  0.00  0.00    +0.000 A 
ATOM      4  C   UNL     1     -34.533 -48.369  52.812  0.00  0.00    +0.000 A 
ATOM      5  C   UNL     1     -32.987 -46.164  52.134  0.00  0.00    +0.000 A 
ATOM      6  C   UNL     1     -35.113 -47.102  52.777  0.00  0.00    +0.000 A 
ATOM      7  C   UNL     1     -34.332 -45.993  52.461  0.00  0.00    +0.000 A 
ENDROOT
BRANCH   2   8
ATOM      8  N   UNL     1     -32.659 -49.845  52.561  0.00  0.00    +0.000 N 
ATOM      9  C   UNL     1     -31.543 -50.237  53.282  0.00  0.00    +0.000 C 
ATOM     10  O   UNL     1     -30.827 -49.510  53.959  0.00  0.00    +0.000 OA
ATOM     11  H   UNL     1     -33.123 -50.544  51.988  0.00  0.00    +0.000 HD
BRANCH   9  12
ATOM     12  C   UNL     1     -31.190 -51.689  53.142  0.00  0.00    +0.000 C 
ATOM     13  C   UNL     1     -30.877 -52.186  51.806  0.00  0.00    +0.000 C 
ATOM     14  C   UNL     1     -32.154 -52.554  52.472  0.00  0.00    +0.000 C 
BRANCH  12  15
ATOM     15  C   UNL     1     -30.405 -52.256  54.286  0.00  0.00    +0.000 C 
ATOM     16  O   UNL     1     -29.264 -52.655  54.080  0.00  0.00    +0.000 OA
ATOM     17  N   UNL     1     -31.054 -52.224  55.509  0.00  0.00    +0.000 N 
ATOM     18  H   UNL     1     -31.982 -51.812  55.543  0.00  0.00    +0.000 HD
BRANCH  17  19
ATOM     19  C   UNL     1     -30.523 -52.683  56.727  0.00  0.00    +0.000 A 
ATOM     20  C   UNL     1     -29.946 -51.740  57.581  0.00  0.00    +0.000 A 
ATOM     21  C   UNL     1     -29.403 -52.133  58.802  0.00  0.00    +0.000 A 
ATOM     22  C   UNL     1     -29.443 -53.475  59.164  0.00  0.00    +0.000 A 
ATOM     23  F   UNL     1     -28.924 -53.855  60.339  0.00  0.00    +0.000 F 
ATOM     24  C   UNL     1     -30.015 -54.427  58.328  0.00  0.00    +0.000 A 
ATOM     25  C   UNL     1     -30.555 -54.026  57.109  0.00  0.00    +0.000 A 
ENDBRANCH  17  19
ENDBRANCH  12  15
ENDBRANCH   9  12
ENDBRANCH   2   8
BRANCH   7  26
ATOM     26  O   UNL     1     -34.970 -44.780  52.379  0.00  0.00    +0.000 OA
BRANCH  26  27
ATOM     27  C   UNL     1     -35.894 -44.620  51.365  0.00  0.00    +0.000 A 
ATOM     28  C   UNL     1     -35.522 -43.857  50.246  0.00  0.00    +0.000 A 
ATOM     29  C   UNL     1     -36.446 -43.746  49.193  0.00  0.00    +0.000 A 
ATOM     30  C   UNL     1     -34.280 -43.209  50.155  0.00  0.00    +0.000 A 
ATOM     31  N   UNL     1     -37.646 -44.347  49.223  0.00  0.00    +0.000 NA
ATOM     32  C   UNL     1     -36.087 -42.987  48.089  0.00  0.00    +0.000 A 
ATOM     33  C   UNL     1     -37.961 -45.083  50.312  0.00  0.00    +0.000 A 
ATOM     34  C   UNL     1     -37.127 -45.261  51.397  0.00  0.00    +0.000 A 
ATOM     35  C   UNL     1     -34.849 -42.340  47.990  0.00  0.00    +0.000 A 
ATOM     36  C   UNL     1     -33.932 -42.450  49.037  0.00  0.00    +0.000 A 
BRANCH  36  37
ATOM     37  O   UNL     1     -32.735 -41.790  48.895  0.00  0.00    +0.000 OA
ATOM     38  C   UNL     1     -32.183 -41.274  50.076  0.00  0.00    +0.000 C 
ENDBRANCH  36  37
BRANCH  35  39
ATOM     39  O   UNL     1     -34.480 -41.581  46.905  0.00  0.00    +0.000 OA
BRANCH  39  40
ATOM     40  C   UNL     1     -35.302 -41.654  45.861  0.00  0.00    +0.000 C 
ATOM     41  C   UNL     1     -36.254 -41.723  44.662  0.00  0.00    +0.000 C 
BRANCH  41  42
ATOM     42  C   UNL     1     -37.205 -41.785  43.461  0.00  0.00    +0.000 C 
BRANCH  42  43
ATOM     43  N   UNL     1     -38.109 -41.843  42.321  0.00  0.00    +0.000 N 
ATOM     44  C   UNL     1     -38.740 -40.493  42.204  0.00  0.00    +0.000 C 
ATOM     45  C   UNL     1     -38.524 -39.401  41.106  0.00  0.00    +0.000 C 
ATOM     46  O   UNL     1     -37.758 -39.309  39.996  0.00  0.00    +0.000 OA
ATOM     47  C   UNL     1     -37.183 -40.523  40.105  0.00  0.00    +0.000 C 
ATOM     48  C   UNL     1     -37.263 -41.725  41.095  0.00  0.00    +0.000 C 
ENDBRANCH  42  43
ENDBRANCH  41  42
ENDBRANCH  39  40
ENDBRANCH  35  39
ENDBRANCH  26  27
ENDBRANCH   7  26
TORSDOF 11
ENDMDL
MODEL 6
REMARK VINA RESULT:      -7.2     24.756     29.386
REMARK  Name = Foretinib.pdbqt.pdb
REMARK  11 active torsions:
REMARK  status: ('A' for Active; 'I' for Inactive)
REMARK    1  A    between atoms: C_2  and  N_31
REMARK    2  A    between atoms: C_7  and  O_8
REMARK    3  A    between atoms: O_8  and  C_9
REMARK    4  A    between atoms: C_17  and  O_19
REMARK    5  A    between atoms: C_18  and  O_29
REMARK    6  A    between atoms: O_19  and  C_20
REMARK    7  A    between atoms: C_21  and  C_22
REMARK    8  A    between atoms: C_22  and  N_23
REMARK    9  A    between atoms: C_32  and  C_35
REMARK   10  A    between atoms: C_35  and  C_38
REMARK   11  A    between atoms: N_40  and  C_42
REMARK                            x       y       z     vdW  Elec       q    Type
REMARK                         _______ _______ _______ _____ _____    ______ ____
ROOT
ATOM      1  F   UNL     1     -44.088 -58.934  28.942  0.00  0.00    +0.000 F 
ATOM      2  C   UNL     1     -44.574 -58.535  32.515  0.00  0.00    +0.000 A 
ATOM      3  C   UNL     1     -44.188 -58.274  31.200  0.00  0.00    +0.000 A 
ATOM      4  C   UNL     1     -45.263 -59.714  32.810  0.00  0.00    +0.000 A 
ATOM      5  C   UNL     1     -44.496 -59.185  30.194  0.00  0.00    +0.000 A 
ATOM      6  C   UNL     1     -45.569 -60.626  31.802  0.00  0.00    +0.000 A 
ATOM      7  C   UNL     1     -45.206 -60.350  30.486  0.00  0.00    +0.000 A 
ENDROOT
BRANCH   2   8
ATOM      8  N   UNL     1     -44.295 -57.658  33.580  0.00  0.00    +0.000 N 
ATOM      9  C   UNL     1     -43.460 -56.554  33.514  0.00  0.00    +0.000 C 
ATOM     10  O   UNL     1     -42.821 -56.187  32.536  0.00  0.00    +0.000 OA
ATOM     11  H   UNL     1     -44.712 -57.884  34.478  0.00  0.00    +0.000 HD
BRANCH   9  12
ATOM     12  C   UNL     1     -43.319 -55.803  34.806  0.00  0.00    +0.000 C 
ATOM     13  C   UNL     1     -41.988 -55.714  35.397  0.00  0.00    +0.000 C 
ATOM     14  C   UNL     1     -43.031 -56.579  36.007  0.00  0.00    +0.000 C 
BRANCH  12  15
ATOM     15  C   UNL     1     -44.209 -54.604  34.934  0.00  0.00    +0.000 C 
ATOM     16  O   UNL     1     -44.754 -54.386  36.010  0.00  0.00    +0.000 OA
ATOM     17  N   UNL     1     -44.285 -53.812  33.801  0.00  0.00    +0.000 N 
ATOM     18  H   UNL     1     -43.733 -54.084  32.993  0.00  0.00    +0.000 HD
BRANCH  17  19
ATOM     19  C   UNL     1     -45.040 -52.631  33.679  0.00  0.00    +0.000 A 
ATOM     20  C   UNL     1     -45.889 -52.515  32.577  0.00  0.00    +0.000 A 
ATOM     21  C   UNL     1     -46.663 -51.370  32.400  0.00  0.00    +0.000 A 
ATOM     22  C   UNL     1     -46.581 -50.343  33.334  0.00  0.00    +0.000 A 
ATOM     23  F   UNL     1     -47.325 -49.242  33.168  0.00  0.00    +0.000 F 
ATOM     24  C   UNL     1     -45.743 -50.443  34.439  0.00  0.00    +0.000 A 
ATOM     25  C   UNL     1     -44.973 -51.591  34.607  0.00  0.00    +0.000 A 
ENDBRANCH  17  19
ENDBRANCH  12  15
ENDBRANCH   9  12
ENDBRANCH   2   8
BRANCH   7  26
ATOM     26  O   UNL     1     -45.477 -61.314  29.546  0.00  0.00    +0.000 OA
BRANCH  26  27
ATOM     27  C   UNL     1     -44.638 -62.410  29.507  0.00  0.00    +0.000 A 
ATOM     28  C   UNL     1     -45.169 -63.661  29.862  0.00  0.00    +0.000 A 
ATOM     29  C   UNL     1     -44.326 -64.781  29.766  0.00  0.00    +0.000 A 
ATOM     30  C   UNL     1     -46.490 -63.820  30.308  0.00  0.00    +0.000 A 
ATOM     31  N   UNL     1     -43.056 -64.690  29.341  0.00  0.00    +0.000 NA
ATOM     32  C   UNL     1     -44.842 -66.018  30.122  0.00  0.00    +0.000 A 
ATOM     33  C   UNL     1     -42.587 -63.470  28.996  0.00  0.00    +0.000 A 
ATOM     34  C   UNL     1     -43.330 -62.309  29.049  0.00  0.00    +0.000 A 
ATOM     35  C   UNL     1     -46.160 -66.184  30.566  0.00  0.00    +0.000 A 
ATOM     36  C   UNL     1     -46.996 -65.071  30.663  0.00  0.00    +0.000 A 
BRANCH  36  37
ATOM     37  O   UNL     1     -48.278 -65.286  31.111  0.00  0.00    +0.000 OA
ATOM     38  C   UNL     1     -48.537 -64.878  32.427  0.00  0.00    +0.000 C 
ENDBRANCH  36  37
BRANCH  35  39
ATOM     39  O   UNL     1     -46.686 -67.403  30.927  0.00  0.00    +0.000 OA
BRANCH  39  40
ATOM     40  C   UNL     1     -46.354 -67.819  32.147  0.00  0.00    +0.000 C 
ATOM     41  C   UNL     1     -45.962 -68.285  33.554  0.00  0.00    +0.000 C 
BRANCH  41  42
ATOM     42  C   UNL     1     -45.569 -68.745  34.962  0.00  0.00    +0.000 C 
BRANCH  42  43
ATOM     43  N   UNL     1     -45.197 -69.181  36.300  0.00  0.00    +0.000 N 
ATOM     44  C   UNL     1     -43.930 -68.468  36.649  0.00  0.00    +0.000 C 
ATOM     45  C   UNL     1     -43.701 -67.331  37.697  0.00  0.00    +0.000 C 
ATOM     46  O   UNL     1     -44.496 -66.661  38.561  0.00  0.00    +0.000 OA
ATOM     47  C   UNL     1     -45.640 -67.299  38.243  0.00  0.00    +0.000 C 
ATOM     48  C   UNL     1     -46.065 -68.428  37.255  0.00  0.00    +0.000 C 
ENDBRANCH  42  43
ENDBRANCH  41  42
ENDBRANCH  39  40
ENDBRANCH  35  39
ENDBRANCH  26  27
ENDBRANCH   7  26
TORSDOF 11
ENDMDL
MODEL 7
REMARK VINA RESULT:      -7.1      2.563      3.800
REMARK  Name = Foretinib.pdbqt.pdb
REMARK  11 active torsions:
REMARK  status: ('A' for Active; 'I' for Inactive)
REMARK    1  A    between atoms: C_2  and  N_31
REMARK    2  A    between atoms: C_7  and  O_8
REMARK    3  A    between atoms: O_8  and  C_9
REMARK    4  A    between atoms: C_17  and  O_19
REMARK    5  A    between atoms: C_18  and  O_29
REMARK    6  A    between atoms: O_19  and  C_20
REMARK    7  A    between atoms: C_21  and  C_22
REMARK    8  A    between atoms: C_22  and  N_23
REMARK    9  A    between atoms: C_32  and  C_35
REMARK   10  A    between atoms: C_35  and  C_38
REMARK   11  A    between atoms: N_40  and  C_42
REMARK                            x       y       z     vdW  Elec       q    Type
REMARK                         _______ _______ _______ _____ _____    ______ ____
ROOT
ATOM      1  F   UNL     1     -33.294 -43.840  51.425  0.00  0.00    +0.000 F 
ATOM      2  C   UNL     1     -33.106 -47.429  51.923  0.00  0.00    +0.000 A 
ATOM      3  C   UNL     1     -32.740 -46.122  51.603  0.00  0.00    +0.000 A 
ATOM      4  C   UNL     1     -34.392 -47.685  52.406  0.00  0.00    +0.000 A 
ATOM      5  C   UNL     1     -33.653 -45.085  51.770  0.00  0.00    +0.000 A 
ATOM      6  C   UNL     1     -35.306 -46.647  52.572  0.00  0.00    +0.000 A 
ATOM      7  C   UNL     1     -34.928 -45.339  52.276  0.00  0.00    +0.000 A 
ENDROOT
BRANCH   2   8
ATOM      8  N   UNL     1     -32.234 -48.523  51.778  0.00  0.00    +0.000 N 
ATOM      9  C   UNL     1     -31.176 -48.826  52.619  0.00  0.00    +0.000 C 
ATOM     10  O   UNL     1     -30.822 -48.180  53.598  0.00  0.00    +0.000 OA
ATOM     11  H   UNL     1     -32.374 -49.113  50.962  0.00  0.00    +0.000 HD
BRANCH   9  12
ATOM     12  C   UNL     1     -30.389 -50.039  52.219  0.00  0.00    +0.000 C 
ATOM     13  C   UNL     1     -29.030 -49.836  51.731  0.00  0.00    +0.000 C 
ATOM     14  C   UNL     1     -30.119 -50.227  50.798  0.00  0.00    +0.000 C 
BRANCH  12  15
ATOM     15  C   UNL     1     -30.642 -51.256  53.058  0.00  0.00    +0.000 C 
ATOM     16  O   UNL     1     -30.788 -52.338  52.501  0.00  0.00    +0.000 OA
ATOM     17  N   UNL     1     -30.635 -51.032  54.424  0.00  0.00    +0.000 N 
ATOM     18  H   UNL     1     -30.445 -50.089  54.750  0.00  0.00    +0.000 HD
BRANCH  17  19
ATOM     19  C   UNL     1     -30.833 -52.012  55.414  0.00  0.00    +0.000 A 
ATOM     20  C   UNL     1     -32.147 -52.288  55.800  0.00  0.00    +0.000 A 
ATOM     21  C   UNL     1     -32.408 -53.248  56.775  0.00  0.00    +0.000 A 
ATOM     22  C   UNL     1     -31.347 -53.930  57.360  0.00  0.00    +0.000 A 
ATOM     23  F   UNL     1     -31.596 -54.855  58.296  0.00  0.00    +0.000 F 
ATOM     24  C   UNL     1     -30.034 -53.670  56.986  0.00  0.00    +0.000 A 
ATOM     25  C   UNL     1     -29.781 -52.709  56.011  0.00  0.00    +0.000 A 
ENDBRANCH  17  19
ENDBRANCH  12  15
ENDBRANCH   9  12
ENDBRANCH   2   8
BRANCH   7  26
ATOM     26  O   UNL     1     -35.889 -44.366  52.397  0.00  0.00    +0.000 OA
BRANCH  26  27
ATOM     27  C   UNL     1     -36.718 -44.160  51.312  0.00  0.00    +0.000 A 
ATOM     28  C   UNL     1     -36.831 -42.856  50.805  0.00  0.00    +0.000 A 
ATOM     29  C   UNL     1     -37.632 -42.663  49.666  0.00  0.00    +0.000 A 
ATOM     30  C   UNL     1     -36.185 -41.758  51.396  0.00  0.00    +0.000 A 
ATOM     31  N   UNL     1     -38.269 -43.675  49.056  0.00  0.00    +0.000 NA
ATOM     32  C   UNL     1     -37.753 -41.375  49.165  0.00  0.00    +0.000 A 
ATOM     33  C   UNL     1     -38.125 -44.917  49.568  0.00  0.00    +0.000 A 
ATOM     34  C   UNL     1     -37.361 -45.217  50.677  0.00  0.00    +0.000 A 
ATOM     35  C   UNL     1     -37.110 -40.276  49.748  0.00  0.00    +0.000 A 
ATOM     36  C   UNL     1     -36.315 -40.469  50.880  0.00  0.00    +0.000 A 
BRANCH  36  37
ATOM     37  O   UNL     1     -35.711 -39.357  51.419  0.00  0.00    +0.000 OA
ATOM     38  C   UNL     1     -36.266 -38.887  52.617  0.00  0.00    +0.000 C 
ENDBRANCH  36  37
BRANCH  35  39
ATOM     39  O   UNL     1     -37.223 -38.993  49.267  0.00  0.00    +0.000 OA
BRANCH  39  40
ATOM     40  C   UNL     1     -38.472 -38.561  49.105  0.00  0.00    +0.000 C 
ATOM     41  C   UNL     1     -39.915 -38.076  48.931  0.00  0.00    +0.000 C 
BRANCH  41  42
ATOM     42  C   UNL     1     -41.359 -37.591  48.763  0.00  0.00    +0.000 C 
BRANCH  42  43
ATOM     43  N   UNL     1     -42.731 -37.130  48.602  0.00  0.00    +0.000 N 
ATOM     44  C   UNL     1     -43.249 -37.749  47.344  0.00  0.00    +0.000 C 
ATOM     45  C   UNL     1     -44.328 -38.867  47.174  0.00  0.00    +0.000 C 
ATOM     46  O   UNL     1     -45.086 -39.593  48.025  0.00  0.00    +0.000 OA
ATOM     47  C   UNL     1     -44.615 -39.040  49.161  0.00  0.00    +0.000 C 
ATOM     48  C   UNL     1     -43.570 -37.943  49.532  0.00  0.00    +0.000 C 
ENDBRANCH  42  43
ENDBRANCH  41  42
ENDBRANCH  39  40
ENDBRANCH  35  39
ENDBRANCH  26  27
ENDBRANCH   7  26
TORSDOF 11
ENDMDL
MODEL 8
REMARK VINA RESULT:      -7.1     19.990     22.492
REMARK  Name = Foretinib.pdbqt.pdb
REMARK  11 active torsions:
REMARK  status: ('A' for Active; 'I' for Inactive)
REMARK    1  A    between atoms: C_2  and  N_31
REMARK    2  A    between atoms: C_7  and  O_8
REMARK    3  A    between atoms: O_8  and  C_9
REMARK    4  A    between atoms: C_17  and  O_19
REMARK    5  A    between atoms: C_18  and  O_29
REMARK    6  A    between atoms: O_19  and  C_20
REMARK    7  A    between atoms: C_21  and  C_22
REMARK    8  A    between atoms: C_22  and  N_23
REMARK    9  A    between atoms: C_32  and  C_35
REMARK   10  A    between atoms: C_35  and  C_38
REMARK   11  A    between atoms: N_40  and  C_42
REMARK                            x       y       z     vdW  Elec       q    Type
REMARK                         _______ _______ _______ _____ _____    ______ ____
ROOT
ATOM      1  F   UNL     1     -29.372 -68.574  58.915  0.00  0.00    +0.000 F 
ATOM      2  C   UNL     1     -31.345 -65.698  59.915  0.00  0.00    +0.000 A 
ATOM      3  C   UNL     1     -30.347 -66.672  59.905  0.00  0.00    +0.000 A 
ATOM      4  C   UNL     1     -32.312 -65.692  58.907  0.00  0.00    +0.000 A 
ATOM      5  C   UNL     1     -30.319 -67.624  58.890  0.00  0.00    +0.000 A 
ATOM      6  C   UNL     1     -32.284 -66.647  57.893  0.00  0.00    +0.000 A 
ATOM      7  C   UNL     1     -31.270 -67.601  57.870  0.00  0.00    +0.000 A 
ENDROOT
BRANCH   2   8
ATOM      8  N   UNL     1     -31.434 -64.707  60.911  0.00  0.00    +0.000 N 
ATOM      9  C   UNL     1     -32.375 -64.670  61.926  0.00  0.00    +0.000 C 
ATOM     10  O   UNL     1     -33.285 -65.471  62.099  0.00  0.00    +0.000 OA
ATOM     11  H   UNL     1     -30.773 -63.938  60.848  0.00  0.00    +0.000 HD
BRANCH   9  12
ATOM     12  C   UNL     1     -32.258 -63.486  62.841  0.00  0.00    +0.000 C 
ATOM     13  C   UNL     1     -32.182 -62.162  62.232  0.00  0.00    +0.000 C 
ATOM     14  C   UNL     1     -30.984 -62.776  62.862  0.00  0.00    +0.000 C 
BRANCH  12  15
ATOM     15  C   UNL     1     -33.022 -63.608  64.125  0.00  0.00    +0.000 C 
ATOM     16  O   UNL     1     -32.550 -64.286  65.031  0.00  0.00    +0.000 OA
ATOM     17  N   UNL     1     -34.196 -62.876  64.174  0.00  0.00    +0.000 N 
ATOM     18  H   UNL     1     -34.439 -62.311  63.366  0.00  0.00    +0.000 HD
BRANCH  17  19
ATOM     19  C   UNL     1     -35.076 -62.817  65.271  0.00  0.00    +0.000 A 
ATOM     20  C   UNL     1     -34.579 -62.317  66.476  0.00  0.00    +0.000 A 
ATOM     21  C   UNL     1     -35.400 -62.233  67.598  0.00  0.00    +0.000 A 
ATOM     22  C   UNL     1     -36.723 -62.651  67.504  0.00  0.00    +0.000 A 
ATOM     23  F   UNL     1     -37.516 -62.569  68.581  0.00  0.00    +0.000 F 
ATOM     24  C   UNL     1     -37.236 -63.149  66.312  0.00  0.00    +0.000 A 
ATOM     25  C   UNL     1     -36.407 -63.230  65.196  0.00  0.00    +0.000 A 
ENDBRANCH  17  19
ENDBRANCH  12  15
ENDBRANCH   9  12
ENDBRANCH   2   8
BRANCH   7  26
ATOM     26  O   UNL     1     -31.329 -68.555  56.884  0.00  0.00    +0.000 OA
BRANCH  26  27
ATOM     27  C   UNL     1     -31.481 -68.112  55.585  0.00  0.00    +0.000 A 
ATOM     28  C   UNL     1     -32.600 -68.555  54.862  0.00  0.00    +0.000 A 
ATOM     29  C   UNL     1     -32.779 -68.056  53.561  0.00  0.00    +0.000 A 
ATOM     30  C   UNL     1     -33.524 -69.472  55.390  0.00  0.00    +0.000 A 
ATOM     31  N   UNL     1     -31.931 -67.175  53.007  0.00  0.00    +0.000 NA
ATOM     32  C   UNL     1     -33.878 -68.496  52.839  0.00  0.00    +0.000 A 
ATOM     33  C   UNL     1     -30.874 -66.762  53.741  0.00  0.00    +0.000 A 
ATOM     34  C   UNL     1     -30.608 -67.186  55.027  0.00  0.00    +0.000 A 
ATOM     35  C   UNL     1     -34.805 -69.409  53.360  0.00  0.00    +0.000 A 
ATOM     36  C   UNL     1     -34.626 -69.905  54.652  0.00  0.00    +0.000 A 
BRANCH  36  37
ATOM     37  O   UNL     1     -35.558 -70.804  55.114  0.00  0.00    +0.000 OA
ATOM     38  C   UNL     1     -35.052 -71.863  55.880  0.00  0.00    +0.000 C 
ENDBRANCH  36  37
BRANCH  35  39
ATOM     39  O   UNL     1     -35.897 -69.859  52.656  0.00  0.00    +0.000 OA
BRANCH  39  40
ATOM     40  C   UNL     1     -35.777 -69.798  51.332  0.00  0.00    +0.000 C 
ATOM     41  C   UNL     1     -35.656 -69.726  49.805  0.00  0.00    +0.000 C 
BRANCH  41  42
ATOM     42  C   UNL     1     -35.540 -69.649  48.279  0.00  0.00    +0.000 C 
BRANCH  42  43
ATOM     43  N   UNL     1     -35.431 -69.577  46.829  0.00  0.00    +0.000 N 
ATOM     44  C   UNL     1     -34.817 -68.251  46.509  0.00  0.00    +0.000 C 
ATOM     45  C   UNL     1     -33.392 -67.940  45.948  0.00  0.00    +0.000 C 
ATOM     46  O   UNL     1     -32.324 -68.691  45.600  0.00  0.00    +0.000 OA
ATOM     47  C   UNL     1     -32.873 -69.886  45.894  0.00  0.00    +0.000 C 
ATOM     48  C   UNL     1     -34.240 -70.394  46.446  0.00  0.00    +0.000 C 
ENDBRANCH  42  43
ENDBRANCH  41  42
ENDBRANCH  39  40
ENDBRANCH  35  39
ENDBRANCH  26  27
ENDBRANCH   7  26
TORSDOF 11
ENDMDL
MODEL 9
REMARK VINA RESULT:      -7.1      7.131     11.115
REMARK  Name = Foretinib.pdbqt.pdb
REMARK  11 active torsions:
REMARK  status: ('A' for Active; 'I' for Inactive)
REMARK    1  A    between atoms: C_2  and  N_31
REMARK    2  A    between atoms: C_7  and  O_8
REMARK    3  A    between atoms: O_8  and  C_9
REMARK    4  A    between atoms: C_17  and  O_19
REMARK    5  A    between atoms: C_18  and  O_29
REMARK    6  A    between atoms: O_19  and  C_20
REMARK    7  A    between atoms: C_21  and  C_22
REMARK    8  A    between atoms: C_22  and  N_23
REMARK    9  A    between atoms: C_32  and  C_35
REMARK   10  A    between atoms: C_35  and  C_38
REMARK   11  A    between atoms: N_40  and  C_42
REMARK                            x       y       z     vdW  Elec       q    Type
REMARK                         _______ _______ _______ _____ _____    ______ ____
ROOT
ATOM      1  F   UNL     1     -30.159 -40.672  52.121  0.00  0.00    +0.000 F 
ATOM      2  C   UNL     1     -32.530 -43.261  53.038  0.00  0.00    +0.000 A 
ATOM      3  C   UNL     1     -31.780 -42.375  52.265  0.00  0.00    +0.000 A 
ATOM      4  C   UNL     1     -32.341 -43.300  54.421  0.00  0.00    +0.000 A 
ATOM      5  C   UNL     1     -30.847 -41.542  52.875  0.00  0.00    +0.000 A 
ATOM      6  C   UNL     1     -31.408 -42.464  55.032  0.00  0.00    +0.000 A 
ATOM      7  C   UNL     1     -30.641 -41.600  54.254  0.00  0.00    +0.000 A 
ENDROOT
BRANCH   2   8
ATOM      8  N   UNL     1     -33.490 -44.130  52.486  0.00  0.00    +0.000 N 
ATOM      9  C   UNL     1     -34.863 -43.965  52.567  0.00  0.00    +0.000 C 
ATOM     10  O   UNL     1     -35.451 -43.061  53.147  0.00  0.00    +0.000 OA
ATOM     11  H   UNL     1     -33.139 -44.965  52.027  0.00  0.00    +0.000 HD
BRANCH   9  12
ATOM     12  C   UNL     1     -35.661 -45.054  51.910  0.00  0.00    +0.000 C 
ATOM     13  C   UNL     1     -36.560 -44.678  50.826  0.00  0.00    +0.000 C 
ATOM     14  C   UNL     1     -37.099 -45.074  52.153  0.00  0.00    +0.000 C 
BRANCH  12  15
ATOM     15  C   UNL     1     -34.946 -46.366  51.785  0.00  0.00    +0.000 C 
ATOM     16  O   UNL     1     -34.478 -46.682  50.697  0.00  0.00    +0.000 OA
ATOM     17  N   UNL     1     -34.841 -47.086  52.963  0.00  0.00    +0.000 N 
ATOM     18  H   UNL     1     -35.229 -46.675  53.807  0.00  0.00    +0.000 HD
BRANCH  17  19
ATOM     19  C   UNL     1     -34.206 -48.333  53.104  0.00  0.00    +0.000 A 
ATOM     20  C   UNL     1     -35.011 -49.448  53.349  0.00  0.00    +0.000 A 
ATOM     21  C   UNL     1     -34.442 -50.710  53.499  0.00  0.00    +0.000 A 
ATOM     22  C   UNL     1     -33.062 -50.850  53.399  0.00  0.00    +0.000 A 
ATOM     23  F   UNL     1     -32.512 -52.063  53.540  0.00  0.00    +0.000 F 
ATOM     24  C   UNL     1     -32.245 -49.753  53.152  0.00  0.00    +0.000 A 
ATOM     25  C   UNL     1     -32.822 -48.494  53.006  0.00  0.00    +0.000 A 
ENDBRANCH  17  19
ENDBRANCH  12  15
ENDBRANCH   9  12
ENDBRANCH   2   8
BRANCH   7  26
ATOM     26  O   UNL     1     -29.784 -40.754  54.915  0.00  0.00    +0.000 OA
BRANCH  26  27
ATOM     27  C   UNL     1     -30.349 -39.728  55.646  0.00  0.00    +0.000 A 
ATOM     28  C   UNL     1     -30.019 -39.625  57.007  0.00  0.00    +0.000 A 
ATOM     29  C   UNL     1     -30.552 -38.545  57.731  0.00  0.00    +0.000 A 
ATOM     30  C   UNL     1     -29.192 -40.557  57.654  0.00  0.00    +0.000 A 
ATOM     31  N   UNL     1     -31.344 -37.622  57.164  0.00  0.00    +0.000 NA
ATOM     32  C   UNL     1     -30.235 -38.443  59.077  0.00  0.00    +0.000 A 
ATOM     33  C   UNL     1     -31.628 -37.749  55.849  0.00  0.00    +0.000 A 
ATOM     34  C   UNL     1     -31.154 -38.766  55.046  0.00  0.00    +0.000 A 
ATOM     35  C   UNL     1     -29.409 -39.368  59.729  0.00  0.00    +0.000 A 
ATOM     36  C   UNL     1     -28.881 -40.441  59.009  0.00  0.00    +0.000 A 
BRANCH  36  37
ATOM     37  O   UNL     1     -28.082 -41.325  59.695  0.00  0.00    +0.000 OA
ATOM     38  C   UNL     1     -28.724 -42.474  60.177  0.00  0.00    +0.000 C 
ENDBRANCH  36  37
BRANCH  35  39
ATOM     39  O   UNL     1     -29.089 -39.284  61.063  0.00  0.00    +0.000 OA
BRANCH  39  40
ATOM     40  C   UNL     1     -30.117 -39.419  61.898  0.00  0.00    +0.000 C 
ATOM     41  C   UNL     1     -31.294 -39.590  62.865  0.00  0.00    +0.000 C 
BRANCH  41  42
ATOM     42  C   UNL     1     -32.466 -39.763  63.836  0.00  0.00    +0.000 C 
BRANCH  42  43
ATOM     43  N   UNL     1     -33.581 -39.928  64.759  0.00  0.00    +0.000 N 
ATOM     44  C   UNL     1     -34.824 -39.606  63.994  0.00  0.00    +0.000 C 
ATOM     45  C   UNL     1     -35.962 -40.568  63.522  0.00  0.00    +0.000 C 
ATOM     46  O   UNL     1     -36.188 -41.896  63.628  0.00  0.00    +0.000 OA
ATOM     47  C   UNL     1     -35.063 -42.189  64.312  0.00  0.00    +0.000 C 
ATOM     48  C   UNL     1     -33.839 -41.396  64.863  0.00  0.00    +0.000 C 
ENDBRANCH  42  43
ENDBRANCH  41  42
ENDBRANCH  39  40
ENDBRANCH  35  39
ENDBRANCH  26  27
ENDBRANCH   7  26
TORSDOF 11
ENDMDL
