MODEL 1
REMARK VINA RESULT:      -6.0      0.000      0.000
REMARK  Name = 
REMARK  7 active torsions:
REMARK  status: ('A' for Active; 'I' for Inactive)
REMARK    1  A    between atoms: S_1  and  O_3
REMARK    2  A    between atoms: S_1  and  O_6
REMARK    3  A    between atoms: O_3  and  C_9
REMARK    4  A    between atoms: O_4  and  C_10
REMARK    5  A    between atoms: O_5  and  C_11
REMARK    6  A    between atoms: C_12  and  C_14
REMARK    7  A    between atoms: C_13  and  C_15
REMARK                            x       y       z     vdW  Elec       q    Type
REMARK                         _______ _______ _______ _____ _____    ______ ____
ROOT
ATOM      1  O   UNL     1     -60.952 -65.752  39.906  0.00  0.00    +0.000 OA
ATOM      2  C   UNL     1     -63.273 -65.328  39.236  0.00  0.00    +0.000 C 
ATOM      3  C   UNL     1     -62.963 -63.825  39.172  0.00  0.00    +0.000 C 
ATOM      4  C   UNL     1     -61.796 -63.462  40.101  0.00  0.00    +0.000 C 
ATOM      5  C   UNL     1     -61.979 -66.123  38.978  0.00  0.00    +0.000 C 
ATOM      6  C   UNL     1     -60.590 -64.367  39.815  0.00  0.00    +0.000 C 
ATOM      7  C   UNL     1     -62.195 -67.625  39.120  0.00  0.00    +0.000 C 
ATOM      8  C   UNL     1     -59.460 -64.122  40.809  0.00  0.00    +0.000 C 
ENDROOT
BRANCH   3   9
ATOM      9  O   UNL     1     -64.084 -63.005  39.535  0.00  0.00    +0.000 OA
ATOM     10  H   UNL     1     -63.835 -62.062  39.439  0.00  0.00    +0.000 HD
ENDBRANCH   3   9
BRANCH   4  11
ATOM     11  O   UNL     1     -61.463 -62.085  39.901  0.00  0.00    +0.000 OA
ATOM     12  H   UNL     1     -61.722 -61.895  38.976  0.00  0.00    +0.000 HD
ENDBRANCH   4  11
BRANCH   2  13
ATOM     13  O   UNL     1     -63.786 -65.655  40.529  0.00  0.00    +0.000 OA
BRANCH  13  14
ATOM     14  S   UNL     1     -65.318 -66.171  40.645  0.00  0.00    +0.000 S 
ATOM     15  O   UNL     1     -65.549 -67.142  39.602  0.00  0.00    +0.000 OA
ATOM     16  O   UNL     1     -65.619 -66.435  42.036  0.00  0.00    +0.000 OA
BRANCH  14  17
ATOM     17  O   UNL     1     -66.140 -64.861  40.203  0.00  0.00    +0.000 OA
ATOM     18  H   UNL     1     -67.049 -64.960  40.555  0.00  0.00    +0.000 HD
ENDBRANCH  14  17
ENDBRANCH  13  14
ENDBRANCH   2  13
TORSDOF 5
ENDMDL
MODEL 2
REMARK VINA RESULT:      -5.6      2.520      4.109
REMARK  Name = 
REMARK  7 active torsions:
REMARK  status: ('A' for Active; 'I' for Inactive)
REMARK    1  A    between atoms: S_1  and  O_3
REMARK    2  A    between atoms: S_1  and  O_6
REMARK    3  A    between atoms: O_3  and  C_9
REMARK    4  A    between atoms: O_4  and  C_10
REMARK    5  A    between atoms: O_5  and  C_11
REMARK    6  A    between atoms: C_12  and  C_14
REMARK    7  A    between atoms: C_13  and  C_15
REMARK                            x       y       z     vdW  Elec       q    Type
REMARK                         _______ _______ _______ _____ _____    ______ ____
ROOT
ATOM      1  O   UNL     1     -62.200 -65.734  39.381  0.00  0.00    +0.000 OA
ATOM      2  C   UNL     1     -62.978 -66.114  41.675  0.00  0.00    +0.000 C 
ATOM      3  C   UNL     1     -64.338 -66.563  41.123  0.00  0.00    +0.000 C 
ATOM      4  C   UNL     1     -64.612 -65.932  39.750  0.00  0.00    +0.000 C 
ATOM      5  C   UNL     1     -61.889 -66.384  40.620  0.00  0.00    +0.000 C 
ATOM      6  C   UNL     1     -63.431 -66.190  38.804  0.00  0.00    +0.000 C 
ATOM      7  C   UNL     1     -60.523 -65.874  41.067  0.00  0.00    +0.000 C 
ATOM      8  C   UNL     1     -63.611 -65.465  37.475  0.00  0.00    +0.000 C 
ENDROOT
BRANCH   3   9
ATOM      9  O   UNL     1     -65.434 -66.225  41.986  0.00  0.00    +0.000 OA
ATOM     10  H   UNL     1     -66.007 -67.012  42.100  0.00  0.00    +0.000 HD
ENDBRANCH   3   9
BRANCH   4  11
ATOM     11  O   UNL     1     -65.821 -66.487  39.223  0.00  0.00    +0.000 OA
ATOM     12  H   UNL     1     -65.528 -67.159  38.574  0.00  0.00    +0.000 HD
ENDBRANCH   4  11
BRANCH   2  13
ATOM     13  O   UNL     1     -63.021 -64.717  41.973  0.00  0.00    +0.000 OA
BRANCH  13  14
ATOM     14  S   UNL     1     -62.902 -64.252  43.521  0.00  0.00    +0.000 S 
ATOM     15  O   UNL     1     -61.513 -64.318  43.908  0.00  0.00    +0.000 OA
ATOM     16  O   UNL     1     -63.709 -63.067  43.718  0.00  0.00    +0.000 OA
BRANCH  14  17
ATOM     17  O   UNL     1     -63.620 -65.471  44.286  0.00  0.00    +0.000 OA
ATOM     18  H   UNL     1     -62.959 -66.190  44.365  0.00  0.00    +0.000 HD
ENDBRANCH  14  17
ENDBRANCH  13  14
ENDBRANCH   2  13
TORSDOF 5
ENDMDL
MODEL 3
REMARK VINA RESULT:      -5.5      2.136      4.217
REMARK  Name = 
REMARK  7 active torsions:
REMARK  status: ('A' for Active; 'I' for Inactive)
REMARK    1  A    between atoms: S_1  and  O_3
REMARK    2  A    between atoms: S_1  and  O_6
REMARK    3  A    between atoms: O_3  and  C_9
REMARK    4  A    between atoms: O_4  and  C_10
REMARK    5  A    between atoms: O_5  and  C_11
REMARK    6  A    between atoms: C_12  and  C_14
REMARK    7  A    between atoms: C_13  and  C_15
REMARK                            x       y       z     vdW  Elec       q    Type
REMARK                         _______ _______ _______ _____ _____    ______ ____
ROOT
ATOM      1  O   UNL     1     -63.634 -67.657  38.821  0.00  0.00    +0.000 OA
ATOM      2  C   UNL     1     -62.405 -65.719  39.685  0.00  0.00    +0.000 C 
ATOM      3  C   UNL     1     -61.812 -66.606  40.789  0.00  0.00    +0.000 C 
ATOM      4  C   UNL     1     -62.732 -67.798  41.092  0.00  0.00    +0.000 C 
ATOM      5  C   UNL     1     -62.746 -66.590  38.462  0.00  0.00    +0.000 C 
ATOM      6  C   UNL     1     -63.074 -68.547  39.797  0.00  0.00    +0.000 C 
ATOM      7  C   UNL     1     -63.428 -65.786  37.361  0.00  0.00    +0.000 C 
ATOM      8  C   UNL     1     -64.092 -69.655  40.044  0.00  0.00    +0.000 C 
ENDROOT
BRANCH   3   9
ATOM      9  O   UNL     1     -61.590 -65.900  42.019  0.00  0.00    +0.000 OA
ATOM     10  H   UNL     1     -61.357 -66.544  42.720  0.00  0.00    +0.000 HD
ENDBRANCH   3   9
BRANCH   4  11
ATOM     11  O   UNL     1     -62.071 -68.661  42.024  0.00  0.00    +0.000 OA
ATOM     12  H   UNL     1     -61.229 -68.207  42.233  0.00  0.00    +0.000 HD
ENDBRANCH   4  11
BRANCH   2  13
ATOM     13  O   UNL     1     -63.592 -65.085  40.168  0.00  0.00    +0.000 OA
BRANCH  13  14
ATOM     14  S   UNL     1     -63.523 -63.517  40.571  0.00  0.00    +0.000 S 
ATOM     15  O   UNL     1     -63.418 -63.423  42.008  0.00  0.00    +0.000 OA
ATOM     16  O   UNL     1     -62.606 -62.844  39.677  0.00  0.00    +0.000 OA
BRANCH  14  17
ATOM     17  O   UNL     1     -65.011 -63.022  40.215  0.00  0.00    +0.000 OA
ATOM     18  H   UNL     1     -65.538 -63.078  41.039  0.00  0.00    +0.000 HD
ENDBRANCH  14  17
ENDBRANCH  13  14
ENDBRANCH   2  13
TORSDOF 5
ENDMDL
MODEL 4
REMARK VINA RESULT:      -5.1      3.168      4.614
REMARK  Name = 
REMARK  7 active torsions:
REMARK  status: ('A' for Active; 'I' for Inactive)
REMARK    1  A    between atoms: S_1  and  O_3
REMARK    2  A    between atoms: S_1  and  O_6
REMARK    3  A    between atoms: O_3  and  C_9
REMARK    4  A    between atoms: O_4  and  C_10
REMARK    5  A    between atoms: O_5  and  C_11
REMARK    6  A    between atoms: C_12  and  C_14
REMARK    7  A    between atoms: C_13  and  C_15
REMARK                            x       y       z     vdW  Elec       q    Type
REMARK                         _______ _______ _______ _____ _____    ______ ____
ROOT
ATOM      1  O   UNL     1     -61.745 -68.070  41.608  0.00  0.00    +0.000 OA
ATOM      2  C   UNL     1     -61.543 -65.687  41.062  0.00  0.00    +0.000 C 
ATOM      3  C   UNL     1     -60.197 -65.973  40.382  0.00  0.00    +0.000 C 
ATOM      4  C   UNL     1     -59.536 -67.228  40.971  0.00  0.00    +0.000 C 
ATOM      5  C   UNL     1     -62.417 -66.954  41.009  0.00  0.00    +0.000 C 
ATOM      6  C   UNL     1     -60.519 -68.407  40.944  0.00  0.00    +0.000 C 
ATOM      7  C   UNL     1     -63.736 -66.770  41.751  0.00  0.00    +0.000 C 
ATOM      8  C   UNL     1     -59.941 -69.632  41.642  0.00  0.00    +0.000 C 
ENDROOT
BRANCH   3   9
ATOM      9  O   UNL     1     -59.264 -64.889  40.504  0.00  0.00    +0.000 OA
ATOM     10  H   UNL     1     -59.756 -64.062  40.686  0.00  0.00    +0.000 HD
ENDBRANCH   3   9
BRANCH   4  11
ATOM     11  O   UNL     1     -58.359 -67.525  40.213  0.00  0.00    +0.000 OA
ATOM     12  H   UNL     1     -58.366 -68.499  40.109  0.00  0.00    +0.000 HD
ENDBRANCH   4  11
BRANCH   2  13
ATOM     13  O   UNL     1     -61.320 -65.316  42.424  0.00  0.00    +0.000 OA
BRANCH  13  14
ATOM     14  S   UNL     1     -61.640 -63.792  42.873  0.00  0.00    +0.000 S 
ATOM     15  O   UNL     1     -61.193 -62.908  41.824  0.00  0.00    +0.000 OA
ATOM     16  O   UNL     1     -62.979 -63.737  43.421  0.00  0.00    +0.000 OA
BRANCH  14  17
ATOM     17  O   UNL     1     -60.603 -63.583  44.084  0.00  0.00    +0.000 OA
ATOM     18  H   UNL     1     -59.860 -63.046  43.736  0.00  0.00    +0.000 HD
ENDBRANCH  14  17
ENDBRANCH  13  14
ENDBRANCH   2  13
TORSDOF 5
ENDMDL
MODEL 5
REMARK VINA RESULT:      -5.1     27.236     29.254
REMARK  Name = 
REMARK  7 active torsions:
REMARK  status: ('A' for Active; 'I' for Inactive)
REMARK    1  A    between atoms: S_1  and  O_3
REMARK    2  A    between atoms: S_1  and  O_6
REMARK    3  A    between atoms: O_3  and  C_9
REMARK    4  A    between atoms: O_4  and  C_10
REMARK    5  A    between atoms: O_5  and  C_11
REMARK    6  A    between atoms: C_12  and  C_14
REMARK    7  A    between atoms: C_13  and  C_15
REMARK                            x       y       z     vdW  Elec       q    Type
REMARK                         _______ _______ _______ _____ _____    ______ ____
ROOT
ATOM      1  O   UNL     1     -33.599 -60.016  42.307  0.00  0.00    +0.000 OA
ATOM      2  C   UNL     1     -34.191 -61.452  44.204  0.00  0.00    +0.000 C 
ATOM      3  C   UNL     1     -35.553 -61.728  43.550  0.00  0.00    +0.000 C 
ATOM      4  C   UNL     1     -35.961 -60.577  42.619  0.00  0.00    +0.000 C 
ATOM      5  C   UNL     1     -33.161 -61.121  43.109  0.00  0.00    +0.000 C 
ATOM      6  C   UNL     1     -34.833 -60.275  41.623  0.00  0.00    +0.000 C 
ATOM      7  C   UNL     1     -31.806 -60.744  43.696  0.00  0.00    +0.000 C 
ATOM      8  C   UNL     1     -35.151 -59.051  40.772  0.00  0.00    +0.000 C 
ENDROOT
BRANCH   3   9
ATOM      9  O   UNL     1     -36.608 -61.913  44.506  0.00  0.00    +0.000 OA
ATOM     10  H   UNL     1     -36.823 -62.868  44.565  0.00  0.00    +0.000 HD
ENDBRANCH   3   9
BRANCH   4  11
ATOM     11  O   UNL     1     -37.164 -60.944  41.936  0.00  0.00    +0.000 OA
ATOM     12  H   UNL     1     -37.576 -60.094  41.679  0.00  0.00    +0.000 HD
ENDBRANCH   4  11
BRANCH   2  13
ATOM     13  O   UNL     1     -34.308 -60.348  45.103  0.00  0.00    +0.000 OA
BRANCH  13  14
ATOM     14  S   UNL     1     -34.114 -60.616  46.689  0.00  0.00    +0.000 S 
ATOM     15  O   UNL     1     -33.217 -61.736  46.851  0.00  0.00    +0.000 OA
ATOM     16  O   UNL     1     -33.907 -59.350  47.357  0.00  0.00    +0.000 OA
BRANCH  14  17
ATOM     17  O   UNL     1     -35.567 -61.164  47.109  0.00  0.00    +0.000 OA
ATOM     18  H   UNL     1     -35.518 -62.143  47.099  0.00  0.00    +0.000 HD
ENDBRANCH  14  17
ENDBRANCH  13  14
ENDBRANCH   2  13
TORSDOF 5
ENDMDL
MODEL 6
REMARK VINA RESULT:      -5.0     35.053     36.038
REMARK  Name = 
REMARK  7 active torsions:
REMARK  status: ('A' for Active; 'I' for Inactive)
REMARK    1  A    between atoms: S_1  and  O_3
REMARK    2  A    between atoms: S_1  and  O_6
REMARK    3  A    between atoms: O_3  and  C_9
REMARK    4  A    between atoms: O_4  and  C_10
REMARK    5  A    between atoms: O_5  and  C_11
REMARK    6  A    between atoms: C_12  and  C_14
REMARK    7  A    between atoms: C_13  and  C_15
REMARK                            x       y       z     vdW  Elec       q    Type
REMARK                         _______ _______ _______ _____ _____    ______ ____
ROOT
ATOM      1  O   UNL     1     -31.150 -51.702  51.513  0.00  0.00    +0.000 OA
ATOM      2  C   UNL     1     -32.685 -52.724  53.129  0.00  0.00    +0.000 C 
ATOM      3  C   UNL     1     -33.638 -51.533  52.953  0.00  0.00    +0.000 C 
ATOM      4  C   UNL     1     -32.877 -50.278  52.505  0.00  0.00    +0.000 C 
ATOM      5  C   UNL     1     -31.857 -52.904  51.844  0.00  0.00    +0.000 C 
ATOM      6  C   UNL     1     -32.023 -50.589  51.269  0.00  0.00    +0.000 C 
ATOM      7  C   UNL     1     -30.820 -54.013  51.984  0.00  0.00    +0.000 C 
ATOM      8  C   UNL     1     -31.151 -49.401  50.877  0.00  0.00    +0.000 C 
ENDROOT
BRANCH   3   9
ATOM      9  O   UNL     1     -34.356 -51.206  54.153  0.00  0.00    +0.000 OA
ATOM     10  H   UNL     1     -34.172 -51.887  54.833  0.00  0.00    +0.000 HD
ENDBRANCH   3   9
BRANCH   4  11
ATOM     11  O   UNL     1     -33.824 -49.242  52.226  0.00  0.00    +0.000 OA
ATOM     12  H   UNL     1     -33.971 -48.797  53.086  0.00  0.00    +0.000 HD
ENDBRANCH   4  11
BRANCH   2  13
ATOM     13  O   UNL     1     -31.811 -52.476  54.232  0.00  0.00    +0.000 OA
BRANCH  13  14
ATOM     14  S   UNL     1     -31.992 -53.361  55.577  0.00  0.00    +0.000 S 
ATOM     15  O   UNL     1     -30.683 -53.765  56.033  0.00  0.00    +0.000 OA
ATOM     16  O   UNL     1     -32.949 -52.707  56.443  0.00  0.00    +0.000 OA
BRANCH  14  17
ATOM     17  O   UNL     1     -32.679 -54.696  55.002  0.00  0.00    +0.000 OA
ATOM     18  H   UNL     1     -32.647 -55.366  55.716  0.00  0.00    +0.000 HD
ENDBRANCH  14  17
ENDBRANCH  13  14
ENDBRANCH   2  13
TORSDOF 5
ENDMDL
MODEL 7
REMARK VINA RESULT:      -4.6     34.388     35.907
REMARK  Name = 
REMARK  7 active torsions:
REMARK  status: ('A' for Active; 'I' for Inactive)
REMARK    1  A    between atoms: S_1  and  O_3
REMARK    2  A    between atoms: S_1  and  O_6
REMARK    3  A    between atoms: O_3  and  C_9
REMARK    4  A    between atoms: O_4  and  C_10
REMARK    5  A    between atoms: O_5  and  C_11
REMARK    6  A    between atoms: C_12  and  C_14
REMARK    7  A    between atoms: C_13  and  C_15
REMARK                            x       y       z     vdW  Elec       q    Type
REMARK                         _______ _______ _______ _____ _____    ______ ____
ROOT
ATOM      1  O   UNL     1     -33.589 -44.498  51.144  0.00  0.00    +0.000 OA
ATOM      2  C   UNL     1     -35.959 -43.869  51.093  0.00  0.00    +0.000 C 
ATOM      3  C   UNL     1     -36.270 -45.022  52.057  0.00  0.00    +0.000 C 
ATOM      4  C   UNL     1     -35.224 -46.139  51.938  0.00  0.00    +0.000 C 
ATOM      5  C   UNL     1     -34.505 -43.408  51.307  0.00  0.00    +0.000 C 
ATOM      6  C   UNL     1     -33.810 -45.559  52.084  0.00  0.00    +0.000 C 
ATOM      7  C   UNL     1     -34.098 -42.325  50.314  0.00  0.00    +0.000 C 
ATOM      8  C   UNL     1     -32.743 -46.620  51.838  0.00  0.00    +0.000 C 
ENDROOT
BRANCH   3   9
ATOM      9  O   UNL     1     -37.562 -45.607  51.836  0.00  0.00    +0.000 OA
ATOM     10  H   UNL     1     -38.223 -45.144  52.392  0.00  0.00    +0.000 HD
ENDBRANCH   3   9
BRANCH   4  11
ATOM     11  O   UNL     1     -35.482 -47.120  52.948  0.00  0.00    +0.000 OA
ATOM     12  H   UNL     1     -36.321 -46.835  53.365  0.00  0.00    +0.000 HD
ENDBRANCH   4  11
BRANCH   2  13
ATOM     13  O   UNL     1     -36.127 -44.315  49.745  0.00  0.00    +0.000 OA
BRANCH  13  14
ATOM     14  S   UNL     1     -37.398 -43.768  48.902  0.00  0.00    +0.000 S 
ATOM     15  O   UNL     1     -38.009 -42.694  49.650  0.00  0.00    +0.000 OA
ATOM     16  O   UNL     1     -37.016 -43.630  47.514  0.00  0.00    +0.000 OA
BRANCH  14  17
ATOM     17  O   UNL     1     -38.421 -45.005  49.012  0.00  0.00    +0.000 OA
ATOM     18  H   UNL     1     -38.682 -45.079  49.954  0.00  0.00    +0.000 HD
ENDBRANCH  14  17
ENDBRANCH  13  14
ENDBRANCH   2  13
TORSDOF 5
ENDMDL
MODEL 8
REMARK VINA RESULT:      -4.6     22.784     23.747
REMARK  Name = 
REMARK  7 active torsions:
REMARK  status: ('A' for Active; 'I' for Inactive)
REMARK    1  A    between atoms: S_1  and  O_3
REMARK    2  A    between atoms: S_1  and  O_6
REMARK    3  A    between atoms: O_3  and  C_9
REMARK    4  A    between atoms: O_4  and  C_10
REMARK    5  A    between atoms: O_5  and  C_11
REMARK    6  A    between atoms: C_12  and  C_14
REMARK    7  A    between atoms: C_13  and  C_15
REMARK                            x       y       z     vdW  Elec       q    Type
REMARK                         _______ _______ _______ _____ _____    ______ ____
ROOT
ATOM      1  O   UNL     1     -43.807 -54.017  32.512  0.00  0.00    +0.000 OA
ATOM      2  C   UNL     1     -44.054 -51.611  32.914  0.00  0.00    +0.000 C 
ATOM      3  C   UNL     1     -43.563 -51.817  34.354  0.00  0.00    +0.000 C 
ATOM      4  C   UNL     1     -43.849 -53.246  34.835  0.00  0.00    +0.000 C 
ATOM      5  C   UNL     1     -43.467 -52.716  32.016  0.00  0.00    +0.000 C 
ATOM      6  C   UNL     1     -43.295 -54.265  33.829  0.00  0.00    +0.000 C 
ATOM      7  C   UNL     1     -43.990 -52.628  30.587  0.00  0.00    +0.000 C 
ATOM      8  C   UNL     1     -43.678 -55.691  34.210  0.00  0.00    +0.000 C 
ENDROOT
BRANCH   3   9
ATOM      9  O   UNL     1     -44.168 -50.911  35.288  0.00  0.00    +0.000 OA
ATOM     10  H   UNL     1     -45.128 -51.101  35.344  0.00  0.00    +0.000 HD
ENDBRANCH   3   9
BRANCH   4  11
ATOM     11  O   UNL     1     -43.252 -53.423  36.125  0.00  0.00    +0.000 OA
ATOM     12  H   UNL     1     -42.775 -52.586  36.297  0.00  0.00    +0.000 HD
ENDBRANCH   4  11
BRANCH   2  13
ATOM     13  O   UNL     1     -45.481 -51.675  32.882  0.00  0.00    +0.000 OA
BRANCH  13  14
ATOM     14  S   UNL     1     -46.309 -50.318  32.566  0.00  0.00    +0.000 S 
ATOM     15  O   UNL     1     -47.127 -50.549  31.398  0.00  0.00    +0.000 OA
ATOM     16  O   UNL     1     -46.848 -49.799  33.804  0.00  0.00    +0.000 OA
BRANCH  14  17
ATOM     17  O   UNL     1     -45.140 -49.325  32.082  0.00  0.00    +0.000 OA
ATOM     18  H   UNL     1     -44.934 -48.735  32.837  0.00  0.00    +0.000 HD
ENDBRANCH  14  17
ENDBRANCH  13  14
ENDBRANCH   2  13
TORSDOF 5
ENDMDL
MODEL 9
REMARK VINA RESULT:      -4.4     34.783     36.813
REMARK  Name = 
REMARK  7 active torsions:
REMARK  status: ('A' for Active; 'I' for Inactive)
REMARK    1  A    between atoms: S_1  and  O_3
REMARK    2  A    between atoms: S_1  and  O_6
REMARK    3  A    between atoms: O_3  and  C_9
REMARK    4  A    between atoms: O_4  and  C_10
REMARK    5  A    between atoms: O_5  and  C_11
REMARK    6  A    between atoms: C_12  and  C_14
REMARK    7  A    between atoms: C_13  and  C_15
REMARK                            x       y       z     vdW  Elec       q    Type
REMARK                         _______ _______ _______ _____ _____    ______ ____
ROOT
ATOM      1  O   UNL     1     -36.364 -42.884  50.352  0.00  0.00    +0.000 OA
ATOM      2  C   UNL     1     -35.873 -44.570  52.063  0.00  0.00    +0.000 C 
ATOM      3  C   UNL     1     -35.171 -43.492  52.901  0.00  0.00    +0.000 C 
ATOM      4  C   UNL     1     -34.644 -42.357  52.011  0.00  0.00    +0.000 C 
ATOM      5  C   UNL     1     -36.942 -43.906  51.175  0.00  0.00    +0.000 C 
ATOM      6  C   UNL     1     -35.767 -41.824  51.112  0.00  0.00    +0.000 C 
ATOM      7  C   UNL     1     -37.614 -44.908  50.245  0.00  0.00    +0.000 C 
ATOM      8  C   UNL     1     -35.246 -40.788  50.122  0.00  0.00    +0.000 C 
ENDROOT
BRANCH   3   9
ATOM      9  O   UNL     1     -34.066 -44.003  53.661  0.00  0.00    +0.000 OA
ATOM     10  H   UNL     1     -33.250 -43.940  53.122  0.00  0.00    +0.000 HD
ENDBRANCH   3   9
BRANCH   4  11
ATOM     11  O   UNL     1     -34.124 -41.321  52.851  0.00  0.00    +0.000 OA
ATOM     12  H   UNL     1     -33.985 -40.559  52.252  0.00  0.00    +0.000 HD
ENDBRANCH   4  11
BRANCH   2  13
ATOM     13  O   UNL     1     -34.912 -45.236  51.240  0.00  0.00    +0.000 OA
BRANCH  13  14
ATOM     14  S   UNL     1     -34.407 -46.711  51.680  0.00  0.00    +0.000 S 
ATOM     15  O   UNL     1     -33.027 -46.612  52.095  0.00  0.00    +0.000 OA
ATOM     16  O   UNL     1     -35.424 -47.329  52.502  0.00  0.00    +0.000 OA
BRANCH  14  17
ATOM     17  O   UNL     1     -34.377 -47.482  50.269  0.00  0.00    +0.000 OA
ATOM     18  H   UNL     1     -34.012 -46.857  49.608  0.00  0.00    +0.000 HD
ENDBRANCH  14  17
ENDBRANCH  13  14
ENDBRANCH   2  13
TORSDOF 5
ENDMDL
