MODEL 1
REMARK VINA RESULT:      -6.9      0.000      0.000
REMARK  Name = Fulvestrant.pdbqt.pdb
REMARK  12 active torsions:
REMARK  status: ('A' for Active; 'I' for Inactive)
REMARK    1  A    between atoms: C_6  and  O_40
REMARK    2  A    between atoms: C_8  and  C_19
REMARK    3  A    between atoms: C_18  and  O_42
REMARK    4  A    between atoms: C_20  and  C_21
REMARK    5  A    between atoms: C_22  and  C_23
REMARK    6  A    between atoms: C_23  and  C_24
REMARK    7  A    between atoms: C_25  and  C_26
REMARK    8  A    between atoms: C_27  and  S_28
REMARK    9  A    between atoms: S_28  and  C_30
REMARK   10  A    between atoms: C_30  and  C_31
REMARK   11  A    between atoms: C_32  and  C_33
REMARK   12  A    between atoms: C_33  and  C_36
REMARK                            x       y       z     vdW  Elec       q    Type
REMARK                         _______ _______ _______ _____ _____    ______ ____
ROOT
ATOM      1  C   UNL     1     -45.182 -66.796  34.184  0.00  0.00    +0.000 C 
ATOM      2  C   UNL     1     -44.893 -67.179  32.653  0.00  0.00    +0.000 C 
ATOM      3  C   UNL     1     -45.662 -65.448  34.628  0.00  0.00    +0.000 A 
ATOM      4  C   UNL     1     -46.304 -64.456  33.636  0.00  0.00    +0.000 A 
ATOM      5  C   UNL     1     -45.635 -66.209  31.854  0.00  0.00    +0.000 C 
ATOM      6  C   UNL     1     -45.448 -68.616  32.546  0.00  0.00    +0.000 C 
ATOM      7  C   UNL     1     -45.703 -67.974  34.810  0.00  0.00    +0.000 C 
ATOM      8  C   UNL     1     -45.563 -65.004  36.044  0.00  0.00    +0.000 A 
ATOM      9  C   UNL     1     -46.287 -64.931  32.303  0.00  0.00    +0.000 C 
ATOM     10  C   UNL     1     -45.892 -69.086  33.811  0.00  0.00    +0.000 C 
ATOM     11  C   UNL     1     -43.361 -67.163  32.417  0.00  0.00    +0.000 C 
ATOM     12  C   UNL     1     -46.835 -63.122  34.033  0.00  0.00    +0.000 A 
ATOM     13  C   UNL     1     -46.129 -63.718  36.216  0.00  0.00    +0.000 A 
ATOM     14  C   UNL     1     -46.742 -62.740  35.393  0.00  0.00    +0.000 A 
ATOM     15  C   UNL     1     -47.415 -62.236  33.127  0.00  0.00    +0.000 A 
ATOM     16  C   UNL     1     -47.207 -61.517  35.850  0.00  0.00    +0.000 A 
ATOM     17  C   UNL     1     -47.889 -61.001  33.573  0.00  0.00    +0.000 A 
ATOM     18  C   UNL     1     -47.781 -60.654  34.921  0.00  0.00    +0.000 A 
ENDROOT
BRANCH   8  19
ATOM     19  C   UNL     1     -44.830 -65.700  37.035  0.00  0.00    +0.000 C 
ATOM     20  C   UNL     1     -44.028 -66.435  38.113  0.00  0.00    +0.000 C 
BRANCH  20  21
ATOM     21  C   UNL     1     -43.214 -67.145  39.198  0.00  0.00    +0.000 C 
ATOM     22  C   UNL     1     -42.425 -67.870  40.293  0.00  0.00    +0.000 C 
BRANCH  22  23
ATOM     23  C   UNL     1     -41.666 -68.610  41.399  0.00  0.00    +0.000 C 
BRANCH  23  24
ATOM     24  C   UNL     1     -40.918 -69.326  42.529  0.00  0.00    +0.000 C 
ATOM     25  C   UNL     1     -40.192 -70.070  43.654  0.00  0.00    +0.000 C 
BRANCH  25  26
ATOM     26  C   UNL     1     -39.489 -70.840  44.776  0.00  0.00    +0.000 C 
ATOM     27  C   UNL     1     -38.755 -71.610  45.878  0.00  0.00    +0.000 C 
BRANCH  27  28
ATOM     28  S   UNL     1     -37.883 -72.496  47.124  0.00  0.00    +0.000 S 
ATOM     29  O   UNL     1     -37.891 -71.316  48.050  0.00  0.00    +0.000 OA
BRANCH  28  30
ATOM     30  C   UNL     1     -39.350 -73.151  47.846  0.00  0.00    +0.000 C 
BRANCH  30  31
ATOM     31  C   UNL     1     -40.615 -73.724  48.495  0.00  0.00    +0.000 C 
ATOM     32  C   UNL     1     -41.873 -74.314  49.141  0.00  0.00    +0.000 C 
BRANCH  32  33
ATOM     33  C   UNL     1     -43.073 -74.887  49.757  0.00  0.00    +0.000 C 
ATOM     34  F   UNL     1     -43.192 -74.364  51.009  0.00  0.00    +0.000 F 
ATOM     35  F   UNL     1     -42.856 -76.221  49.928  0.00  0.00    +0.000 F 
BRANCH  33  36
ATOM     36  C   UNL     1     -44.347 -74.644  48.942  0.00  0.00    +0.000 C 
ATOM     37  F   UNL     1     -45.273 -73.940  49.642  0.00  0.00    +0.000 F 
ATOM     38  F   UNL     1     -44.939 -75.803  48.560  0.00  0.00    +0.000 F 
ATOM     39  F   UNL     1     -44.094 -73.941  47.808  0.00  0.00    +0.000 F 
ENDBRANCH  33  36
ENDBRANCH  32  33
ENDBRANCH  30  31
ENDBRANCH  28  30
ENDBRANCH  27  28
ENDBRANCH  25  26
ENDBRANCH  23  24
ENDBRANCH  22  23
ENDBRANCH  20  21
ENDBRANCH   8  19
BRANCH   6  40
ATOM     40  O   UNL     1     -45.901 -69.156  31.360  0.00  0.00    +0.000 OA
ATOM     41  H   UNL     1     -46.495 -69.912  31.511  0.00  0.00    +0.000 HD
ENDBRANCH   6  40
BRANCH  18  42
ATOM     42  O   UNL     1     -48.258 -59.435  35.311  0.00  0.00    +0.000 OA
ATOM     43  H   UNL     1     -49.063 -59.242  34.800  0.00  0.00    +0.000 HD
ENDBRANCH  18  42
TORSDOF 12
ENDMDL
MODEL 2
REMARK VINA RESULT:      -6.6     21.749     27.874
REMARK  Name = Fulvestrant.pdbqt.pdb
REMARK  12 active torsions:
REMARK  status: ('A' for Active; 'I' for Inactive)
REMARK    1  A    between atoms: C_6  and  O_40
REMARK    2  A    between atoms: C_8  and  C_19
REMARK    3  A    between atoms: C_18  and  O_42
REMARK    4  A    between atoms: C_20  and  C_21
REMARK    5  A    between atoms: C_22  and  C_23
REMARK    6  A    between atoms: C_23  and  C_24
REMARK    7  A    between atoms: C_25  and  C_26
REMARK    8  A    between atoms: C_27  and  S_28
REMARK    9  A    between atoms: S_28  and  C_30
REMARK   10  A    between atoms: C_30  and  C_31
REMARK   11  A    between atoms: C_32  and  C_33
REMARK   12  A    between atoms: C_33  and  C_36
REMARK                            x       y       z     vdW  Elec       q    Type
REMARK                         _______ _______ _______ _____ _____    ______ ____
ROOT
ATOM      1  C   UNL     1     -45.949 -76.222  65.518  0.00  0.00    +0.000 C 
ATOM      2  C   UNL     1     -45.830 -75.317  66.838  0.00  0.00    +0.000 C 
ATOM      3  C   UNL     1     -44.957 -76.191  64.396  0.00  0.00    +0.000 A 
ATOM      4  C   UNL     1     -43.543 -75.604  64.588  0.00  0.00    +0.000 A 
ATOM      5  C   UNL     1     -44.429 -74.920  66.921  0.00  0.00    +0.000 C 
ATOM      6  C   UNL     1     -46.262 -76.286  67.960  0.00  0.00    +0.000 C 
ATOM      7  C   UNL     1     -46.515 -77.473  65.928  0.00  0.00    +0.000 C 
ATOM      8  C   UNL     1     -45.274 -76.739  63.050  0.00  0.00    +0.000 A 
ATOM      9  C   UNL     1     -43.358 -75.040  65.873  0.00  0.00    +0.000 C 
ATOM     10  C   UNL     1     -46.688 -77.531  67.423  0.00  0.00    +0.000 C 
ATOM     11  C   UNL     1     -46.825 -74.135  66.721  0.00  0.00    +0.000 C 
ATOM     12  C   UNL     1     -42.506 -75.587  63.519  0.00  0.00    +0.000 A 
ATOM     13  C   UNL     1     -44.159 -76.637  62.183  0.00  0.00    +0.000 A 
ATOM     14  C   UNL     1     -42.835 -76.133  62.255  0.00  0.00    +0.000 A 
ATOM     15  C   UNL     1     -41.232 -75.055  63.707  0.00  0.00    +0.000 A 
ATOM     16  C   UNL     1     -41.934 -76.157  61.203  0.00  0.00    +0.000 A 
ATOM     17  C   UNL     1     -40.313 -75.072  62.656  0.00  0.00    +0.000 A 
ATOM     18  C   UNL     1     -40.670 -75.619  61.422  0.00  0.00    +0.000 A 
ENDROOT
BRANCH   8  19
ATOM     19  C   UNL     1     -46.573 -77.129  62.648  0.00  0.00    +0.000 C 
ATOM     20  C   UNL     1     -47.977 -77.541  62.194  0.00  0.00    +0.000 C 
BRANCH  20  21
ATOM     21  C   UNL     1     -49.378 -77.936  61.717  0.00  0.00    +0.000 C 
ATOM     22  C   UNL     1     -50.776 -78.309  61.216  0.00  0.00    +0.000 C 
BRANCH  22  23
ATOM     23  C   UNL     1     -52.173 -78.657  60.692  0.00  0.00    +0.000 C 
BRANCH  23  24
ATOM     24  C   UNL     1     -53.555 -79.017  60.137  0.00  0.00    +0.000 C 
ATOM     25  C   UNL     1     -54.937 -79.347  59.565  0.00  0.00    +0.000 C 
BRANCH  25  26
ATOM     26  C   UNL     1     -56.320 -79.644  58.976  0.00  0.00    +0.000 C 
ATOM     27  C   UNL     1     -57.688 -79.970  58.369  0.00  0.00    +0.000 C 
BRANCH  27  28
ATOM     28  S   UNL     1     -59.245 -80.367  57.650  0.00  0.00    +0.000 S 
ATOM     29  O   UNL     1     -59.993 -79.645  58.731  0.00  0.00    +0.000 OA
BRANCH  28  30
ATOM     30  C   UNL     1     -59.255 -78.947  56.608  0.00  0.00    +0.000 C 
BRANCH  30  31
ATOM     31  C   UNL     1     -59.266 -77.697  55.721  0.00  0.00    +0.000 C 
ATOM     32  C   UNL     1     -59.263 -76.440  54.845  0.00  0.00    +0.000 C 
BRANCH  32  33
ATOM     33  C   UNL     1     -59.253 -75.234  54.012  0.00  0.00    +0.000 C 
ATOM     34  F   UNL     1     -58.708 -74.223  54.745  0.00  0.00    +0.000 F 
ATOM     35  F   UNL     1     -60.548 -74.875  53.785  0.00  0.00    +0.000 F 
BRANCH  33  36
ATOM     36  C   UNL     1     -58.500 -75.416  52.691  0.00  0.00    +0.000 C 
ATOM     37  F   UNL     1     -57.253 -74.880  52.738  0.00  0.00    +0.000 F 
ATOM     38  F   UNL     1     -59.141 -74.829  51.650  0.00  0.00    +0.000 F 
ATOM     39  F   UNL     1     -58.351 -76.727  52.371  0.00  0.00    +0.000 F 
ENDBRANCH  33  36
ENDBRANCH  32  33
ENDBRANCH  30  31
ENDBRANCH  28  30
ENDBRANCH  27  28
ENDBRANCH  25  26
ENDBRANCH  23  24
ENDBRANCH  22  23
ENDBRANCH  20  21
ENDBRANCH   8  19
BRANCH   6  40
ATOM     40  O   UNL     1     -45.835 -76.155  69.265  0.00  0.00    +0.000 OA
ATOM     41  H   UNL     1     -46.396 -75.539  69.769  0.00  0.00    +0.000 HD
ENDBRANCH   6  40
BRANCH  18  42
ATOM     42  O   UNL     1     -39.737 -75.612  60.423  0.00  0.00    +0.000 OA
ATOM     43  H   UNL     1     -39.703 -76.501  60.029  0.00  0.00    +0.000 HD
ENDBRANCH  18  42
TORSDOF 12
ENDMDL
MODEL 3
REMARK VINA RESULT:      -6.4     24.918     27.060
REMARK  Name = Fulvestrant.pdbqt.pdb
REMARK  12 active torsions:
REMARK  status: ('A' for Active; 'I' for Inactive)
REMARK    1  A    between atoms: C_6  and  O_40
REMARK    2  A    between atoms: C_8  and  C_19
REMARK    3  A    between atoms: C_18  and  O_42
REMARK    4  A    between atoms: C_20  and  C_21
REMARK    5  A    between atoms: C_22  and  C_23
REMARK    6  A    between atoms: C_23  and  C_24
REMARK    7  A    between atoms: C_25  and  C_26
REMARK    8  A    between atoms: C_27  and  S_28
REMARK    9  A    between atoms: S_28  and  C_30
REMARK   10  A    between atoms: C_30  and  C_31
REMARK   11  A    between atoms: C_32  and  C_33
REMARK   12  A    between atoms: C_33  and  C_36
REMARK                            x       y       z     vdW  Elec       q    Type
REMARK                         _______ _______ _______ _____ _____    ______ ____
ROOT
ATOM      1  C   UNL     1     -61.011 -74.054  60.399  0.00  0.00    +0.000 C 
ATOM      2  C   UNL     1     -61.915 -74.116  59.074  0.00  0.00    +0.000 C 
ATOM      3  C   UNL     1     -61.035 -72.913  61.370  0.00  0.00    +0.000 A 
ATOM      4  C   UNL     1     -62.207 -71.910  61.402  0.00  0.00    +0.000 A 
ATOM      5  C   UNL     1     -63.015 -73.185  59.301  0.00  0.00    +0.000 C 
ATOM      6  C   UNL     1     -62.360 -75.595  59.030  0.00  0.00    +0.000 C 
ATOM      7  C   UNL     1     -60.906 -75.397  60.887  0.00  0.00    +0.000 C 
ATOM      8  C   UNL     1     -59.947 -72.700  62.361  0.00  0.00    +0.000 A 
ATOM      9  C   UNL     1     -63.154 -72.145  60.378  0.00  0.00    +0.000 C 
ATOM     10  C   UNL     1     -61.747 -76.343  60.070  0.00  0.00    +0.000 C 
ATOM     11  C   UNL     1     -61.027 -73.774  57.851  0.00  0.00    +0.000 C 
ATOM     12  C   UNL     1     -62.300 -70.784  62.374  0.00  0.00    +0.000 A 
ATOM     13  C   UNL     1     -60.227 -71.590  63.195  0.00  0.00    +0.000 A 
ATOM     14  C   UNL     1     -61.256 -70.622  63.316  0.00  0.00    +0.000 A 
ATOM     15  C   UNL     1     -63.365 -69.886  62.394  0.00  0.00    +0.000 A 
ATOM     16  C   UNL     1     -61.259 -69.603  64.254  0.00  0.00    +0.000 A 
ATOM     17  C   UNL     1     -63.382 -68.854  63.334  0.00  0.00    +0.000 A 
ATOM     18  C   UNL     1     -62.336 -68.722  64.249  0.00  0.00    +0.000 A 
ENDROOT
BRANCH   8  19
ATOM     19  C   UNL     1     -58.718 -73.401  62.339  0.00  0.00    +0.000 C 
ATOM     20  C   UNL     1     -57.382 -74.149  62.297  0.00  0.00    +0.000 C 
BRANCH  20  21
ATOM     21  C   UNL     1     -56.041 -74.885  62.228  0.00  0.00    +0.000 C 
ATOM     22  C   UNL     1     -54.690 -75.601  62.137  0.00  0.00    +0.000 C 
BRANCH  22  23
ATOM     23  C   UNL     1     -53.331 -76.297  62.018  0.00  0.00    +0.000 C 
BRANCH  23  24
ATOM     24  C   UNL     1     -51.955 -76.962  61.896  0.00  0.00    +0.000 C 
ATOM     25  C   UNL     1     -50.565 -77.595  61.781  0.00  0.00    +0.000 C 
BRANCH  25  26
ATOM     26  C   UNL     1     -49.160 -78.195  61.670  0.00  0.00    +0.000 C 
ATOM     27  C   UNL     1     -47.745 -78.777  61.589  0.00  0.00    +0.000 C 
BRANCH  27  28
ATOM     28  S   UNL     1     -46.110 -79.425  61.522  0.00  0.00    +0.000 S 
ATOM     29  O   UNL     1     -45.786 -78.634  60.289  0.00  0.00    +0.000 OA
BRANCH  28  30
ATOM     30  C   UNL     1     -45.450 -78.175  62.573  0.00  0.00    +0.000 C 
BRANCH  30  31
ATOM     31  C   UNL     1     -44.854 -77.098  63.487  0.00  0.00    +0.000 C 
ATOM     32  C   UNL     1     -44.249 -76.036  64.411  0.00  0.00    +0.000 C 
BRANCH  32  33
ATOM     33  C   UNL     1     -43.668 -75.026  65.300  0.00  0.00    +0.000 C 
ATOM     34  F   UNL     1     -43.305 -75.646  66.458  0.00  0.00    +0.000 F 
ATOM     35  F   UNL     1     -44.657 -74.152  65.639  0.00  0.00    +0.000 F 
BRANCH  33  36
ATOM     36  C   UNL     1     -42.477 -74.287  64.682  0.00  0.00    +0.000 C 
ATOM     37  F   UNL     1     -42.479 -72.966  64.997  0.00  0.00    +0.000 F 
ATOM     38  F   UNL     1     -42.470 -74.369  63.328  0.00  0.00    +0.000 F 
ATOM     39  F   UNL     1     -41.292 -74.791  65.113  0.00  0.00    +0.000 F 
ENDBRANCH  33  36
ENDBRANCH  32  33
ENDBRANCH  30  31
ENDBRANCH  28  30
ENDBRANCH  27  28
ENDBRANCH  25  26
ENDBRANCH  23  24
ENDBRANCH  22  23
ENDBRANCH  20  21
ENDBRANCH   8  19
BRANCH   6  40
ATOM     40  O   UNL     1     -63.525 -76.005  58.416  0.00  0.00    +0.000 OA
ATOM     41  H   UNL     1     -63.396 -76.828  57.911  0.00  0.00    +0.000 HD
ENDBRANCH   6  40
BRANCH  18  42
ATOM     42  O   UNL     1     -62.397 -67.695  65.149  0.00  0.00    +0.000 OA
ATOM     43  H   UNL     1     -63.330 -67.450  65.272  0.00  0.00    +0.000 HD
ENDBRANCH  18  42
TORSDOF 12
ENDMDL
MODEL 4
REMARK VINA RESULT:      -6.3     17.776     25.256
REMARK  Name = Fulvestrant.pdbqt.pdb
REMARK  12 active torsions:
REMARK  status: ('A' for Active; 'I' for Inactive)
REMARK    1  A    between atoms: C_6  and  O_40
REMARK    2  A    between atoms: C_8  and  C_19
REMARK    3  A    between atoms: C_18  and  O_42
REMARK    4  A    between atoms: C_20  and  C_21
REMARK    5  A    between atoms: C_22  and  C_23
REMARK    6  A    between atoms: C_23  and  C_24
REMARK    7  A    between atoms: C_25  and  C_26
REMARK    8  A    between atoms: C_27  and  S_28
REMARK    9  A    between atoms: S_28  and  C_30
REMARK   10  A    between atoms: C_30  and  C_31
REMARK   11  A    between atoms: C_32  and  C_33
REMARK   12  A    between atoms: C_33  and  C_36
REMARK                            x       y       z     vdW  Elec       q    Type
REMARK                         _______ _______ _______ _____ _____    ______ ____
ROOT
ATOM      1  C   UNL     1     -43.337 -76.874  61.761  0.00  0.00    +0.000 C 
ATOM      2  C   UNL     1     -44.530 -77.505  60.893  0.00  0.00    +0.000 C 
ATOM      3  C   UNL     1     -43.546 -76.118  63.037  0.00  0.00    +0.000 A 
ATOM      4  C   UNL     1     -44.864 -76.231  63.832  0.00  0.00    +0.000 A 
ATOM      5  C   UNL     1     -45.662 -77.626  61.805  0.00  0.00    +0.000 C 
ATOM      6  C   UNL     1     -43.950 -78.866  60.448  0.00  0.00    +0.000 C 
ATOM      7  C   UNL     1     -42.226 -77.771  61.644  0.00  0.00    +0.000 C 
ATOM      8  C   UNL     1     -42.494 -75.238  63.612  0.00  0.00    +0.000 A 
ATOM      9  C   UNL     1     -45.831 -77.026  63.173  0.00  0.00    +0.000 C 
ATOM     10  C   UNL     1     -42.598 -79.004  60.863  0.00  0.00    +0.000 C 
ATOM     11  C   UNL     1     -44.790 -76.592  59.667  0.00  0.00    +0.000 C 
ATOM     12  C   UNL     1     -45.107 -75.533  65.126  0.00  0.00    +0.000 A 
ATOM     13  C   UNL     1     -42.914 -74.677  64.843  0.00  0.00    +0.000 A 
ATOM     14  C   UNL     1     -44.077 -74.719  65.654  0.00  0.00    +0.000 A 
ATOM     15  C   UNL     1     -46.301 -75.646  65.835  0.00  0.00    +0.000 A 
ATOM     16  C   UNL     1     -44.218 -74.032  66.849  0.00  0.00    +0.000 A 
ATOM     17  C   UNL     1     -46.457 -74.960  67.041  0.00  0.00    +0.000 A 
ATOM     18  C   UNL     1     -45.422 -74.164  67.533  0.00  0.00    +0.000 A 
ENDROOT
BRANCH   8  19
ATOM     19  C   UNL     1     -41.316 -74.869  62.921  0.00  0.00    +0.000 C 
ATOM     20  C   UNL     1     -40.051 -74.468  62.154  0.00  0.00    +0.000 C 
BRANCH  20  21
ATOM     21  C   UNL     1     -38.803 -74.067  61.363  0.00  0.00    +0.000 C 
ATOM     22  C   UNL     1     -37.542 -73.696  60.577  0.00  0.00    +0.000 C 
BRANCH  22  23
ATOM     23  C   UNL     1     -36.267 -73.354  59.800  0.00  0.00    +0.000 C 
BRANCH  23  24
ATOM     24  C   UNL     1     -34.987 -72.984  59.043  0.00  0.00    +0.000 C 
ATOM     25  C   UNL     1     -33.717 -72.579  58.288  0.00  0.00    +0.000 C 
BRANCH  25  26
ATOM     26  C   UNL     1     -32.460 -72.142  57.530  0.00  0.00    +0.000 C 
ATOM     27  C   UNL     1     -31.197 -71.677  56.798  0.00  0.00    +0.000 C 
BRANCH  27  28
ATOM     28  S   UNL     1     -29.743 -71.117  55.979  0.00  0.00    +0.000 S 
ATOM     29  O   UNL     1     -29.734 -72.304  55.061  0.00  0.00    +0.000 OA
BRANCH  28  30
ATOM     30  C   UNL     1     -30.636 -70.145  54.814  0.00  0.00    +0.000 C 
BRANCH  30  31
ATOM     31  C   UNL     1     -31.435 -69.307  53.808  0.00  0.00    +0.000 C 
ATOM     32  C   UNL     1     -32.249 -68.475  52.812  0.00  0.00    +0.000 C 
BRANCH  32  33
ATOM     33  C   UNL     1     -33.036 -67.683  51.863  0.00  0.00    +0.000 C 
ATOM     34  F   UNL     1     -32.389 -66.499  51.668  0.00  0.00    +0.000 F 
ATOM     35  F   UNL     1     -34.218 -67.368  52.463  0.00  0.00    +0.000 F 
BRANCH  33  36
ATOM     36  C   UNL     1     -33.277 -68.398  50.530  0.00  0.00    +0.000 C 
ATOM     37  F   UNL     1     -32.785 -69.663  50.535  0.00  0.00    +0.000 F 
ATOM     38  F   UNL     1     -32.693 -67.752  49.490  0.00  0.00    +0.000 F 
ATOM     39  F   UNL     1     -34.600 -68.493  50.240  0.00  0.00    +0.000 F 
ENDBRANCH  33  36
ENDBRANCH  32  33
ENDBRANCH  30  31
ENDBRANCH  28  30
ENDBRANCH  27  28
ENDBRANCH  25  26
ENDBRANCH  23  24
ENDBRANCH  22  23
ENDBRANCH  20  21
ENDBRANCH   8  19
BRANCH   6  40
ATOM     40  O   UNL     1     -44.744 -79.954  60.151  0.00  0.00    +0.000 OA
ATOM     41  H   UNL     1     -44.496 -80.736  60.676  0.00  0.00    +0.000 HD
ENDBRANCH   6  40
BRANCH  18  42
ATOM     42  O   UNL     1     -45.621 -73.512  68.717  0.00  0.00    +0.000 OA
ATOM     43  H   UNL     1     -46.493 -73.768  69.066  0.00  0.00    +0.000 HD
ENDBRANCH  18  42
TORSDOF 12
ENDMDL
MODEL 5
REMARK VINA RESULT:      -6.3     22.988     27.985
REMARK  Name = Fulvestrant.pdbqt.pdb
REMARK  12 active torsions:
REMARK  status: ('A' for Active; 'I' for Inactive)
REMARK    1  A    between atoms: C_6  and  O_40
REMARK    2  A    between atoms: C_8  and  C_19
REMARK    3  A    between atoms: C_18  and  O_42
REMARK    4  A    between atoms: C_20  and  C_21
REMARK    5  A    between atoms: C_22  and  C_23
REMARK    6  A    between atoms: C_23  and  C_24
REMARK    7  A    between atoms: C_25  and  C_26
REMARK    8  A    between atoms: C_27  and  S_28
REMARK    9  A    between atoms: S_28  and  C_30
REMARK   10  A    between atoms: C_30  and  C_31
REMARK   11  A    between atoms: C_32  and  C_33
REMARK   12  A    between atoms: C_33  and  C_36
REMARK                            x       y       z     vdW  Elec       q    Type
REMARK                         _______ _______ _______ _____ _____    ______ ____
ROOT
ATOM      1  C   UNL     1     -45.690 -76.162  65.516  0.00  0.00    +0.000 C 
ATOM      2  C   UNL     1     -45.598 -75.228  66.817  0.00  0.00    +0.000 C 
ATOM      3  C   UNL     1     -44.727 -76.092  64.370  0.00  0.00    +0.000 A 
ATOM      4  C   UNL     1     -43.348 -75.416  64.520  0.00  0.00    +0.000 A 
ATOM      5  C   UNL     1     -44.222 -74.744  66.861  0.00  0.00    +0.000 C 
ATOM      6  C   UNL     1     -45.944 -76.201  67.965  0.00  0.00    +0.000 C 
ATOM      7  C   UNL     1     -46.168 -77.438  65.960  0.00  0.00    +0.000 C 
ATOM      8  C   UNL     1     -45.039 -76.682  63.041  0.00  0.00    +0.000 A 
ATOM      9  C   UNL     1     -43.169 -74.818  65.790  0.00  0.00    +0.000 C 
ATOM     10  C   UNL     1     -46.304 -77.479  67.460  0.00  0.00    +0.000 C 
ATOM     11  C   UNL     1     -46.666 -74.111  66.703  0.00  0.00    +0.000 C 
ATOM     12  C   UNL     1     -42.338 -75.355  63.426  0.00  0.00    +0.000 A 
ATOM     13  C   UNL     1     -43.953 -76.528  62.147  0.00  0.00    +0.000 A 
ATOM     14  C   UNL     1     -42.661 -75.943  62.180  0.00  0.00    +0.000 A 
ATOM     15  C   UNL     1     -41.095 -74.743  63.575  0.00  0.00    +0.000 A 
ATOM     16  C   UNL     1     -41.784 -75.931  61.107  0.00  0.00    +0.000 A 
ATOM     17  C   UNL     1     -40.200 -74.724  62.503  0.00  0.00    +0.000 A 
ATOM     18  C   UNL     1     -40.550 -75.313  61.287  0.00  0.00    +0.000 A 
ENDROOT
BRANCH   8  19
ATOM     19  C   UNL     1     -46.321 -77.158  62.676  0.00  0.00    +0.000 C 
ATOM     20  C   UNL     1     -47.707 -77.662  62.263  0.00  0.00    +0.000 C 
BRANCH  20  21
ATOM     21  C   UNL     1     -49.092 -78.149  61.826  0.00  0.00    +0.000 C 
ATOM     22  C   UNL     1     -50.474 -78.619  61.362  0.00  0.00    +0.000 C 
BRANCH  22  23
ATOM     23  C   UNL     1     -51.853 -79.069  60.871  0.00  0.00    +0.000 C 
BRANCH  23  24
ATOM     24  C   UNL     1     -53.218 -79.529  60.349  0.00  0.00    +0.000 C 
ATOM     25  C   UNL     1     -54.567 -80.003  59.798  0.00  0.00    +0.000 C 
BRANCH  25  26
ATOM     26  C   UNL     1     -55.899 -80.487  59.217  0.00  0.00    +0.000 C 
ATOM     27  C   UNL     1     -57.244 -80.936  58.637  0.00  0.00    +0.000 C 
BRANCH  27  28
ATOM     28  S   UNL     1     -58.802 -81.419  57.974  0.00  0.00    +0.000 S 
ATOM     29  O   UNL     1     -59.547 -80.774  59.105  0.00  0.00    +0.000 OA
BRANCH  28  30
ATOM     30  C   UNL     1     -58.950 -79.979  56.971  0.00  0.00    +0.000 C 
BRANCH  30  31
ATOM     31  C   UNL     1     -59.056 -78.727  56.094  0.00  0.00    +0.000 C 
ATOM     32  C   UNL     1     -59.170 -77.466  55.230  0.00  0.00    +0.000 C 
BRANCH  32  33
ATOM     33  C   UNL     1     -59.285 -76.256  54.412  0.00  0.00    +0.000 C 
ATOM     34  F   UNL     1     -59.950 -76.584  53.268  0.00  0.00    +0.000 F 
ATOM     35  F   UNL     1     -58.029 -75.896  54.023  0.00  0.00    +0.000 F 
BRANCH  33  36
ATOM     36  C   UNL     1     -59.983 -75.099  55.134  0.00  0.00    +0.000 C 
ATOM     37  F   UNL     1     -60.569 -75.501  56.291  0.00  0.00    +0.000 F 
ATOM     38  F   UNL     1     -60.954 -74.533  54.376  0.00  0.00    +0.000 F 
ATOM     39  F   UNL     1     -59.112 -74.109  55.460  0.00  0.00    +0.000 F 
ENDBRANCH  33  36
ENDBRANCH  32  33
ENDBRANCH  30  31
ENDBRANCH  28  30
ENDBRANCH  27  28
ENDBRANCH  25  26
ENDBRANCH  23  24
ENDBRANCH  22  23
ENDBRANCH  20  21
ENDBRANCH   8  19
BRANCH   6  40
ATOM     40  O   UNL     1     -45.497 -76.020  69.257  0.00  0.00    +0.000 OA
ATOM     41  H   UNL     1     -44.609 -76.398  69.388  0.00  0.00    +0.000 HD
ENDBRANCH   6  40
BRANCH  18  42
ATOM     42  O   UNL     1     -39.643 -75.268  60.267  0.00  0.00    +0.000 OA
ATOM     43  H   UNL     1     -39.489 -76.176  59.952  0.00  0.00    +0.000 HD
ENDBRANCH  18  42
TORSDOF 12
ENDMDL
MODEL 6
REMARK VINA RESULT:      -6.1     18.838     24.795
REMARK  Name = Fulvestrant.pdbqt.pdb
REMARK  12 active torsions:
REMARK  status: ('A' for Active; 'I' for Inactive)
REMARK    1  A    between atoms: C_6  and  O_40
REMARK    2  A    between atoms: C_8  and  C_19
REMARK    3  A    between atoms: C_18  and  O_42
REMARK    4  A    between atoms: C_20  and  C_21
REMARK    5  A    between atoms: C_22  and  C_23
REMARK    6  A    between atoms: C_23  and  C_24
REMARK    7  A    between atoms: C_25  and  C_26
REMARK    8  A    between atoms: C_27  and  S_28
REMARK    9  A    between atoms: S_28  and  C_30
REMARK   10  A    between atoms: C_30  and  C_31
REMARK   11  A    between atoms: C_32  and  C_33
REMARK   12  A    between atoms: C_33  and  C_36
REMARK                            x       y       z     vdW  Elec       q    Type
REMARK                         _______ _______ _______ _____ _____    ______ ____
ROOT
ATOM      1  C   UNL     1     -42.512 -75.465  63.111  0.00  0.00    +0.000 C 
ATOM      2  C   UNL     1     -42.533 -75.500  64.715  0.00  0.00    +0.000 C 
ATOM      3  C   UNL     1     -43.478 -76.220  62.250  0.00  0.00    +0.000 A 
ATOM      4  C   UNL     1     -44.809 -76.758  62.816  0.00  0.00    +0.000 A 
ATOM      5  C   UNL     1     -43.874 -75.940  65.085  0.00  0.00    +0.000 C 
ATOM      6  C   UNL     1     -42.241 -74.031  65.095  0.00  0.00    +0.000 C 
ATOM      7  C   UNL     1     -42.114 -74.141  62.735  0.00  0.00    +0.000 C 
ATOM      8  C   UNL     1     -43.216 -76.473  60.808  0.00  0.00    +0.000 A 
ATOM      9  C   UNL     1     -44.938 -76.538  64.208  0.00  0.00    +0.000 C 
ATOM     10  C   UNL     1     -41.969 -73.250  63.941  0.00  0.00    +0.000 C 
ATOM     11  C   UNL     1     -41.395 -76.430  65.207  0.00  0.00    +0.000 C 
ATOM     12  C   UNL     1     -45.822 -77.478  61.993  0.00  0.00    +0.000 A 
ATOM     13  C   UNL     1     -44.298 -77.159  60.206  0.00  0.00    +0.000 A 
ATOM     14  C   UNL     1     -45.548 -77.685  60.620  0.00  0.00    +0.000 A 
ATOM     15  C   UNL     1     -47.021 -77.957  62.516  0.00  0.00    +0.000 A 
ATOM     16  C   UNL     1     -46.432 -78.346  59.782  0.00  0.00    +0.000 A 
ATOM     17  C   UNL     1     -47.921 -78.625  61.684  0.00  0.00    +0.000 A 
ATOM     18  C   UNL     1     -47.621 -78.813  60.334  0.00  0.00    +0.000 A 
ENDROOT
BRANCH   8  19
ATOM     19  C   UNL     1     -41.971 -76.225  60.182  0.00  0.00    +0.000 C 
ATOM     20  C   UNL     1     -40.633 -75.940  59.494  0.00  0.00    +0.000 C 
BRANCH  20  21
ATOM     21  C   UNL     1     -39.307 -75.633  58.791  0.00  0.00    +0.000 C 
ATOM     22  C   UNL     1     -37.996 -75.326  58.060  0.00  0.00    +0.000 C 
BRANCH  22  23
ATOM     23  C   UNL     1     -36.702 -75.023  57.299  0.00  0.00    +0.000 C 
BRANCH  23  24
ATOM     24  C   UNL     1     -35.412 -74.684  56.546  0.00  0.00    +0.000 C 
ATOM     25  C   UNL     1     -34.136 -74.315  55.782  0.00  0.00    +0.000 C 
BRANCH  25  26
ATOM     26  C   UNL     1     -32.876 -73.917  55.006  0.00  0.00    +0.000 C 
ATOM     27  C   UNL     1     -31.601 -73.509  54.263  0.00  0.00    +0.000 C 
BRANCH  27  28
ATOM     28  S   UNL     1     -30.121 -73.029  53.439  0.00  0.00    +0.000 S 
ATOM     29  O   UNL     1     -30.740 -73.232  52.087  0.00  0.00    +0.000 OA
BRANCH  28  30
ATOM     30  C   UNL     1     -30.539 -71.318  53.442  0.00  0.00    +0.000 C 
BRANCH  30  31
ATOM     31  C   UNL     1     -30.919 -69.834  53.463  0.00  0.00    +0.000 C 
ATOM     32  C   UNL     1     -31.315 -68.353  53.475  0.00  0.00    +0.000 C 
BRANCH  32  33
ATOM     33  C   UNL     1     -31.702 -66.940  53.481  0.00  0.00    +0.000 C 
ATOM     34  F   UNL     1     -30.565 -66.194  53.576  0.00  0.00    +0.000 F 
ATOM     35  F   UNL     1     -32.400 -66.704  54.627  0.00  0.00    +0.000 F 
BRANCH  33  36
ATOM     36  C   UNL     1     -32.520 -66.530  52.252  0.00  0.00    +0.000 C 
ATOM     37  F   UNL     1     -33.774 -67.051  52.279  0.00  0.00    +0.000 F 
ATOM     38  F   UNL     1     -31.946 -66.942  51.095  0.00  0.00    +0.000 F 
ATOM     39  F   UNL     1     -32.658 -65.182  52.165  0.00  0.00    +0.000 F 
ENDBRANCH  33  36
ENDBRANCH  32  33
ENDBRANCH  30  31
ENDBRANCH  28  30
ENDBRANCH  27  28
ENDBRANCH  25  26
ENDBRANCH  23  24
ENDBRANCH  22  23
ENDBRANCH  20  21
ENDBRANCH   8  19
BRANCH   6  40
ATOM     40  O   UNL     1     -42.665 -73.469  66.281  0.00  0.00    +0.000 OA
ATOM     41  H   UNL     1     -43.477 -72.945  66.163  0.00  0.00    +0.000 HD
ENDBRANCH   6  40
BRANCH  18  42
ATOM     42  O   UNL     1     -48.532 -79.473  59.559  0.00  0.00    +0.000 OA
ATOM     43  H   UNL     1     -49.044 -80.072  60.130  0.00  0.00    +0.000 HD
ENDBRANCH  18  42
TORSDOF 12
ENDMDL
MODEL 7
REMARK VINA RESULT:      -6.1     12.911     17.027
REMARK  Name = Fulvestrant.pdbqt.pdb
REMARK  12 active torsions:
REMARK  status: ('A' for Active; 'I' for Inactive)
REMARK    1  A    between atoms: C_6  and  O_40
REMARK    2  A    between atoms: C_8  and  C_19
REMARK    3  A    between atoms: C_18  and  O_42
REMARK    4  A    between atoms: C_20  and  C_21
REMARK    5  A    between atoms: C_22  and  C_23
REMARK    6  A    between atoms: C_23  and  C_24
REMARK    7  A    between atoms: C_25  and  C_26
REMARK    8  A    between atoms: C_27  and  S_28
REMARK    9  A    between atoms: S_28  and  C_30
REMARK   10  A    between atoms: C_30  and  C_31
REMARK   11  A    between atoms: C_32  and  C_33
REMARK   12  A    between atoms: C_33  and  C_36
REMARK                            x       y       z     vdW  Elec       q    Type
REMARK                         _______ _______ _______ _____ _____    ______ ____
ROOT
ATOM      1  C   UNL     1     -43.522 -66.511  22.320  0.00  0.00    +0.000 C 
ATOM      2  C   UNL     1     -43.198 -65.669  20.993  0.00  0.00    +0.000 C 
ATOM      3  C   UNL     1     -44.035 -67.919  22.307  0.00  0.00    +0.000 A 
ATOM      4  C   UNL     1     -43.909 -68.810  21.053  0.00  0.00    +0.000 A 
ATOM      5  C   UNL     1     -43.022 -66.654  19.931  0.00  0.00    +0.000 C 
ATOM      6  C   UNL     1     -41.896 -64.926  21.366  0.00  0.00    +0.000 C 
ATOM      7  C   UNL     1     -42.553 -66.120  23.300  0.00  0.00    +0.000 C 
ATOM      8  C   UNL     1     -44.674 -68.535  23.500  0.00  0.00    +0.000 A 
ATOM      9  C   UNL     1     -43.360 -68.118  19.947  0.00  0.00    +0.000 C 
ATOM     10  C   UNL     1     -41.540 -65.169  22.720  0.00  0.00    +0.000 C 
ATOM     11  C   UNL     1     -44.352 -64.663  20.749  0.00  0.00    +0.000 C 
ATOM     12  C   UNL     1     -44.365 -70.227  21.001  0.00  0.00    +0.000 A 
ATOM     13  C   UNL     1     -45.026 -69.883  23.252  0.00  0.00    +0.000 A 
ATOM     14  C   UNL     1     -44.950 -70.787  22.161  0.00  0.00    +0.000 A 
ATOM     15  C   UNL     1     -44.243 -71.021  19.863  0.00  0.00    +0.000 A 
ATOM     16  C   UNL     1     -45.405 -72.096  22.202  0.00  0.00    +0.000 A 
ATOM     17  C   UNL     1     -44.695 -72.342  19.889  0.00  0.00    +0.000 A 
ATOM     18  C   UNL     1     -45.269 -72.864  21.049  0.00  0.00    +0.000 A 
ENDROOT
BRANCH   8  19
ATOM     19  C   UNL     1     -45.044 -67.806  24.656  0.00  0.00    +0.000 C 
ATOM     20  C   UNL     1     -45.451 -67.000  25.894  0.00  0.00    +0.000 C 
BRANCH  20  21
ATOM     21  C   UNL     1     -45.863 -66.172  27.114  0.00  0.00    +0.000 C 
ATOM     22  C   UNL     1     -46.272 -65.370  28.353  0.00  0.00    +0.000 C 
BRANCH  22  23
ATOM     23  C   UNL     1     -46.680 -64.596  29.610  0.00  0.00    +0.000 C 
BRANCH  23  24
ATOM     24  C   UNL     1     -47.055 -63.826  30.881  0.00  0.00    +0.000 C 
ATOM     25  C   UNL     1     -47.397 -63.045  32.153  0.00  0.00    +0.000 C 
BRANCH  25  26
ATOM     26  C   UNL     1     -47.705 -62.254  33.429  0.00  0.00    +0.000 C 
ATOM     27  C   UNL     1     -47.977 -61.470  34.717  0.00  0.00    +0.000 C 
BRANCH  27  28
ATOM     28  S   UNL     1     -48.260 -60.579  36.208  0.00  0.00    +0.000 S 
ATOM     29  O   UNL     1     -47.470 -61.567  37.015  0.00  0.00    +0.000 OA
BRANCH  28  30
ATOM     30  C   UNL     1     -46.855 -59.541  35.988  0.00  0.00    +0.000 C 
BRANCH  30  31
ATOM     31  C   UNL     1     -45.638 -58.634  35.774  0.00  0.00    +0.000 C 
ATOM     32  C   UNL     1     -44.432 -57.716  35.547  0.00  0.00    +0.000 C 
BRANCH  32  33
ATOM     33  C   UNL     1     -43.283 -56.834  35.324  0.00  0.00    +0.000 C 
ATOM     34  F   UNL     1     -42.949 -56.906  34.004  0.00  0.00    +0.000 F 
ATOM     35  F   UNL     1     -42.223 -57.350  36.006  0.00  0.00    +0.000 F 
BRANCH  33  36
ATOM     36  C   UNL     1     -43.543 -55.383  35.741  0.00  0.00    +0.000 C 
ATOM     37  F   UNL     1     -44.450 -54.776  34.933  0.00  0.00    +0.000 F 
ATOM     38  F   UNL     1     -42.416 -54.629  35.704  0.00  0.00    +0.000 F 
ATOM     39  F   UNL     1     -44.029 -55.301  37.006  0.00  0.00    +0.000 F 
ENDBRANCH  33  36
ENDBRANCH  32  33
ENDBRANCH  30  31
ENDBRANCH  28  30
ENDBRANCH  27  28
ENDBRANCH  25  26
ENDBRANCH  23  24
ENDBRANCH  22  23
ENDBRANCH  20  21
ENDBRANCH   8  19
BRANCH   6  40
ATOM     40  O   UNL     1     -40.974 -64.518  20.424  0.00  0.00    +0.000 OA
ATOM     41  H   UNL     1     -40.289 -63.946  20.814  0.00  0.00    +0.000 HD
ENDBRANCH   6  40
BRANCH  18  42
ATOM     42  O   UNL     1     -45.698 -74.160  21.026  0.00  0.00    +0.000 OA
ATOM     43  H   UNL     1     -46.644 -74.175  21.254  0.00  0.00    +0.000 HD
ENDBRANCH  18  42
TORSDOF 12
ENDMDL
MODEL 8
REMARK VINA RESULT:      -6.1     10.758     12.856
REMARK  Name = Fulvestrant.pdbqt.pdb
REMARK  12 active torsions:
REMARK  status: ('A' for Active; 'I' for Inactive)
REMARK    1  A    between atoms: C_6  and  O_40
REMARK    2  A    between atoms: C_8  and  C_19
REMARK    3  A    between atoms: C_18  and  O_42
REMARK    4  A    between atoms: C_20  and  C_21
REMARK    5  A    between atoms: C_22  and  C_23
REMARK    6  A    between atoms: C_23  and  C_24
REMARK    7  A    between atoms: C_25  and  C_26
REMARK    8  A    between atoms: C_27  and  S_28
REMARK    9  A    between atoms: S_28  and  C_30
REMARK   10  A    between atoms: C_30  and  C_31
REMARK   11  A    between atoms: C_32  and  C_33
REMARK   12  A    between atoms: C_33  and  C_36
REMARK                            x       y       z     vdW  Elec       q    Type
REMARK                         _______ _______ _______ _____ _____    ______ ____
ROOT
ATOM      1  C   UNL     1     -43.669 -55.118  30.318  0.00  0.00    +0.000 C 
ATOM      2  C   UNL     1     -43.502 -54.848  28.745  0.00  0.00    +0.000 C 
ATOM      3  C   UNL     1     -44.122 -54.077  31.297  0.00  0.00    +0.000 A 
ATOM      4  C   UNL     1     -44.848 -52.798  30.832  0.00  0.00    +0.000 A 
ATOM      5  C   UNL     1     -44.313 -53.671  28.456  0.00  0.00    +0.000 C 
ATOM      6  C   UNL     1     -44.054 -56.145  28.113  0.00  0.00    +0.000 C 
ATOM      7  C   UNL     1     -44.131 -56.467  30.456  0.00  0.00    +0.000 C 
ATOM      8  C   UNL     1     -43.911 -54.230  32.761  0.00  0.00    +0.000 A 
ATOM      9  C   UNL     1     -44.936 -52.703  29.423  0.00  0.00    +0.000 C 
ATOM     10  C   UNL     1     -44.392 -57.096  29.113  0.00  0.00    +0.000 C 
ATOM     11  C   UNL     1     -41.994 -54.682  28.427  0.00  0.00    +0.000 C 
ATOM     12  C   UNL     1     -45.355 -51.753  31.766  0.00  0.00    +0.000 A 
ATOM     13  C   UNL     1     -44.471 -53.141  33.473  0.00  0.00    +0.000 A 
ATOM     14  C   UNL     1     -45.155 -51.941  33.155  0.00  0.00    +0.000 A 
ATOM     15  C   UNL     1     -46.012 -50.604  31.334  0.00  0.00    +0.000 A 
ATOM     16  C   UNL     1     -45.590 -51.020  34.095  0.00  0.00    +0.000 A 
ATOM     17  C   UNL     1     -46.457 -49.667  32.269  0.00  0.00    +0.000 A 
ATOM     18  C   UNL     1     -46.242 -49.882  33.631  0.00  0.00    +0.000 A 
ENDROOT
BRANCH   8  19
ATOM     19  C   UNL     1     -43.097 -55.234  33.336  0.00  0.00    +0.000 C 
ATOM     20  C   UNL     1     -42.198 -56.309  33.956  0.00  0.00    +0.000 C 
BRANCH  20  21
ATOM     21  C   UNL     1     -41.275 -57.366  34.569  0.00  0.00    +0.000 C 
ATOM     22  C   UNL     1     -40.377 -58.434  35.201  0.00  0.00    +0.000 C 
BRANCH  22  23
ATOM     23  C   UNL     1     -39.504 -59.509  35.855  0.00  0.00    +0.000 C 
BRANCH  23  24
ATOM     24  C   UNL     1     -38.647 -60.578  36.541  0.00  0.00    +0.000 C 
ATOM     25  C   UNL     1     -37.761 -61.627  37.221  0.00  0.00    +0.000 C 
BRANCH  25  26
ATOM     26  C   UNL     1     -36.847 -62.657  37.892  0.00  0.00    +0.000 C 
ATOM     27  C   UNL     1     -35.904 -63.674  38.543  0.00  0.00    +0.000 C 
BRANCH  27  28
ATOM     28  S   UNL     1     -34.795 -64.831  39.270  0.00  0.00    +0.000 S 
ATOM     29  O   UNL     1     -33.597 -64.117  38.717  0.00  0.00    +0.000 OA
BRANCH  28  30
ATOM     30  C   UNL     1     -34.695 -63.952  40.792  0.00  0.00    +0.000 C 
BRANCH  30  31
ATOM     31  C   UNL     1     -34.608 -63.166  42.105  0.00  0.00    +0.000 C 
ATOM     32  C   UNL     1     -34.510 -62.394  43.426  0.00  0.00    +0.000 C 
BRANCH  32  33
ATOM     33  C   UNL     1     -34.413 -61.664  44.692  0.00  0.00    +0.000 C 
ATOM     34  F   UNL     1     -34.773 -60.370  44.459  0.00  0.00    +0.000 F 
ATOM     35  F   UNL     1     -33.099 -61.626  45.051  0.00  0.00    +0.000 F 
BRANCH  33  36
ATOM     36  C   UNL     1     -35.265 -62.273  45.810  0.00  0.00    +0.000 C 
ATOM     37  F   UNL     1     -36.576 -62.350  45.467  0.00  0.00    +0.000 F 
ATOM     38  F   UNL     1     -35.199 -61.550  46.956  0.00  0.00    +0.000 F 
ATOM     39  F   UNL     1     -34.866 -63.534  46.118  0.00  0.00    +0.000 F 
ENDBRANCH  33  36
ENDBRANCH  32  33
ENDBRANCH  30  31
ENDBRANCH  28  30
ENDBRANCH  27  28
ENDBRANCH  25  26
ENDBRANCH  23  24
ENDBRANCH  22  23
ENDBRANCH  20  21
ENDBRANCH   8  19
BRANCH   6  40
ATOM     40  O   UNL     1     -44.597 -56.185  26.846  0.00  0.00    +0.000 OA
ATOM     41  H   UNL     1     -45.341 -55.563  26.752  0.00  0.00    +0.000 HD
ENDBRANCH   6  40
BRANCH  18  42
ATOM     42  O   UNL     1     -46.695 -48.937  34.508  0.00  0.00    +0.000 OA
ATOM     43  H   UNL     1     -47.349 -49.353  35.098  0.00  0.00    +0.000 HD
ENDBRANCH  18  42
TORSDOF 12
ENDMDL
MODEL 9
REMARK VINA RESULT:      -6.0     14.114     18.890
REMARK  Name = Fulvestrant.pdbqt.pdb
REMARK  12 active torsions:
REMARK  status: ('A' for Active; 'I' for Inactive)
REMARK    1  A    between atoms: C_6  and  O_40
REMARK    2  A    between atoms: C_8  and  C_19
REMARK    3  A    between atoms: C_18  and  O_42
REMARK    4  A    between atoms: C_20  and  C_21
REMARK    5  A    between atoms: C_22  and  C_23
REMARK    6  A    between atoms: C_23  and  C_24
REMARK    7  A    between atoms: C_25  and  C_26
REMARK    8  A    between atoms: C_27  and  S_28
REMARK    9  A    between atoms: S_28  and  C_30
REMARK   10  A    between atoms: C_30  and  C_31
REMARK   11  A    between atoms: C_32  and  C_33
REMARK   12  A    between atoms: C_33  and  C_36
REMARK                            x       y       z     vdW  Elec       q    Type
REMARK                         _______ _______ _______ _____ _____    ______ ____
ROOT
ATOM      1  C   UNL     1     -42.871 -76.248  50.652  0.00  0.00    +0.000 C 
ATOM      2  C   UNL     1     -44.342 -76.378  50.025  0.00  0.00    +0.000 C 
ATOM      3  C   UNL     1     -42.568 -76.429  52.109  0.00  0.00    +0.000 A 
ATOM      4  C   UNL     1     -43.555 -77.149  53.052  0.00  0.00    +0.000 A 
ATOM      5  C   UNL     1     -45.117 -77.152  50.989  0.00  0.00    +0.000 C 
ATOM      6  C   UNL     1     -44.086 -77.128  48.699  0.00  0.00    +0.000 C 
ATOM      7  C   UNL     1     -41.960 -76.759  49.672  0.00  0.00    +0.000 C 
ATOM      8  C   UNL     1     -41.300 -75.944  52.715  0.00  0.00    +0.000 A 
ATOM      9  C   UNL     1     -44.762 -77.507  52.406  0.00  0.00    +0.000 C 
ATOM     10  C   UNL     1     -42.695 -77.322  48.483  0.00  0.00    +0.000 C 
ATOM     11  C   UNL     1     -44.895 -74.956  49.754  0.00  0.00    +0.000 C 
ATOM     12  C   UNL     1     -43.284 -77.391  54.497  0.00  0.00    +0.000 A 
ATOM     13  C   UNL     1     -41.230 -76.279  54.089  0.00  0.00    +0.000 A 
ATOM     14  C   UNL     1     -42.059 -76.933  55.036  0.00  0.00    +0.000 A 
ATOM     15  C   UNL     1     -44.182 -78.045  55.337  0.00  0.00    +0.000 A 
ATOM     16  C   UNL     1     -41.725 -77.112  56.369  0.00  0.00    +0.000 A 
ATOM     17  C   UNL     1     -43.860 -78.234  56.682  0.00  0.00    +0.000 A 
ATOM     18  C   UNL     1     -42.643 -77.769  57.183  0.00  0.00    +0.000 A 
ENDROOT
BRANCH   8  19
ATOM     19  C   UNL     1     -40.383 -75.098  52.046  0.00  0.00    +0.000 C 
ATOM     20  C   UNL     1     -39.393 -74.168  51.337  0.00  0.00    +0.000 C 
BRANCH  20  21
ATOM     21  C   UNL     1     -38.408 -73.219  50.650  0.00  0.00    +0.000 C 
ATOM     22  C   UNL     1     -37.410 -72.294  49.945  0.00  0.00    +0.000 C 
BRANCH  22  23
ATOM     23  C   UNL     1     -36.399 -71.397  49.225  0.00  0.00    +0.000 C 
BRANCH  23  24
ATOM     24  C   UNL     1     -35.380 -70.526  48.482  0.00  0.00    +0.000 C 
ATOM     25  C   UNL     1     -34.380 -69.662  47.709  0.00  0.00    +0.000 C 
BRANCH  25  26
ATOM     26  C   UNL     1     -33.395 -68.807  46.905  0.00  0.00    +0.000 C 
ATOM     27  C   UNL     1     -32.427 -67.964  46.070  0.00  0.00    +0.000 C 
BRANCH  27  28
ATOM     28  S   UNL     1     -31.327 -67.009  45.081  0.00  0.00    +0.000 S 
ATOM     29  O   UNL     1     -32.037 -67.395  43.817  0.00  0.00    +0.000 OA
BRANCH  28  30
ATOM     30  C   UNL     1     -32.280 -65.536  45.241  0.00  0.00    +0.000 C 
BRANCH  30  31
ATOM     31  C   UNL     1     -33.111 -64.259  45.404  0.00  0.00    +0.000 C 
ATOM     32  C   UNL     1     -33.936 -62.976  45.550  0.00  0.00    +0.000 C 
BRANCH  32  33
ATOM     33  C   UNL     1     -34.721 -61.745  45.682  0.00  0.00    +0.000 C 
ATOM     34  F   UNL     1     -34.947 -61.532  47.009  0.00  0.00    +0.000 F 
ATOM     35  F   UNL     1     -35.944 -61.970  45.126  0.00  0.00    +0.000 F 
BRANCH  33  36
ATOM     36  C   UNL     1     -34.049 -60.526  45.042  0.00  0.00    +0.000 C 
ATOM     37  F   UNL     1     -32.814 -60.821  44.560  0.00  0.00    +0.000 F 
ATOM     38  F   UNL     1     -33.895 -59.505  45.921  0.00  0.00    +0.000 F 
ATOM     39  F   UNL     1     -34.772 -60.041  44.000  0.00  0.00    +0.000 F 
ENDBRANCH  33  36
ENDBRANCH  32  33
ENDBRANCH  30  31
ENDBRANCH  28  30
ENDBRANCH  27  28
ENDBRANCH  25  26
ENDBRANCH  23  24
ENDBRANCH  22  23
ENDBRANCH  20  21
ENDBRANCH   8  19
BRANCH   6  40
ATOM     40  O   UNL     1     -45.042 -77.913  48.089  0.00  0.00    +0.000 OA
ATOM     41  H   UNL     1     -45.056 -78.815  48.454  0.00  0.00    +0.000 HD
ENDBRANCH   6  40
BRANCH  18  42
ATOM     42  O   UNL     1     -42.372 -77.976  58.506  0.00  0.00    +0.000 OA
ATOM     43  H   UNL     1     -42.264 -78.932  58.651  0.00  0.00    +0.000 HD
ENDBRANCH  18  42
TORSDOF 12
ENDMDL
