MODEL 1
REMARK VINA RESULT:      -5.8      0.000      0.000
REMARK  Name = Gefitinib.pdbqt.pdb
REMARK  6 active torsions:
REMARK  status: ('A' for Active; 'I' for Inactive)
REMARK    1  A    between atoms: C_3  and  O_11
REMARK    2  A    between atoms: C_6  and  O_21
REMARK    3  A    between atoms: O_11  and  C_12
REMARK    4  A    between atoms: C_13  and  C_14
REMARK    5  A    between atoms: C_14  and  N_15
REMARK    6  A    between atoms: N_23  and  C_25
REMARK                            x       y       z     vdW  Elec       q    Type
REMARK                         _______ _______ _______ _____ _____    ______ ____
ROOT
ATOM      1  N   UNL     1     -60.200 -73.637  40.152  0.00  0.00    +0.000 NA
ATOM      2  N   UNL     1     -62.407 -72.848  40.584  0.00  0.00    +0.000 NA
ATOM      3  C   UNL     1     -58.591 -69.929  41.136  0.00  0.00    +0.000 A 
ATOM      4  C   UNL     1     -60.539 -71.385  40.884  0.00  0.00    +0.000 A 
ATOM      5  C   UNL     1     -59.969 -70.141  41.205  0.00  0.00    +0.000 A 
ATOM      6  C   UNL     1     -57.766 -70.983  40.744  0.00  0.00    +0.000 A 
ATOM      7  C   UNL     1     -59.715 -72.439  40.480  0.00  0.00    +0.000 A 
ATOM      8  C   UNL     1     -58.346 -72.215  40.422  0.00  0.00    +0.000 A 
ATOM      9  C   UNL     1     -61.915 -71.649  40.931  0.00  0.00    +0.000 A 
ATOM     10  C   UNL     1     -61.529 -73.788  40.213  0.00  0.00    +0.000 A 
ATOM     11  N   UNL     1     -62.801 -70.609  41.312  0.00  0.00    +0.000 N 
ATOM     12  H   UNL     1     -62.466 -70.128  42.141  0.00  0.00    +0.000 HD
ENDROOT
BRANCH  11  13
ATOM     13  C   UNL     1     -64.211 -70.598  41.232  0.00  0.00    +0.000 A 
ATOM     14  C   UNL     1     -64.957 -70.858  42.388  0.00  0.00    +0.000 A 
ATOM     15  C   UNL     1     -66.346 -70.756  42.381  0.00  0.00    +0.000 A 
ATOM     16 CL   UNL     1     -67.210 -71.119  43.821  0.00  0.00    +0.000 Cl
ATOM     17  C   UNL     1     -67.006 -70.364  41.222  0.00  0.00    +0.000 A 
ATOM     18  F   UNL     1     -68.343 -70.260  41.196  0.00  0.00    +0.000 F 
ATOM     19  C   UNL     1     -66.287 -70.063  40.073  0.00  0.00    +0.000 A 
ATOM     20  C   UNL     1     -64.897 -70.165  40.091  0.00  0.00    +0.000 A 
ENDBRANCH  11  13
BRANCH   6  21
ATOM     21  O   UNL     1     -56.415 -70.731  40.688  0.00  0.00    +0.000 OA
ATOM     22  C   UNL     1     -55.852 -70.719  39.406  0.00  0.00    +0.000 C 
ENDBRANCH   6  21
BRANCH   3  23
ATOM     23  O   UNL     1     -57.997 -68.728  41.442  0.00  0.00    +0.000 OA
BRANCH  23  24
ATOM     24  C   UNL     1     -58.669 -67.655  41.033  0.00  0.00    +0.000 C 
ATOM     25  C   UNL     1     -59.458 -66.426  40.567  0.00  0.00    +0.000 C 
BRANCH  25  26
ATOM     26  C   UNL     1     -60.277 -65.212  40.116  0.00  0.00    +0.000 C 
BRANCH  26  27
ATOM     27  N   UNL     1     -61.044 -64.049  39.692  0.00  0.00    +0.000 N 
ATOM     28  C   UNL     1     -62.246 -64.569  38.971  0.00  0.00    +0.000 C 
ATOM     29  C   UNL     1     -63.743 -64.548  39.421  0.00  0.00    +0.000 C 
ATOM     30  O   UNL     1     -64.400 -64.102  40.514  0.00  0.00    +0.000 OA
ATOM     31  C   UNL     1     -63.317 -63.633  41.164  0.00  0.00    +0.000 C 
ATOM     32  C   UNL     1     -61.783 -63.561  40.894  0.00  0.00    +0.000 C 
ENDBRANCH  26  27
ENDBRANCH  25  26
ENDBRANCH  23  24
ENDBRANCH   3  23
TORSDOF 6
ENDMDL
MODEL 2
REMARK VINA RESULT:      -5.6     36.652     39.884
REMARK  Name = Gefitinib.pdbqt.pdb
REMARK  6 active torsions:
REMARK  status: ('A' for Active; 'I' for Inactive)
REMARK    1  A    between atoms: C_3  and  O_11
REMARK    2  A    between atoms: C_6  and  O_21
REMARK    3  A    between atoms: O_11  and  C_12
REMARK    4  A    between atoms: C_13  and  C_14
REMARK    5  A    between atoms: C_14  and  N_15
REMARK    6  A    between atoms: N_23  and  C_25
REMARK                            x       y       z     vdW  Elec       q    Type
REMARK                         _______ _______ _______ _____ _____    ______ ____
ROOT
ATOM      1  N   UNL     1     -31.144 -42.290  54.174  0.00  0.00    +0.000 NA
ATOM      2  N   UNL     1     -33.088 -42.861  52.921  0.00  0.00    +0.000 NA
ATOM      3  C   UNL     1     -29.438 -46.000  53.380  0.00  0.00    +0.000 A 
ATOM      4  C   UNL     1     -31.292 -44.429  53.114  0.00  0.00    +0.000 A 
ATOM      5  C   UNL     1     -30.694 -45.677  52.867  0.00  0.00    +0.000 A 
ATOM      6  C   UNL     1     -28.762 -45.056  54.153  0.00  0.00    +0.000 A 
ATOM      7  C   UNL     1     -30.622 -43.485  53.896  0.00  0.00    +0.000 A 
ATOM      8  C   UNL     1     -29.369 -43.818  54.396  0.00  0.00    +0.000 A 
ATOM      9  C   UNL     1     -32.553 -44.057  52.628  0.00  0.00    +0.000 A 
ATOM     10  C   UNL     1     -32.360 -42.032  53.678  0.00  0.00    +0.000 A 
ATOM     11  N   UNL     1     -33.289 -44.984  51.847  0.00  0.00    +0.000 N 
ATOM     12  H   UNL     1     -32.703 -45.408  51.134  0.00  0.00    +0.000 HD
ENDROOT
BRANCH  11  13
ATOM     13  C   UNL     1     -34.637 -44.893  51.435  0.00  0.00    +0.000 A 
ATOM     14  C   UNL     1     -34.921 -44.456  50.136  0.00  0.00    +0.000 A 
ATOM     15  C   UNL     1     -36.226 -44.449  49.651  0.00  0.00    +0.000 A 
ATOM     16 CL   UNL     1     -36.516 -43.870  48.060  0.00  0.00    +0.000 Cl
ATOM     17  C   UNL     1     -37.264 -44.910  50.453  0.00  0.00    +0.000 A 
ATOM     18  F   UNL     1     -38.528 -44.911  50.004  0.00  0.00    +0.000 F 
ATOM     19  C   UNL     1     -37.005 -45.385  51.732  0.00  0.00    +0.000 A 
ATOM     20  C   UNL     1     -35.695 -45.389  52.206  0.00  0.00    +0.000 A 
ENDBRANCH  11  13
BRANCH   6  21
ATOM     21  O   UNL     1     -27.527 -45.415  54.640  0.00  0.00    +0.000 OA
ATOM     22  C   UNL     1     -26.986 -44.563  55.610  0.00  0.00    +0.000 C 
ENDBRANCH   6  21
BRANCH   3  23
ATOM     23  O   UNL     1     -28.821 -47.208  53.160  0.00  0.00    +0.000 OA
BRANCH  23  24
ATOM     24  C   UNL     1     -29.612 -48.270  53.303  0.00  0.00    +0.000 C 
ATOM     25  C   UNL     1     -30.526 -49.491  53.451  0.00  0.00    +0.000 C 
BRANCH  25  26
ATOM     26  C   UNL     1     -31.448 -50.710  53.564  0.00  0.00    +0.000 C 
BRANCH  26  27
ATOM     27  N   UNL     1     -32.323 -51.870  53.657  0.00  0.00    +0.000 N 
ATOM     28  C   UNL     1     -31.440 -53.056  53.876  0.00  0.00    +0.000 C 
ATOM     29  C   UNL     1     -31.270 -53.927  55.162  0.00  0.00    +0.000 C 
ATOM     30  O   UNL     1     -31.807 -53.905  56.402  0.00  0.00    +0.000 OA
ATOM     31  C   UNL     1     -32.604 -52.835  56.206  0.00  0.00    +0.000 C 
ATOM     32  C   UNL     1     -32.908 -51.857  55.031  0.00  0.00    +0.000 C 
ENDBRANCH  26  27
ENDBRANCH  25  26
ENDBRANCH  23  24
ENDBRANCH   3  23
TORSDOF 6
ENDMDL
MODEL 3
REMARK VINA RESULT:      -5.3     17.910     19.488
REMARK  Name = Gefitinib.pdbqt.pdb
REMARK  6 active torsions:
REMARK  status: ('A' for Active; 'I' for Inactive)
REMARK    1  A    between atoms: C_3  and  O_11
REMARK    2  A    between atoms: C_6  and  O_21
REMARK    3  A    between atoms: O_11  and  C_12
REMARK    4  A    between atoms: C_13  and  C_14
REMARK    5  A    between atoms: C_14  and  N_15
REMARK    6  A    between atoms: N_23  and  C_25
REMARK                            x       y       z     vdW  Elec       q    Type
REMARK                         _______ _______ _______ _____ _____    ______ ____
ROOT
ATOM      1  N   UNL     1     -77.510 -62.077  36.317  0.00  0.00    +0.000 NA
ATOM      2  N   UNL     1     -77.542 -61.891  38.692  0.00  0.00    +0.000 NA
ATOM      3  C   UNL     1     -76.874 -57.985  35.919  0.00  0.00    +0.000 A 
ATOM      4  C   UNL     1     -77.191 -59.943  37.348  0.00  0.00    +0.000 A 
ATOM      5  C   UNL     1     -76.982 -58.563  37.185  0.00  0.00    +0.000 A 
ATOM      6  C   UNL     1     -76.972 -58.804  34.794  0.00  0.00    +0.000 A 
ATOM      7  C   UNL     1     -77.300 -60.764  36.223  0.00  0.00    +0.000 A 
ATOM      8  C   UNL     1     -77.185 -60.176  34.970  0.00  0.00    +0.000 A 
ATOM      9  C   UNL     1     -77.313 -60.571  38.595  0.00  0.00    +0.000 A 
ATOM     10  C   UNL     1     -77.628 -62.584  37.551  0.00  0.00    +0.000 A 
ATOM     11  N   UNL     1     -77.233 -59.784  39.773  0.00  0.00    +0.000 N 
ATOM     12  H   UNL     1     -76.446 -59.143  39.731  0.00  0.00    +0.000 HD
ENDROOT
BRANCH  11  13
ATOM     13  C   UNL     1     -77.526 -60.174  41.098  0.00  0.00    +0.000 A 
ATOM     14  C   UNL     1     -76.493 -60.673  41.901  0.00  0.00    +0.000 A 
ATOM     15  C   UNL     1     -76.711 -60.972  43.244  0.00  0.00    +0.000 A 
ATOM     16 CL   UNL     1     -75.413 -61.613  44.170  0.00  0.00    +0.000 Cl
ATOM     17  C   UNL     1     -77.961 -60.747  43.809  0.00  0.00    +0.000 A 
ATOM     18  F   UNL     1     -78.189 -61.028  45.100  0.00  0.00    +0.000 F 
ATOM     19  C   UNL     1     -78.991 -60.217  43.045  0.00  0.00    +0.000 A 
ATOM     20  C   UNL     1     -78.762 -59.918  41.703  0.00  0.00    +0.000 A 
ENDBRANCH  11  13
BRANCH   6  21
ATOM     21  O   UNL     1     -76.861 -58.195  33.566  0.00  0.00    +0.000 OA
ATOM     22  C   UNL     1     -76.193 -58.932  32.581  0.00  0.00    +0.000 C 
ENDBRANCH   6  21
BRANCH   3  23
ATOM     23  O   UNL     1     -76.670 -56.641  35.718  0.00  0.00    +0.000 OA
BRANCH  23  24
ATOM     24  C   UNL     1     -76.999 -55.868  36.750  0.00  0.00    +0.000 C 
ATOM     25  C   UNL     1     -77.372 -54.964  37.930  0.00  0.00    +0.000 C 
BRANCH  25  26
ATOM     26  C   UNL     1     -77.737 -54.032  39.091  0.00  0.00    +0.000 C 
BRANCH  26  27
ATOM     27  N   UNL     1     -78.092 -53.155  40.198  0.00  0.00    +0.000 N 
ATOM     28  C   UNL     1     -78.161 -54.016  41.418  0.00  0.00    +0.000 C 
ATOM     29  C   UNL     1     -77.194 -54.054  42.646  0.00  0.00    +0.000 C 
ATOM     30  O   UNL     1     -76.068 -53.390  42.989  0.00  0.00    +0.000 OA
ATOM     31  C   UNL     1     -76.005 -52.615  41.888  0.00  0.00    +0.000 C 
ATOM     32  C   UNL     1     -76.846 -52.431  40.589  0.00  0.00    +0.000 C 
ENDBRANCH  26  27
ENDBRANCH  25  26
ENDBRANCH  23  24
ENDBRANCH   3  23
TORSDOF 6
ENDMDL
MODEL 4
REMARK VINA RESULT:      -5.3     17.504     19.760
REMARK  Name = Gefitinib.pdbqt.pdb
REMARK  6 active torsions:
REMARK  status: ('A' for Active; 'I' for Inactive)
REMARK    1  A    between atoms: C_3  and  O_11
REMARK    2  A    between atoms: C_6  and  O_21
REMARK    3  A    between atoms: O_11  and  C_12
REMARK    4  A    between atoms: C_13  and  C_14
REMARK    5  A    between atoms: C_14  and  N_15
REMARK    6  A    between atoms: N_23  and  C_25
REMARK                            x       y       z     vdW  Elec       q    Type
REMARK                         _______ _______ _______ _____ _____    ______ ____
ROOT
ATOM      1  N   UNL     1     -46.607 -68.306  29.542  0.00  0.00    +0.000 NA
ATOM      2  N   UNL     1     -46.610 -66.093  28.658  0.00  0.00    +0.000 NA
ATOM      3  C   UNL     1     -44.920 -66.973  33.103  0.00  0.00    +0.000 A 
ATOM      4  C   UNL     1     -45.784 -66.493  30.868  0.00  0.00    +0.000 A 
ATOM      5  C   UNL     1     -45.208 -66.072  32.079  0.00  0.00    +0.000 A 
ATOM      6  C   UNL     1     -45.216 -68.324  32.917  0.00  0.00    +0.000 A 
ATOM      7  C   UNL     1     -46.073 -67.846  30.674  0.00  0.00    +0.000 A 
ATOM      8  C   UNL     1     -45.785 -68.732  31.704  0.00  0.00    +0.000 A 
ATOM      9  C   UNL     1     -46.087 -65.631  29.806  0.00  0.00    +0.000 A 
ATOM     10  C   UNL     1     -46.848 -67.408  28.579  0.00  0.00    +0.000 A 
ATOM     11  N   UNL     1     -45.795 -64.249  29.937  0.00  0.00    +0.000 N 
ATOM     12  H   UNL     1     -46.110 -63.892  30.834  0.00  0.00    +0.000 HD
ENDROOT
BRANCH  11  13
ATOM     13  C   UNL     1     -45.831 -63.255  28.934  0.00  0.00    +0.000 A 
ATOM     14  C   UNL     1     -44.871 -63.287  27.915  0.00  0.00    +0.000 A 
ATOM     15  C   UNL     1     -44.929 -62.393  26.849  0.00  0.00    +0.000 A 
ATOM     16 CL   UNL     1     -43.704 -62.459  25.646  0.00  0.00    +0.000 Cl
ATOM     17  C   UNL     1     -45.967 -61.472  26.774  0.00  0.00    +0.000 A 
ATOM     18  F   UNL     1     -46.040 -60.603  25.755  0.00  0.00    +0.000 F 
ATOM     19  C   UNL     1     -46.953 -61.445  27.751  0.00  0.00    +0.000 A 
ATOM     20  C   UNL     1     -46.888 -62.346  28.812  0.00  0.00    +0.000 A 
ENDBRANCH  11  13
BRANCH   6  21
ATOM     21  O   UNL     1     -44.915 -69.178  33.951  0.00  0.00    +0.000 OA
ATOM     22  C   UNL     1     -46.006 -69.629  34.704  0.00  0.00    +0.000 C 
ENDBRANCH   6  21
BRANCH   3  23
ATOM     23  O   UNL     1     -44.357 -66.600  34.301  0.00  0.00    +0.000 OA
BRANCH  23  24
ATOM     24  C   UNL     1     -44.972 -65.590  34.912  0.00  0.00    +0.000 C 
ATOM     25  C   UNL     1     -45.667 -64.428  35.630  0.00  0.00    +0.000 C 
BRANCH  25  26
ATOM     26  C   UNL     1     -46.336 -63.266  36.372  0.00  0.00    +0.000 C 
BRANCH  26  27
ATOM     27  N   UNL     1     -46.984 -62.170  37.079  0.00  0.00    +0.000 N 
ATOM     28  C   UNL     1     -46.344 -60.910  36.592  0.00  0.00    +0.000 C 
ATOM     29  C   UNL     1     -46.951 -59.789  35.687  0.00  0.00    +0.000 C 
ATOM     30  O   UNL     1     -48.146 -59.597  35.086  0.00  0.00    +0.000 OA
ATOM     31  C   UNL     1     -48.723 -60.733  35.524  0.00  0.00    +0.000 C 
ATOM     32  C   UNL     1     -48.300 -61.945  36.408  0.00  0.00    +0.000 C 
ENDBRANCH  26  27
ENDBRANCH  25  26
ENDBRANCH  23  24
ENDBRANCH   3  23
TORSDOF 6
ENDMDL
MODEL 5
REMARK VINA RESULT:      -5.1     18.151     20.633
REMARK  Name = Gefitinib.pdbqt.pdb
REMARK  6 active torsions:
REMARK  status: ('A' for Active; 'I' for Inactive)
REMARK    1  A    between atoms: C_3  and  O_11
REMARK    2  A    between atoms: C_6  and  O_21
REMARK    3  A    between atoms: O_11  and  C_12
REMARK    4  A    between atoms: C_13  and  C_14
REMARK    5  A    between atoms: C_14  and  N_15
REMARK    6  A    between atoms: N_23  and  C_25
REMARK                            x       y       z     vdW  Elec       q    Type
REMARK                         _______ _______ _______ _____ _____    ______ ____
ROOT
ATOM      1  N   UNL     1     -43.245 -69.266  30.149  0.00  0.00    +0.000 NA
ATOM      2  N   UNL     1     -43.663 -68.601  27.900  0.00  0.00    +0.000 NA
ATOM      3  C   UNL     1     -46.822 -67.557  31.411  0.00  0.00    +0.000 A 
ATOM      4  C   UNL     1     -45.254 -68.086  29.611  0.00  0.00    +0.000 A 
ATOM      5  C   UNL     1     -46.454 -67.511  30.065  0.00  0.00    +0.000 A 
ATOM      6  C   UNL     1     -45.977 -68.194  32.320  0.00  0.00    +0.000 A 
ATOM      7  C   UNL     1     -44.401 -68.715  30.521  0.00  0.00    +0.000 A 
ATOM      8  C   UNL     1     -44.783 -68.758  31.855  0.00  0.00    +0.000 A 
ATOM      9  C   UNL     1     -44.835 -68.062  28.274  0.00  0.00    +0.000 A 
ATOM     10  C   UNL     1     -42.923 -69.180  28.852  0.00  0.00    +0.000 A 
ATOM     11  N   UNL     1     -45.651 -67.416  27.309  0.00  0.00    +0.000 N 
ATOM     12  H   UNL     1     -46.623 -67.690  27.410  0.00  0.00    +0.000 HD
ENDROOT
BRANCH  11  13
ATOM     13  C   UNL     1     -45.328 -67.104  25.969  0.00  0.00    +0.000 A 
ATOM     14  C   UNL     1     -45.249 -68.142  25.033  0.00  0.00    +0.000 A 
ATOM     15  C   UNL     1     -45.037 -67.873  23.683  0.00  0.00    +0.000 A 
ATOM     16 CL   UNL     1     -44.916 -69.189  22.586  0.00  0.00    +0.000 Cl
ATOM     17  C   UNL     1     -44.931 -66.557  23.248  0.00  0.00    +0.000 A 
ATOM     18  F   UNL     1     -44.727 -66.278  21.952  0.00  0.00    +0.000 F 
ATOM     19  C   UNL     1     -45.045 -65.508  24.151  0.00  0.00    +0.000 A 
ATOM     20  C   UNL     1     -45.260 -65.788  25.498  0.00  0.00    +0.000 A 
ENDBRANCH  11  13
BRANCH   6  21
ATOM     21  O   UNL     1     -46.377 -68.216  33.635  0.00  0.00    +0.000 OA
ATOM     22  C   UNL     1     -45.351 -68.123  34.583  0.00  0.00    +0.000 C 
ENDBRANCH   6  21
BRANCH   3  23
ATOM     23  O   UNL     1     -47.985 -67.008  31.893  0.00  0.00    +0.000 OA
BRANCH  23  24
ATOM     24  C   UNL     1     -47.903 -65.716  32.204  0.00  0.00    +0.000 C 
ATOM     25  C   UNL     1     -47.806 -64.234  32.580  0.00  0.00    +0.000 C 
BRANCH  25  26
ATOM     26  C   UNL     1     -47.701 -62.760  32.988  0.00  0.00    +0.000 C 
BRANCH  26  27
ATOM     27  N   UNL     1     -47.598 -61.364  33.390  0.00  0.00    +0.000 N 
ATOM     28  C   UNL     1     -48.181 -61.271  34.763  0.00  0.00    +0.000 C 
ATOM     29  C   UNL     1     -47.452 -61.012  36.122  0.00  0.00    +0.000 C 
ATOM     30  O   UNL     1     -46.167 -60.811  36.487  0.00  0.00    +0.000 OA
ATOM     31  C   UNL     1     -45.640 -60.896  35.249  0.00  0.00    +0.000 C 
ATOM     32  C   UNL     1     -46.181 -61.141  33.808  0.00  0.00    +0.000 C 
ENDBRANCH  26  27
ENDBRANCH  25  26
ENDBRANCH  23  24
ENDBRANCH   3  23
TORSDOF 6
ENDMDL
MODEL 6
REMARK VINA RESULT:      -5.1     28.927     31.327
REMARK  Name = Gefitinib.pdbqt.pdb
REMARK  6 active torsions:
REMARK  status: ('A' for Active; 'I' for Inactive)
REMARK    1  A    between atoms: C_3  and  O_11
REMARK    2  A    between atoms: C_6  and  O_21
REMARK    3  A    between atoms: O_11  and  C_12
REMARK    4  A    between atoms: C_13  and  C_14
REMARK    5  A    between atoms: C_14  and  N_15
REMARK    6  A    between atoms: N_23  and  C_25
REMARK                            x       y       z     vdW  Elec       q    Type
REMARK                         _______ _______ _______ _____ _____    ______ ____
ROOT
ATOM      1  N   UNL     1     -60.703 -51.835  13.409  0.00  0.00    +0.000 NA
ATOM      2  N   UNL     1     -62.478 -51.673  14.990  0.00  0.00    +0.000 NA
ATOM      3  C   UNL     1     -58.807 -48.526  15.070  0.00  0.00    +0.000 A 
ATOM      4  C   UNL     1     -60.667 -50.112  15.067  0.00  0.00    +0.000 A 
ATOM      5  C   UNL     1     -60.008 -48.993  15.604  0.00  0.00    +0.000 A 
ATOM      6  C   UNL     1     -58.249 -49.194  13.979  0.00  0.00    +0.000 A 
ATOM      7  C   UNL     1     -60.117 -50.776  13.968  0.00  0.00    +0.000 A 
ATOM      8  C   UNL     1     -58.918 -50.304  13.450  0.00  0.00    +0.000 A 
ATOM      9  C   UNL     1     -61.877 -50.617  15.562  0.00  0.00    +0.000 A 
ATOM     10  C   UNL     1     -61.864 -52.235  13.942  0.00  0.00    +0.000 A 
ATOM     11  N   UNL     1     -62.494 -49.969  16.663  0.00  0.00    +0.000 N 
ATOM     12  H   UNL     1     -61.820 -49.775  17.397  0.00  0.00    +0.000 HD
ENDROOT
BRANCH  11  13
ATOM     13  C   UNL     1     -63.791 -50.184  17.180  0.00  0.00    +0.000 A 
ATOM     14  C   UNL     1     -64.896 -49.743  16.443  0.00  0.00    +0.000 A 
ATOM     15  C   UNL     1     -66.194 -50.024  16.861  0.00  0.00    +0.000 A 
ATOM     16 CL   UNL     1     -67.510 -49.427  15.932  0.00  0.00    +0.000 Cl
ATOM     17  C   UNL     1     -66.403 -50.777  18.010  0.00  0.00    +0.000 A 
ATOM     18  F   UNL     1     -67.646 -51.058  18.429  0.00  0.00    +0.000 F 
ATOM     19  C   UNL     1     -65.324 -51.260  18.739  0.00  0.00    +0.000 A 
ATOM     20  C   UNL     1     -64.029 -50.975  18.310  0.00  0.00    +0.000 A 
ENDBRANCH  11  13
BRANCH   6  21
ATOM     21  O   UNL     1     -57.066 -48.700  13.483  0.00  0.00    +0.000 OA
ATOM     22  C   UNL     1     -55.967 -49.564  13.563  0.00  0.00    +0.000 C 
ENDBRANCH   6  21
BRANCH   3  23
ATOM     23  O   UNL     1     -58.133 -47.436  15.567  0.00  0.00    +0.000 OA
BRANCH  23  24
ATOM     24  C   UNL     1     -57.836 -47.509  16.863  0.00  0.00    +0.000 C 
ATOM     25  C   UNL     1     -57.512 -47.597  18.358  0.00  0.00    +0.000 C 
BRANCH  25  26
ATOM     26  C   UNL     1     -57.221 -47.697  19.859  0.00  0.00    +0.000 C 
BRANCH  26  27
ATOM     27  N   UNL     1     -56.930 -47.797  21.282  0.00  0.00    +0.000 N 
ATOM     28  C   UNL     1     -55.995 -48.951  21.448  0.00  0.00    +0.000 C 
ATOM     29  C   UNL     1     -54.479 -48.938  21.829  0.00  0.00    +0.000 C 
ATOM     30  O   UNL     1     -53.578 -47.969  22.106  0.00  0.00    +0.000 OA
ATOM     31  C   UNL     1     -54.420 -46.928  21.956  0.00  0.00    +0.000 C 
ATOM     32  C   UNL     1     -55.923 -46.737  21.590  0.00  0.00    +0.000 C 
ENDBRANCH  26  27
ENDBRANCH  25  26
ENDBRANCH  23  24
ENDBRANCH   3  23
TORSDOF 6
ENDMDL
MODEL 7
REMARK VINA RESULT:      -5.0     13.036     15.302
REMARK  Name = Gefitinib.pdbqt.pdb
REMARK  6 active torsions:
REMARK  status: ('A' for Active; 'I' for Inactive)
REMARK    1  A    between atoms: C_3  and  O_11
REMARK    2  A    between atoms: C_6  and  O_21
REMARK    3  A    between atoms: O_11  and  C_12
REMARK    4  A    between atoms: C_13  and  C_14
REMARK    5  A    between atoms: C_14  and  N_15
REMARK    6  A    between atoms: N_23  and  C_25
REMARK                            x       y       z     vdW  Elec       q    Type
REMARK                         _______ _______ _______ _____ _____    ______ ____
ROOT
ATOM      1  N   UNL     1     -59.211 -73.834  55.547  0.00  0.00    +0.000 NA
ATOM      2  N   UNL     1     -58.250 -74.584  53.501  0.00  0.00    +0.000 NA
ATOM      3  C   UNL     1     -62.739 -75.887  54.742  0.00  0.00    +0.000 A 
ATOM      4  C   UNL     1     -60.466 -75.261  54.095  0.00  0.00    +0.000 A 
ATOM      5  C   UNL     1     -61.671 -75.940  53.845  0.00  0.00    +0.000 A 
ATOM      6  C   UNL     1     -62.598 -75.144  55.915  0.00  0.00    +0.000 A 
ATOM      7  C   UNL     1     -60.326 -74.508  55.264  0.00  0.00    +0.000 A 
ATOM      8  C   UNL     1     -61.395 -74.469  56.149  0.00  0.00    +0.000 A 
ATOM      9  C   UNL     1     -59.366 -75.276  53.226  0.00  0.00    +0.000 A 
ATOM     10  C   UNL     1     -58.221 -73.897  54.649  0.00  0.00    +0.000 A 
ATOM     11  N   UNL     1     -59.459 -76.006  52.013  0.00  0.00    +0.000 N 
ATOM     12  H   UNL     1     -59.847 -76.931  52.171  0.00  0.00    +0.000 HD
ENDROOT
BRANCH  11  13
ATOM     13  C   UNL     1     -58.564 -75.991  50.920  0.00  0.00    +0.000 A 
ATOM     14  C   UNL     1     -58.386 -77.162  50.175  0.00  0.00    +0.000 A 
ATOM     15  C   UNL     1     -57.595 -77.168  49.028  0.00  0.00    +0.000 A 
ATOM     16 CL   UNL     1     -57.387 -78.643  48.173  0.00  0.00    +0.000 Cl
ATOM     17  C   UNL     1     -56.995 -75.990  48.596  0.00  0.00    +0.000 A 
ATOM     18  F   UNL     1     -56.230 -75.976  47.494  0.00  0.00    +0.000 F 
ATOM     19  C   UNL     1     -57.188 -74.807  49.296  0.00  0.00    +0.000 A 
ATOM     20  C   UNL     1     -57.983 -74.812  50.440  0.00  0.00    +0.000 A 
ENDBRANCH  11  13
BRANCH   6  21
ATOM     21  O   UNL     1     -63.675 -75.117  56.770  0.00  0.00    +0.000 OA
ATOM     22  C   UNL     1     -63.444 -75.633  58.051  0.00  0.00    +0.000 C 
ENDBRANCH   6  21
BRANCH   3  23
ATOM     23  O   UNL     1     -63.932 -76.536  54.534  0.00  0.00    +0.000 OA
BRANCH  23  24
ATOM     24  C   UNL     1     -64.909 -75.766  54.061  0.00  0.00    +0.000 C 
ATOM     25  C   UNL     1     -66.036 -74.890  53.503  0.00  0.00    +0.000 C 
BRANCH  25  26
ATOM     26  C   UNL     1     -67.169 -74.038  52.921  0.00  0.00    +0.000 C 
BRANCH  26  27
ATOM     27  N   UNL     1     -68.252 -73.229  52.380  0.00  0.00    +0.000 N 
ATOM     28  C   UNL     1     -69.210 -72.991  53.503  0.00  0.00    +0.000 C 
ATOM     29  C   UNL     1     -69.508 -71.663  54.272  0.00  0.00    +0.000 C 
ATOM     30  O   UNL     1     -69.041 -70.397  54.197  0.00  0.00    +0.000 OA
ATOM     31  C   UNL     1     -68.177 -70.611  53.185  0.00  0.00    +0.000 C 
ATOM     32  C   UNL     1     -67.745 -71.826  52.309  0.00  0.00    +0.000 C 
ENDBRANCH  26  27
ENDBRANCH  25  26
ENDBRANCH  23  24
ENDBRANCH   3  23
TORSDOF 6
ENDMDL
MODEL 8
REMARK VINA RESULT:      -5.0     37.699     40.796
REMARK  Name = Gefitinib.pdbqt.pdb
REMARK  6 active torsions:
REMARK  status: ('A' for Active; 'I' for Inactive)
REMARK    1  A    between atoms: C_3  and  O_11
REMARK    2  A    between atoms: C_6  and  O_21
REMARK    3  A    between atoms: O_11  and  C_12
REMARK    4  A    between atoms: C_13  and  C_14
REMARK    5  A    between atoms: C_14  and  N_15
REMARK    6  A    between atoms: N_23  and  C_25
REMARK                            x       y       z     vdW  Elec       q    Type
REMARK                         _______ _______ _______ _____ _____    ______ ____
ROOT
ATOM      1  N   UNL     1     -29.437 -43.284  55.461  0.00  0.00    +0.000 NA
ATOM      2  N   UNL     1     -31.555 -43.810  54.505  0.00  0.00    +0.000 NA
ATOM      3  C   UNL     1     -27.465 -45.373  52.453  0.00  0.00    +0.000 A 
ATOM      4  C   UNL     1     -29.549 -44.583  53.456  0.00  0.00    +0.000 A 
ATOM      5  C   UNL     1     -28.857 -45.287  52.455  0.00  0.00    +0.000 A 
ATOM      6  C   UNL     1     -26.748 -44.739  53.467  0.00  0.00    +0.000 A 
ATOM      7  C   UNL     1     -28.834 -43.955  54.479  0.00  0.00    +0.000 A 
ATOM      8  C   UNL     1     -27.448 -44.045  54.461  0.00  0.00    +0.000 A 
ATOM      9  C   UNL     1     -30.945 -44.471  53.508  0.00  0.00    +0.000 A 
ATOM     10  C   UNL     1     -30.775 -43.245  55.434  0.00  0.00    +0.000 A 
ATOM     11  N   UNL     1     -31.724 -45.107  52.508  0.00  0.00    +0.000 N 
ATOM     12  H   UNL     1     -31.350 -44.923  51.582  0.00  0.00    +0.000 HD
ENDROOT
BRANCH  11  13
ATOM     13  C   UNL     1     -33.124 -45.289  52.484  0.00  0.00    +0.000 A 
ATOM     14  C   UNL     1     -33.936 -44.238  52.042  0.00  0.00    +0.000 A 
ATOM     15  C   UNL     1     -35.312 -44.406  51.902  0.00  0.00    +0.000 A 
ATOM     16 CL   UNL     1     -36.261 -43.069  51.388  0.00  0.00    +0.000 Cl
ATOM     17  C   UNL     1     -35.890 -45.640  52.176  0.00  0.00    +0.000 A 
ATOM     18  F   UNL     1     -37.212 -45.821  52.047  0.00  0.00    +0.000 F 
ATOM     19  C   UNL     1     -35.101 -46.710  52.578  0.00  0.00    +0.000 A 
ATOM     20  C   UNL     1     -33.726 -46.532  52.712  0.00  0.00    +0.000 A 
ENDBRANCH  11  13
BRANCH   6  21
ATOM     21  O   UNL     1     -25.377 -44.850  53.428  0.00  0.00    +0.000 OA
ATOM     22  C   UNL     1     -24.798 -45.589  54.466  0.00  0.00    +0.000 C 
ENDBRANCH   6  21
BRANCH   3  23
ATOM     23  O   UNL     1     -26.753 -46.052  51.493  0.00  0.00    +0.000 OA
BRANCH  23  24
ATOM     24  C   UNL     1     -27.391 -47.090  50.957  0.00  0.00    +0.000 C 
ATOM     25  C   UNL     1     -28.111 -48.289  50.331  0.00  0.00    +0.000 C 
BRANCH  25  26
ATOM     26  C   UNL     1     -28.801 -49.497  49.688  0.00  0.00    +0.000 C 
BRANCH  26  27
ATOM     27  N   UNL     1     -29.445 -50.653  49.080  0.00  0.00    +0.000 N 
ATOM     28  C   UNL     1     -30.087 -51.418  50.192  0.00  0.00    +0.000 C 
ATOM     29  C   UNL     1     -31.608 -51.590  50.513  0.00  0.00    +0.000 C 
ATOM     30  O   UNL     1     -32.753 -51.141  49.954  0.00  0.00    +0.000 OA
ATOM     31  C   UNL     1     -32.175 -50.450  48.952  0.00  0.00    +0.000 C 
ATOM     32  C   UNL     1     -30.719 -50.164  48.473  0.00  0.00    +0.000 C 
ENDBRANCH  26  27
ENDBRANCH  25  26
ENDBRANCH  23  24
ENDBRANCH   3  23
TORSDOF 6
ENDMDL
MODEL 9
REMARK VINA RESULT:      -5.0     17.508     19.632
REMARK  Name = Gefitinib.pdbqt.pdb
REMARK  6 active torsions:
REMARK  status: ('A' for Active; 'I' for Inactive)
REMARK    1  A    between atoms: C_3  and  O_11
REMARK    2  A    between atoms: C_6  and  O_21
REMARK    3  A    between atoms: O_11  and  C_12
REMARK    4  A    between atoms: C_13  and  C_14
REMARK    5  A    between atoms: C_14  and  N_15
REMARK    6  A    between atoms: N_23  and  C_25
REMARK                            x       y       z     vdW  Elec       q    Type
REMARK                         _______ _______ _______ _____ _____    ______ ____
ROOT
ATOM      1  N   UNL     1     -47.358 -60.892  34.174  0.00  0.00    +0.000 NA
ATOM      2  N   UNL     1     -47.251 -62.346  32.290  0.00  0.00    +0.000 NA
ATOM      3  C   UNL     1     -45.875 -63.875  36.667  0.00  0.00    +0.000 A 
ATOM      4  C   UNL     1     -46.546 -63.126  34.438  0.00  0.00    +0.000 A 
ATOM      5  C   UNL     1     -46.053 -64.117  35.304  0.00  0.00    +0.000 A 
ATOM      6  C   UNL     1     -46.193 -62.614  37.174  0.00  0.00    +0.000 A 
ATOM      7  C   UNL     1     -46.875 -61.866  34.945  0.00  0.00    +0.000 A 
ATOM      8  C   UNL     1     -46.688 -61.637  36.302  0.00  0.00    +0.000 A 
ATOM      9  C   UNL     1     -46.748 -63.320  33.065  0.00  0.00    +0.000 A 
ATOM     10  C   UNL     1     -47.531 -61.177  32.878  0.00  0.00    +0.000 A 
ATOM     11  N   UNL     1     -46.453 -64.586  32.498  0.00  0.00    +0.000 N 
ATOM     12  H   UNL     1     -45.549 -64.926  32.813  0.00  0.00    +0.000 HD
ENDROOT
BRANCH  11  13
ATOM     13  C   UNL     1     -46.768 -65.051  31.202  0.00  0.00    +0.000 A 
ATOM     14  C   UNL     1     -46.344 -64.307  30.094  0.00  0.00    +0.000 A 
ATOM     15  C   UNL     1     -46.539 -64.778  28.798  0.00  0.00    +0.000 A 
ATOM     16 CL   UNL     1     -46.028 -63.806  27.478  0.00  0.00    +0.000 Cl
ATOM     17  C   UNL     1     -47.137 -66.017  28.595  0.00  0.00    +0.000 A 
ATOM     18  F   UNL     1     -47.333 -66.488  27.355  0.00  0.00    +0.000 F 
ATOM     19  C   UNL     1     -47.531 -66.792  29.678  0.00  0.00    +0.000 A 
ATOM     20  C   UNL     1     -47.328 -66.313  30.970  0.00  0.00    +0.000 A 
ENDBRANCH  11  13
BRANCH   6  21
ATOM     21  O   UNL     1     -46.004 -62.418  38.522  0.00  0.00    +0.000 OA
ATOM     22  C   UNL     1     -47.156 -62.502  39.314  0.00  0.00    +0.000 C 
ENDBRANCH   6  21
BRANCH   3  23
ATOM     23  O   UNL     1     -45.396 -64.817  37.544  0.00  0.00    +0.000 OA
BRANCH  23  24
ATOM     24  C   UNL     1     -45.029 -65.966  36.981  0.00  0.00    +0.000 C 
ATOM     25  C   UNL     1     -44.622 -67.290  36.326  0.00  0.00    +0.000 C 
BRANCH  25  26
ATOM     26  C   UNL     1     -44.247 -68.615  35.653  0.00  0.00    +0.000 C 
BRANCH  26  27
ATOM     27  N   UNL     1     -43.904 -69.877  35.013  0.00  0.00    +0.000 N 
ATOM     28  C   UNL     1     -44.679 -69.934  33.736  0.00  0.00    +0.000 C 
ATOM     29  C   UNL     1     -44.156 -69.825  32.267  0.00  0.00    +0.000 C 
ATOM     30  O   UNL     1     -42.941 -69.652  31.702  0.00  0.00    +0.000 OA
ATOM     31  C   UNL     1     -42.242 -69.600  32.853  0.00  0.00    +0.000 C 
ATOM     32  C   UNL     1     -42.567 -69.685  34.375  0.00  0.00    +0.000 C 
ENDBRANCH  26  27
ENDBRANCH  25  26
ENDBRANCH  23  24
ENDBRANCH   3  23
TORSDOF 6
ENDMDL
