MODEL 1
REMARK VINA RESULT:      -6.4      0.000      0.000
REMARK  Name = Genistein.pdbqt.pdb
REMARK  4 active torsions:
REMARK  status: ('A' for Active; 'I' for Inactive)
REMARK    1  A    between atoms: C_4  and  C_12
REMARK    2  A    between atoms: C_7  and  O_20
REMARK    3  A    between atoms: C_11  and  O_22
REMARK    4  A    between atoms: C_17  and  O_18
REMARK                            x       y       z     vdW  Elec       q    Type
REMARK                         _______ _______ _______ _____ _____    ______ ____
ROOT
ATOM      1  O   UNL     1     -33.927 -64.800  67.312  0.00  0.00    +0.000 OA
ATOM      2  O   UNL     1     -36.676 -63.290  64.542  0.00  0.00    +0.000 OA
ATOM      3  C   UNL     1     -36.070 -63.652  66.813  0.00  0.00    +0.000 A 
ATOM      4  C   UNL     1     -34.570 -64.416  64.910  0.00  0.00    +0.000 A 
ATOM      5  C   UNL     1     -35.106 -64.181  67.721  0.00  0.00    +0.000 A 
ATOM      6  C   UNL     1     -35.847 -63.745  65.322  0.00  0.00    +0.000 A 
ATOM      7  C   UNL     1     -37.225 -63.046  67.318  0.00  0.00    +0.000 A 
ATOM      8  C   UNL     1     -33.947 -64.767  65.990  0.00  0.00    +0.000 A 
ATOM      9  C   UNL     1     -35.313 -64.095  69.095  0.00  0.00    +0.000 A 
ATOM     10  C   UNL     1     -37.425 -62.965  68.695  0.00  0.00    +0.000 A 
ATOM     11  C   UNL     1     -36.471 -63.487  69.567  0.00  0.00    +0.000 A 
ENDROOT
BRANCH   4  12
ATOM     12  C   UNL     1     -34.100 -64.643  63.545  0.00  0.00    +0.000 A 
ATOM     13  C   UNL     1     -32.997 -63.952  63.037  0.00  0.00    +0.000 A 
ATOM     14  C   UNL     1     -34.749 -65.563  62.714  0.00  0.00    +0.000 A 
ATOM     15  C   UNL     1     -32.548 -64.169  61.736  0.00  0.00    +0.000 A 
ATOM     16  C   UNL     1     -34.310 -65.789  61.409  0.00  0.00    +0.000 A 
ATOM     17  C   UNL     1     -33.211 -65.088  60.932  0.00  0.00    +0.000 A 
BRANCH  17  18
ATOM     18  O   UNL     1     -32.797 -65.323  59.653  0.00  0.00    +0.000 OA
ATOM     19  H   UNL     1     -33.124 -64.600  59.089  0.00  0.00    +0.000 HD
ENDBRANCH  17  18
ENDBRANCH   4  12
BRANCH   7  20
ATOM     20  O   UNL     1     -38.203 -62.512  66.524  0.00  0.00    +0.000 OA
ATOM     21  H   UNL     1     -39.067 -62.594  66.990  0.00  0.00    +0.000 HD
ENDBRANCH   7  20
BRANCH  11  22
ATOM     22  O   UNL     1     -36.656 -63.412  70.918  0.00  0.00    +0.000 OA
ATOM     23  H   UNL     1     -37.098 -64.229  71.209  0.00  0.00    +0.000 HD
ENDBRANCH  11  22
TORSDOF 4
ENDMDL
MODEL 2
REMARK VINA RESULT:      -6.3     23.940     25.677
REMARK  Name = Genistein.pdbqt.pdb
REMARK  4 active torsions:
REMARK  status: ('A' for Active; 'I' for Inactive)
REMARK    1  A    between atoms: C_4  and  C_12
REMARK    2  A    between atoms: C_7  and  O_20
REMARK    3  A    between atoms: C_11  and  O_22
REMARK    4  A    between atoms: C_17  and  O_18
REMARK                            x       y       z     vdW  Elec       q    Type
REMARK                         _______ _______ _______ _____ _____    ______ ____
ROOT
ATOM      1  O   UNL     1     -45.774 -62.380  44.627  0.00  0.00    +0.000 OA
ATOM      2  O   UNL     1     -46.967 -61.753  40.666  0.00  0.00    +0.000 OA
ATOM      3  C   UNL     1     -47.315 -61.340  42.982  0.00  0.00    +0.000 A 
ATOM      4  C   UNL     1     -45.408 -62.814  42.177  0.00  0.00    +0.000 A 
ATOM      5  C   UNL     1     -46.873 -61.582  44.317  0.00  0.00    +0.000 A 
ATOM      6  C   UNL     1     -46.587 -61.960  41.813  0.00  0.00    +0.000 A 
ATOM      7  C   UNL     1     -48.429 -60.524  42.768  0.00  0.00    +0.000 A 
ATOM      8  C   UNL     1     -45.305 -62.807  43.468  0.00  0.00    +0.000 A 
ATOM      9  C   UNL     1     -47.545 -61.011  45.394  0.00  0.00    +0.000 A 
ATOM     10  C   UNL     1     -49.097 -59.956  43.852  0.00  0.00    +0.000 A 
ATOM     11  C   UNL     1     -48.651 -60.202  45.149  0.00  0.00    +0.000 A 
ENDROOT
BRANCH   4  12
ATOM     12  C   UNL     1     -44.529 -63.531  41.257  0.00  0.00    +0.000 A 
ATOM     13  C   UNL     1     -43.840 -62.859  40.243  0.00  0.00    +0.000 A 
ATOM     14  C   UNL     1     -44.354 -64.915  41.373  0.00  0.00    +0.000 A 
ATOM     15  C   UNL     1     -43.001 -63.542  39.366  0.00  0.00    +0.000 A 
ATOM     16  C   UNL     1     -43.517 -65.611  40.501  0.00  0.00    +0.000 A 
ATOM     17  C   UNL     1     -42.847 -64.916  39.504  0.00  0.00    +0.000 A 
BRANCH  17  18
ATOM     18  O   UNL     1     -42.032 -65.615  38.661  0.00  0.00    +0.000 OA
ATOM     19  H   UNL     1     -41.994 -65.141  37.811  0.00  0.00    +0.000 HD
ENDBRANCH  17  18
ENDBRANCH   4  12
BRANCH   7  20
ATOM     20  O   UNL     1     -48.924 -60.237  41.525  0.00  0.00    +0.000 OA
ATOM     21  H   UNL     1     -48.769 -61.011  40.937  0.00  0.00    +0.000 HD
ENDBRANCH   7  20
BRANCH  11  22
ATOM     22  O   UNL     1     -49.296 -59.651  46.218  0.00  0.00    +0.000 OA
ATOM     23  H   UNL     1     -50.055 -59.140  45.884  0.00  0.00    +0.000 HD
ENDBRANCH  11  22
TORSDOF 4
ENDMDL
MODEL 3
REMARK VINA RESULT:      -6.1     31.675     35.060
REMARK  Name = Genistein.pdbqt.pdb
REMARK  4 active torsions:
REMARK  status: ('A' for Active; 'I' for Inactive)
REMARK    1  A    between atoms: C_4  and  C_12
REMARK    2  A    between atoms: C_7  and  O_20
REMARK    3  A    between atoms: C_11  and  O_22
REMARK    4  A    between atoms: C_17  and  O_18
REMARK                            x       y       z     vdW  Elec       q    Type
REMARK                         _______ _______ _______ _____ _____    ______ ____
ROOT
ATOM      1  O   UNL     1     -43.480 -54.644  32.359  0.00  0.00    +0.000 OA
ATOM      2  O   UNL     1     -45.187 -52.765  35.685  0.00  0.00    +0.000 OA
ATOM      3  C   UNL     1     -43.996 -54.617  34.787  0.00  0.00    +0.000 A 
ATOM      4  C   UNL     1     -44.739 -52.686  33.313  0.00  0.00    +0.000 A 
ATOM      5  C   UNL     1     -43.429 -55.221  33.626  0.00  0.00    +0.000 A 
ATOM      6  C   UNL     1     -44.699 -53.283  34.687  0.00  0.00    +0.000 A 
ATOM      7  C   UNL     1     -43.895 -55.272  36.017  0.00  0.00    +0.000 A 
ATOM      8  C   UNL     1     -44.131 -53.504  32.513  0.00  0.00    +0.000 A 
ATOM      9  C   UNL     1     -42.782 -56.451  33.718  0.00  0.00    +0.000 A 
ATOM     10  C   UNL     1     -43.246 -56.503  36.101  0.00  0.00    +0.000 A 
ATOM     11  C   UNL     1     -42.697 -57.078  34.956  0.00  0.00    +0.000 A 
ENDROOT
BRANCH   4  12
ATOM     12  C   UNL     1     -45.349 -51.415  32.927  0.00  0.00    +0.000 A 
ATOM     13  C   UNL     1     -44.966 -50.755  31.756  0.00  0.00    +0.000 A 
ATOM     14  C   UNL     1     -46.337 -50.829  33.726  0.00  0.00    +0.000 A 
ATOM     15  C   UNL     1     -45.548 -49.544  31.387  0.00  0.00    +0.000 A 
ATOM     16  C   UNL     1     -46.927 -49.617  33.370  0.00  0.00    +0.000 A 
ATOM     17  C   UNL     1     -46.526 -48.985  32.200  0.00  0.00    +0.000 A 
BRANCH  17  18
ATOM     18  O   UNL     1     -47.116 -47.800  31.868  0.00  0.00    +0.000 OA
ATOM     19  H   UNL     1     -48.079 -47.938  31.833  0.00  0.00    +0.000 HD
ENDBRANCH  17  18
ENDBRANCH   4  12
BRANCH   7  20
ATOM     20  O   UNL     1     -44.408 -54.770  37.182  0.00  0.00    +0.000 OA
ATOM     21  H   UNL     1     -45.346 -55.057  37.264  0.00  0.00    +0.000 HD
ENDBRANCH   7  20
BRANCH  11  22
ATOM     22  O   UNL     1     -42.059 -58.282  35.026  0.00  0.00    +0.000 OA
ATOM     23  H   UNL     1     -42.411 -58.769  35.793  0.00  0.00    +0.000 HD
ENDBRANCH  11  22
TORSDOF 4
ENDMDL
MODEL 4
REMARK VINA RESULT:      -6.1     15.392     17.706
REMARK  Name = Genistein.pdbqt.pdb
REMARK  4 active torsions:
REMARK  status: ('A' for Active; 'I' for Inactive)
REMARK    1  A    between atoms: C_4  and  C_12
REMARK    2  A    between atoms: C_7  and  O_20
REMARK    3  A    between atoms: C_11  and  O_22
REMARK    4  A    between atoms: C_17  and  O_18
REMARK                            x       y       z     vdW  Elec       q    Type
REMARK                         _______ _______ _______ _____ _____    ______ ____
ROOT
ATOM      1  O   UNL     1     -29.460 -50.838  55.498  0.00  0.00    +0.000 OA
ATOM      2  O   UNL     1     -33.178 -52.240  54.186  0.00  0.00    +0.000 OA
ATOM      3  C   UNL     1     -31.389 -52.380  55.747  0.00  0.00    +0.000 A 
ATOM      4  C   UNL     1     -31.355 -50.692  53.849  0.00  0.00    +0.000 A 
ATOM      5  C   UNL     1     -30.122 -51.871  56.158  0.00  0.00    +0.000 A 
ATOM      6  C   UNL     1     -32.089 -51.802  54.539  0.00  0.00    +0.000 A 
ATOM      7  C   UNL     1     -31.977 -53.420  56.474  0.00  0.00    +0.000 A 
ATOM      8  C   UNL     1     -30.247 -50.497  54.492  0.00  0.00    +0.000 A 
ATOM      9  C   UNL     1     -29.477 -52.405  57.271  0.00  0.00    +0.000 A 
ATOM     10  C   UNL     1     -31.325 -53.949  57.586  0.00  0.00    +0.000 A 
ATOM     11  C   UNL     1     -30.088 -53.438  57.973  0.00  0.00    +0.000 A 
ENDROOT
BRANCH   4  12
ATOM     12  C   UNL     1     -31.792 -49.955  52.665  0.00  0.00    +0.000 A 
ATOM     13  C   UNL     1     -31.355 -50.316  51.387  0.00  0.00    +0.000 A 
ATOM     14  C   UNL     1     -32.664 -48.867  52.785  0.00  0.00    +0.000 A 
ATOM     15  C   UNL     1     -31.772 -49.615  50.258  0.00  0.00    +0.000 A 
ATOM     16  C   UNL     1     -33.089 -48.157  51.664  0.00  0.00    +0.000 A 
ATOM     17  C   UNL     1     -32.638 -48.538  50.407  0.00  0.00    +0.000 A 
BRANCH  17  18
ATOM     18  O   UNL     1     -33.065 -47.831  49.321  0.00  0.00    +0.000 OA
ATOM     19  H   UNL     1     -33.893 -48.233  49.003  0.00  0.00    +0.000 HD
ENDBRANCH  17  18
ENDBRANCH   4  12
BRANCH   7  20
ATOM     20  O   UNL     1     -33.189 -53.971  56.154  0.00  0.00    +0.000 OA
ATOM     21  H   UNL     1     -33.071 -54.940  56.026  0.00  0.00    +0.000 HD
ENDBRANCH   7  20
BRANCH  11  22
ATOM     22  O   UNL     1     -29.440 -53.948  59.062  0.00  0.00    +0.000 OA
ATOM     23  H   UNL     1     -30.110 -54.245  59.703  0.00  0.00    +0.000 HD
ENDBRANCH  11  22
TORSDOF 4
ENDMDL
MODEL 5
REMARK VINA RESULT:      -6.1     30.976     34.054
REMARK  Name = Genistein.pdbqt.pdb
REMARK  4 active torsions:
REMARK  status: ('A' for Active; 'I' for Inactive)
REMARK    1  A    between atoms: C_4  and  C_12
REMARK    2  A    between atoms: C_7  and  O_20
REMARK    3  A    between atoms: C_11  and  O_22
REMARK    4  A    between atoms: C_17  and  O_18
REMARK                            x       y       z     vdW  Elec       q    Type
REMARK                         _______ _______ _______ _____ _____    ______ ____
ROOT
ATOM      1  O   UNL     1     -43.266 -53.857  32.102  0.00  0.00    +0.000 OA
ATOM      2  O   UNL     1     -42.353 -52.491  35.950  0.00  0.00    +0.000 OA
ATOM      3  C   UNL     1     -43.743 -52.362  34.025  0.00  0.00    +0.000 A 
ATOM      4  C   UNL     1     -41.798 -53.992  34.141  0.00  0.00    +0.000 A 
ATOM      5  C   UNL     1     -44.017 -52.857  32.716  0.00  0.00    +0.000 A 
ATOM      6  C   UNL     1     -42.589 -52.918  34.826  0.00  0.00    +0.000 A 
ATOM      7  C   UNL     1     -44.554 -51.356  34.560  0.00  0.00    +0.000 A 
ATOM      8  C   UNL     1     -42.328 -54.184  32.974  0.00  0.00    +0.000 A 
ATOM      9  C   UNL     1     -45.081 -52.344  31.979  0.00  0.00    +0.000 A 
ATOM     10  C   UNL     1     -45.617 -50.847  33.815  0.00  0.00    +0.000 A 
ATOM     11  C   UNL     1     -45.870 -51.344  32.538  0.00  0.00    +0.000 A 
ENDROOT
BRANCH   4  12
ATOM     12  C   UNL     1     -40.637 -54.701  34.675  0.00  0.00    +0.000 A 
ATOM     13  C   UNL     1     -39.566 -54.008  35.244  0.00  0.00    +0.000 A 
ATOM     14  C   UNL     1     -40.575 -56.099  34.629  0.00  0.00    +0.000 A 
ATOM     15  C   UNL     1     -38.459 -54.684  35.754  0.00  0.00    +0.000 A 
ATOM     16  C   UNL     1     -39.473 -56.788  35.135  0.00  0.00    +0.000 A 
ATOM     17  C   UNL     1     -38.423 -56.072  35.695  0.00  0.00    +0.000 A 
BRANCH  17  18
ATOM     18  O   UNL     1     -37.355 -56.764  36.186  0.00  0.00    +0.000 OA
ATOM     19  H   UNL     1     -37.191 -57.526  35.602  0.00  0.00    +0.000 HD
ENDBRANCH  17  18
ENDBRANCH   4  12
BRANCH   7  20
ATOM     20  O   UNL     1     -44.367 -50.820  35.805  0.00  0.00    +0.000 OA
ATOM     21  H   UNL     1     -44.057 -51.532  36.411  0.00  0.00    +0.000 HD
ENDBRANCH   7  20
BRANCH  11  22
ATOM     22  O   UNL     1     -46.908 -50.854  31.800  0.00  0.00    +0.000 OA
ATOM     23  H   UNL     1     -47.278 -50.085  32.268  0.00  0.00    +0.000 HD
ENDBRANCH  11  22
TORSDOF 4
ENDMDL
MODEL 6
REMARK VINA RESULT:      -5.8     29.285     32.471
REMARK  Name = Genistein.pdbqt.pdb
REMARK  4 active torsions:
REMARK  status: ('A' for Active; 'I' for Inactive)
REMARK    1  A    between atoms: C_4  and  C_12
REMARK    2  A    between atoms: C_7  and  O_20
REMARK    3  A    between atoms: C_11  and  O_22
REMARK    4  A    between atoms: C_17  and  O_18
REMARK                            x       y       z     vdW  Elec       q    Type
REMARK                         _______ _______ _______ _____ _____    ______ ____
ROOT
ATOM      1  O   UNL     1     -41.098 -55.236  33.675  0.00  0.00    +0.000 OA
ATOM      2  O   UNL     1     -44.170 -55.681  36.480  0.00  0.00    +0.000 OA
ATOM      3  C   UNL     1     -43.079 -54.324  34.860  0.00  0.00    +0.000 A 
ATOM      4  C   UNL     1     -42.255 -56.669  35.388  0.00  0.00    +0.000 A 
ATOM      5  C   UNL     1     -42.017 -54.217  33.914  0.00  0.00    +0.000 A 
ATOM      6  C   UNL     1     -43.258 -55.589  35.667  0.00  0.00    +0.000 A 
ATOM      7  C   UNL     1     -43.953 -53.247  35.031  0.00  0.00    +0.000 A 
ATOM      8  C   UNL     1     -41.445 -56.225  34.480  0.00  0.00    +0.000 A 
ATOM      9  C   UNL     1     -41.852 -53.051  33.171  0.00  0.00    +0.000 A 
ATOM     10  C   UNL     1     -43.782 -52.084  34.284  0.00  0.00    +0.000 A 
ATOM     11  C   UNL     1     -42.739 -51.996  33.364  0.00  0.00    +0.000 A 
ENDROOT
BRANCH   4  12
ATOM     12  C   UNL     1     -42.188 -57.986  36.018  0.00  0.00    +0.000 A 
ATOM     13  C   UNL     1     -43.175 -58.410  36.911  0.00  0.00    +0.000 A 
ATOM     14  C   UNL     1     -41.128 -58.856  35.737  0.00  0.00    +0.000 A 
ATOM     15  C   UNL     1     -43.112 -59.666  37.512  0.00  0.00    +0.000 A 
ATOM     16  C   UNL     1     -41.052 -60.115  36.331  0.00  0.00    +0.000 A 
ATOM     17  C   UNL     1     -42.048 -60.509  37.215  0.00  0.00    +0.000 A 
BRANCH  17  18
ATOM     18  O   UNL     1     -41.957 -61.745  37.786  0.00  0.00    +0.000 OA
ATOM     19  H   UNL     1     -41.210 -61.738  38.411  0.00  0.00    +0.000 HD
ENDBRANCH  17  18
ENDBRANCH   4  12
BRANCH   7  20
ATOM     20  O   UNL     1     -45.000 -53.260  35.914  0.00  0.00    +0.000 OA
ATOM     21  H   UNL     1     -45.532 -52.442  35.784  0.00  0.00    +0.000 HD
ENDBRANCH   7  20
BRANCH  11  22
ATOM     22  O   UNL     1     -42.561 -50.862  32.626  0.00  0.00    +0.000 OA
ATOM     23  H   UNL     1     -41.719 -50.941  32.144  0.00  0.00    +0.000 HD
ENDBRANCH  11  22
TORSDOF 4
ENDMDL
MODEL 7
REMARK VINA RESULT:      -5.7     25.540     28.945
REMARK  Name = Genistein.pdbqt.pdb
REMARK  4 active torsions:
REMARK  status: ('A' for Active; 'I' for Inactive)
REMARK    1  A    between atoms: C_4  and  C_12
REMARK    2  A    between atoms: C_7  and  O_20
REMARK    3  A    between atoms: C_11  and  O_22
REMARK    4  A    between atoms: C_17  and  O_18
REMARK                            x       y       z     vdW  Elec       q    Type
REMARK                         _______ _______ _______ _____ _____    ______ ____
ROOT
ATOM      1  O   UNL     1     -44.047 -63.592  40.216  0.00  0.00    +0.000 OA
ATOM      2  O   UNL     1     -46.804 -66.032  38.227  0.00  0.00    +0.000 OA
ATOM      3  C   UNL     1     -44.905 -65.851  39.646  0.00  0.00    +0.000 A 
ATOM      4  C   UNL     1     -46.057 -63.787  38.715  0.00  0.00    +0.000 A 
ATOM      5  C   UNL     1     -43.987 -64.981  40.306  0.00  0.00    +0.000 A 
ATOM      6  C   UNL     1     -46.016 -65.284  38.794  0.00  0.00    +0.000 A 
ATOM      7  C   UNL     1     -44.765 -67.233  39.797  0.00  0.00    +0.000 A 
ATOM      8  C   UNL     1     -45.079 -63.331  39.432  0.00  0.00    +0.000 A 
ATOM      9  C   UNL     1     -42.963 -65.504  41.091  0.00  0.00    +0.000 A 
ATOM     10  C   UNL     1     -43.737 -67.749  40.584  0.00  0.00    +0.000 A 
ATOM     11  C   UNL     1     -42.850 -66.884  41.222  0.00  0.00    +0.000 A 
ENDROOT
BRANCH   4  12
ATOM     12  C   UNL     1     -47.015 -62.975  37.968  0.00  0.00    +0.000 A 
ATOM     13  C   UNL     1     -47.017 -62.962  36.571  0.00  0.00    +0.000 A 
ATOM     14  C   UNL     1     -47.959 -62.189  38.641  0.00  0.00    +0.000 A 
ATOM     15  C   UNL     1     -47.932 -62.189  35.858  0.00  0.00    +0.000 A 
ATOM     16  C   UNL     1     -48.879 -61.410  37.940  0.00  0.00    +0.000 A 
ATOM     17  C   UNL     1     -48.857 -61.418  36.552  0.00  0.00    +0.000 A 
BRANCH  17  18
ATOM     18  O   UNL     1     -49.765 -60.649  35.884  0.00  0.00    +0.000 OA
ATOM     19  H   UNL     1     -49.571 -59.714  36.074  0.00  0.00    +0.000 HD
ENDBRANCH  17  18
ENDBRANCH   4  12
BRANCH   7  20
ATOM     20  O   UNL     1     -45.597 -68.143  39.203  0.00  0.00    +0.000 OA
ATOM     21  H   UNL     1     -45.258 -69.049  39.388  0.00  0.00    +0.000 HD
ENDBRANCH   7  20
BRANCH  11  22
ATOM     22  O   UNL     1     -41.839 -67.378  41.995  0.00  0.00    +0.000 OA
ATOM     23  H   UNL     1     -41.612 -68.266  41.668  0.00  0.00    +0.000 HD
ENDBRANCH  11  22
TORSDOF 4
ENDMDL
MODEL 8
REMARK VINA RESULT:      -5.5     29.113     31.530
REMARK  Name = Genistein.pdbqt.pdb
REMARK  4 active torsions:
REMARK  status: ('A' for Active; 'I' for Inactive)
REMARK    1  A    between atoms: C_4  and  C_12
REMARK    2  A    between atoms: C_7  and  O_20
REMARK    3  A    between atoms: C_11  and  O_22
REMARK    4  A    between atoms: C_17  and  O_18
REMARK                            x       y       z     vdW  Elec       q    Type
REMARK                         _______ _______ _______ _____ _____    ______ ____
ROOT
ATOM      1  O   UNL     1     -40.552 -57.589  35.284  0.00  0.00    +0.000 OA
ATOM      2  O   UNL     1     -44.378 -56.376  36.467  0.00  0.00    +0.000 OA
ATOM      3  C   UNL     1     -42.238 -55.795  35.608  0.00  0.00    +0.000 A 
ATOM      4  C   UNL     1     -42.817 -58.199  36.192  0.00  0.00    +0.000 A 
ATOM      5  C   UNL     1     -40.945 -56.254  35.216  0.00  0.00    +0.000 A 
ATOM      6  C   UNL     1     -43.267 -56.770  36.130  0.00  0.00    +0.000 A 
ATOM      7  C   UNL     1     -42.541 -54.435  35.503  0.00  0.00    +0.000 A 
ATOM      8  C   UNL     1     -41.596 -58.243  35.762  0.00  0.00    +0.000 A 
ATOM      9  C   UNL     1     -39.996 -55.355  34.735  0.00  0.00    +0.000 A 
ATOM     10  C   UNL     1     -41.586 -53.542  35.021  0.00  0.00    +0.000 A 
ATOM     11  C   UNL     1     -40.328 -54.008  34.643  0.00  0.00    +0.000 A 
ENDROOT
BRANCH   4  12
ATOM     12  C   UNL     1     -43.599 -59.344  36.653  0.00  0.00    +0.000 A 
ATOM     13  C   UNL     1     -44.765 -59.737  35.990  0.00  0.00    +0.000 A 
ATOM     14  C   UNL     1     -43.194 -60.077  37.775  0.00  0.00    +0.000 A 
ATOM     15  C   UNL     1     -45.510 -60.830  36.428  0.00  0.00    +0.000 A 
ATOM     16  C   UNL     1     -43.931 -61.172  38.225  0.00  0.00    +0.000 A 
ATOM     17  C   UNL     1     -45.085 -61.539  37.545  0.00  0.00    +0.000 A 
BRANCH  17  18
ATOM     18  O   UNL     1     -45.792 -62.614  38.000  0.00  0.00    +0.000 OA
ATOM     19  H   UNL     1     -46.486 -62.820  37.349  0.00  0.00    +0.000 HD
ENDBRANCH  17  18
ENDBRANCH   4  12
BRANCH   7  20
ATOM     20  O   UNL     1     -43.753 -53.905  35.855  0.00  0.00    +0.000 OA
ATOM     21  H   UNL     1     -44.404 -54.107  35.144  0.00  0.00    +0.000 HD
ENDBRANCH   7  20
BRANCH  11  22
ATOM     22  O   UNL     1     -39.385 -53.142  34.169  0.00  0.00    +0.000 OA
ATOM     23  H   UNL     1     -38.541 -53.623  34.096  0.00  0.00    +0.000 HD
ENDBRANCH  11  22
TORSDOF 4
ENDMDL
MODEL 9
REMARK VINA RESULT:      -5.4     56.192     58.063
REMARK  Name = Genistein.pdbqt.pdb
REMARK  4 active torsions:
REMARK  status: ('A' for Active; 'I' for Inactive)
REMARK    1  A    between atoms: C_4  and  C_12
REMARK    2  A    between atoms: C_7  and  O_20
REMARK    3  A    between atoms: C_11  and  O_22
REMARK    4  A    between atoms: C_17  and  O_18
REMARK                            x       y       z     vdW  Elec       q    Type
REMARK                         _______ _______ _______ _____ _____    ______ ____
ROOT
ATOM      1  O   UNL     1     -64.528 -49.600  15.567  0.00  0.00    +0.000 OA
ATOM      2  O   UNL     1     -63.781 -50.879  19.480  0.00  0.00    +0.000 OA
ATOM      3  C   UNL     1     -63.131 -50.851  17.193  0.00  0.00    +0.000 A 
ATOM      4  C   UNL     1     -65.213 -49.631  17.988  0.00  0.00    +0.000 A 
ATOM      5  C   UNL     1     -63.425 -50.393  15.875  0.00  0.00    +0.000 A 
ATOM      6  C   UNL     1     -64.034 -50.485  18.348  0.00  0.00    +0.000 A 
ATOM      7  C   UNL     1     -61.999 -51.643  17.405  0.00  0.00    +0.000 A 
ATOM      8  C   UNL     1     -65.161 -49.411  16.712  0.00  0.00    +0.000 A 
ATOM      9  C   UNL     1     -62.593 -50.732  14.811  0.00  0.00    +0.000 A 
ATOM     10  C   UNL     1     -61.171 -51.978  16.335  0.00  0.00    +0.000 A 
ATOM     11  C   UNL     1     -61.473 -51.521  15.054  0.00  0.00    +0.000 A 
ENDROOT
BRANCH   4  12
ATOM     12  C   UNL     1     -66.243 -49.132  18.896  0.00  0.00    +0.000 A 
ATOM     13  C   UNL     1     -66.042 -47.972  19.649  0.00  0.00    +0.000 A 
ATOM     14  C   UNL     1     -67.462 -49.808  19.030  0.00  0.00    +0.000 A 
ATOM     15  C   UNL     1     -67.024 -47.495  20.515  0.00  0.00    +0.000 A 
ATOM     16  C   UNL     1     -68.453 -49.342  19.893  0.00  0.00    +0.000 A 
ATOM     17  C   UNL     1     -68.224 -48.187  20.629  0.00  0.00    +0.000 A 
BRANCH  17  18
ATOM     18  O   UNL     1     -69.206 -47.746  21.467  0.00  0.00    +0.000 OA
ATOM     19  H   UNL     1     -68.903 -46.920  21.884  0.00  0.00    +0.000 HD
ENDBRANCH  17  18
ENDBRANCH   4  12
BRANCH   7  20
ATOM     20  O   UNL     1     -61.638 -52.127  18.634  0.00  0.00    +0.000 OA
ATOM     21  H   UNL     1     -61.792 -53.100  18.647  0.00  0.00    +0.000 HD
ENDBRANCH   7  20
BRANCH  11  22
ATOM     22  O   UNL     1     -60.670 -51.842  13.999  0.00  0.00    +0.000 OA
ATOM     23  H   UNL     1     -61.042 -51.432  13.198  0.00  0.00    +0.000 HD
ENDBRANCH  11  22
TORSDOF 4
ENDMDL
