MODEL 1
REMARK VINA RESULT:      -2.8      0.000      0.000
REMARK  Name = HydrogenPeroxide.pdbqt.pdb
REMARK  1 active torsions:
REMARK  status: ('A' for Active; 'I' for Inactive)
REMARK    1  A    between atoms: O_1  and  O_3
REMARK                            x       y       z     vdW  Elec       q    Type
REMARK                         _______ _______ _______ _____ _____    ______ ____
ROOT
ATOM      1  O   UNL     1     -43.196 -50.058  43.133  0.00  0.00    +0.000 OA
ATOM      2  H   UNL     1     -43.208 -50.159  44.104  0.00  0.00    +0.000 HD
ENDROOT
BRANCH   1   3
ATOM      3  O   UNL     1     -41.974 -49.274  43.057  0.00  0.00    +0.000 OA
ATOM      4  H   UNL     1     -42.286 -48.520  43.592  0.00  0.00    +0.000 HD
ENDBRANCH   1   3
TORSDOF 1
ENDMDL
MODEL 2
REMARK VINA RESULT:      -2.6     15.522     15.882
REMARK  Name = HydrogenPeroxide.pdbqt.pdb
REMARK  1 active torsions:
REMARK  status: ('A' for Active; 'I' for Inactive)
REMARK    1  A    between atoms: O_1  and  O_3
REMARK                            x       y       z     vdW  Elec       q    Type
REMARK                         _______ _______ _______ _____ _____    ______ ____
ROOT
ATOM      1  O   UNL     1     -42.218 -64.428  50.354  0.00  0.00    +0.000 OA
ATOM      2  H   UNL     1     -43.131 -64.405  50.699  0.00  0.00    +0.000 HD
ENDROOT
BRANCH   1   3
ATOM      3  O   UNL     1     -42.477 -63.688  49.130  0.00  0.00    +0.000 OA
ATOM      4  H   UNL     1     -42.834 -64.437  48.616  0.00  0.00    +0.000 HD
ENDBRANCH   1   3
TORSDOF 1
ENDMDL
MODEL 3
REMARK VINA RESULT:      -2.5     16.652     16.726
REMARK  Name = HydrogenPeroxide.pdbqt.pdb
REMARK  1 active torsions:
REMARK  status: ('A' for Active; 'I' for Inactive)
REMARK    1  A    between atoms: O_1  and  O_3
REMARK                            x       y       z     vdW  Elec       q    Type
REMARK                         _______ _______ _______ _____ _____    ______ ____
ROOT
ATOM      1  O   UNL     1     -33.114 -55.077  55.772  0.00  0.00    +0.000 OA
ATOM      2  H   UNL     1     -32.742 -55.227  54.882  0.00  0.00    +0.000 HD
ENDROOT
BRANCH   1   3
ATOM      3  O   UNL     1     -34.024 -56.210  55.770  0.00  0.00    +0.000 OA
ATOM      4  H   UNL     1     -33.875 -56.477  54.844  0.00  0.00    +0.000 HD
ENDBRANCH   1   3
TORSDOF 1
ENDMDL
MODEL 4
REMARK VINA RESULT:      -2.5     27.115     27.251
REMARK  Name = HydrogenPeroxide.pdbqt.pdb
REMARK  1 active torsions:
REMARK  status: ('A' for Active; 'I' for Inactive)
REMARK    1  A    between atoms: O_1  and  O_3
REMARK                            x       y       z     vdW  Elec       q    Type
REMARK                         _______ _______ _______ _____ _____    ______ ____
ROOT
ATOM      1  O   UNL     1     -38.390 -62.266  67.045  0.00  0.00    +0.000 OA
ATOM      2  H   UNL     1     -37.676 -61.747  66.629  0.00  0.00    +0.000 HD
ENDROOT
BRANCH   1   3
ATOM      3  O   UNL     1     -38.394 -63.355  66.083  0.00  0.00    +0.000 OA
ATOM      4  H   UNL     1     -39.009 -62.944  65.446  0.00  0.00    +0.000 HD
ENDBRANCH   1   3
TORSDOF 1
ENDMDL
MODEL 5
REMARK VINA RESULT:      -2.4     11.507     11.590
REMARK  Name = HydrogenPeroxide.pdbqt.pdb
REMARK  1 active torsions:
REMARK  status: ('A' for Active; 'I' for Inactive)
REMARK    1  A    between atoms: O_1  and  O_3
REMARK                            x       y       z     vdW  Elec       q    Type
REMARK                         _______ _______ _______ _____ _____    ______ ____
ROOT
ATOM      1  O   UNL     1     -39.373 -55.462  52.002  0.00  0.00    +0.000 OA
ATOM      2  H   UNL     1     -38.728 -54.730  52.053  0.00  0.00    +0.000 HD
ENDROOT
BRANCH   1   3
ATOM      3  O   UNL     1     -39.923 -55.301  53.337  0.00  0.00    +0.000 OA
ATOM      4  H   UNL     1     -39.222 -55.789  53.810  0.00  0.00    +0.000 HD
ENDBRANCH   1   3
TORSDOF 1
ENDMDL
MODEL 6
REMARK VINA RESULT:      -2.4     20.592     21.088
REMARK  Name = HydrogenPeroxide.pdbqt.pdb
REMARK  1 active torsions:
REMARK  status: ('A' for Active; 'I' for Inactive)
REMARK    1  A    between atoms: O_1  and  O_3
REMARK                            x       y       z     vdW  Elec       q    Type
REMARK                         _______ _______ _______ _____ _____    ______ ____
ROOT
ATOM      1  O   UNL     1     -61.016 -60.234  39.284  0.00  0.00    +0.000 OA
ATOM      2  H   UNL     1     -61.671 -59.516  39.371  0.00  0.00    +0.000 HD
ENDROOT
BRANCH   1   3
ATOM      3  O   UNL     1     -60.242 -59.906  40.469  0.00  0.00    +0.000 OA
ATOM      4  H   UNL     1     -60.069 -60.824  40.752  0.00  0.00    +0.000 HD
ENDBRANCH   1   3
TORSDOF 1
ENDMDL
MODEL 7
REMARK VINA RESULT:      -2.4     14.841     14.890
REMARK  Name = HydrogenPeroxide.pdbqt.pdb
REMARK  1 active torsions:
REMARK  status: ('A' for Active; 'I' for Inactive)
REMARK    1  A    between atoms: O_1  and  O_3
REMARK                            x       y       z     vdW  Elec       q    Type
REMARK                         _______ _______ _______ _____ _____    ______ ____
ROOT
ATOM      1  O   UNL     1     -35.545 -60.978  48.811  0.00  0.00    +0.000 OA
ATOM      2  H   UNL     1     -36.463 -60.822  48.519  0.00  0.00    +0.000 HD
ENDROOT
BRANCH   1   3
ATOM      3  O   UNL     1     -35.858 -61.323  50.187  0.00  0.00    +0.000 OA
ATOM      4  H   UNL     1     -35.005 -61.748  50.397  0.00  0.00    +0.000 HD
ENDBRANCH   1   3
TORSDOF 1
ENDMDL
MODEL 8
REMARK VINA RESULT:      -2.4     30.921     31.339
REMARK  Name = HydrogenPeroxide.pdbqt.pdb
REMARK  1 active torsions:
REMARK  status: ('A' for Active; 'I' for Inactive)
REMARK    1  A    between atoms: O_1  and  O_3
REMARK                            x       y       z     vdW  Elec       q    Type
REMARK                         _______ _______ _______ _____ _____    ______ ____
ROOT
ATOM      1  O   UNL     1     -62.252 -52.021  19.575  0.00  0.00    +0.000 OA
ATOM      2  H   UNL     1     -61.996 -51.885  18.643  0.00  0.00    +0.000 HD
ENDROOT
BRANCH   1   3
ATOM      3  O   UNL     1     -63.636 -52.386  19.321  0.00  0.00    +0.000 OA
ATOM      4  H   UNL     1     -63.693 -52.006  18.424  0.00  0.00    +0.000 HD
ENDBRANCH   1   3
TORSDOF 1
ENDMDL
MODEL 9
REMARK VINA RESULT:      -2.3     25.238     25.729
REMARK  Name = HydrogenPeroxide.pdbqt.pdb
REMARK  1 active torsions:
REMARK  status: ('A' for Active; 'I' for Inactive)
REMARK    1  A    between atoms: O_1  and  O_3
REMARK                            x       y       z     vdW  Elec       q    Type
REMARK                         _______ _______ _______ _____ _____    ______ ____
ROOT
ATOM      1  O   UNL     1     -63.706 -62.993  39.531  0.00  0.00    +0.000 OA
ATOM      2  H   UNL     1     -63.767 -62.132  39.074  0.00  0.00    +0.000 HD
ENDROOT
BRANCH   1   3
ATOM      3  O   UNL     1     -64.977 -62.905  40.231  0.00  0.00    +0.000 OA
ATOM      4  H   UNL     1     -64.631 -62.498  41.048  0.00  0.00    +0.000 HD
ENDBRANCH   1   3
TORSDOF 1
ENDMDL
