MODEL 1
REMARK VINA RESULT:      -5.7      0.000      0.000
REMARK  Name = Hyoscyamine.pdbqt.pdb
REMARK  6 active torsions:
REMARK  status: ('A' for Active; 'I' for Inactive)
REMARK    1  A    between atoms: C_2  and  O_3
REMARK    2  A    between atoms: C_2  and  C_13
REMARK    3  A    between atoms: O_3  and  C_4
REMARK    4  A    between atoms: C_13  and  C_14
REMARK    5  A    between atoms: C_13  and  C_20
REMARK    6  A    between atoms: C_20  and  O_21
REMARK                            x       y       z     vdW  Elec       q    Type
REMARK                         _______ _______ _______ _____ _____    ______ ____
ROOT
ATOM      1  O   UNL     1     -31.700 -45.347  52.728  0.00  0.00    +0.000 OA
ATOM      2  C   UNL     1     -32.807 -45.300  52.205  0.00  0.00    +0.000 C 
ENDROOT
BRANCH   2   3
ATOM      3  O   UNL     1     -33.210 -45.962  51.081  0.00  0.00    +0.000 OA
BRANCH   3   4
ATOM      4  C   UNL     1     -33.228 -47.348  51.244  0.00  0.00    +0.000 C 
ATOM      5  C   UNL     1     -33.586 -47.945  52.518  0.00  0.00    +0.000 C 
ATOM      6  C   UNL     1     -32.951 -49.104  53.157  0.00  0.00    +0.000 C 
ATOM      7  N   UNL     1     -31.452 -48.897  52.901  0.00  0.00    +0.000 NA
ATOM      8  C   UNL     1     -33.254 -50.359  52.491  0.00  0.00    +0.000 C 
ATOM      9  C   UNL     1     -31.464 -49.267  51.410  0.00  0.00    +0.000 C 
ATOM     10  C   UNL     1     -30.638 -49.840  53.682  0.00  0.00    +0.000 C 
ATOM     11  C   UNL     1     -32.267 -50.479  51.328  0.00  0.00    +0.000 C 
ATOM     12  C   UNL     1     -32.095 -48.110  50.757  0.00  0.00    +0.000 C 
ENDBRANCH   3   4
ENDBRANCH   2   3
BRANCH   2  13
ATOM     13  C   UNL     1     -33.912 -44.441  52.723  0.00  0.00    +0.000 C 
BRANCH  13  14
ATOM     14  C   UNL     1     -35.205 -44.265  52.037  0.00  0.00    +0.000 A 
ATOM     15  C   UNL     1     -36.200 -45.244  52.143  0.00  0.00    +0.000 A 
ATOM     16  C   UNL     1     -37.413 -45.109  51.470  0.00  0.00    +0.000 A 
ATOM     17  C   UNL     1     -37.644 -43.994  50.672  0.00  0.00    +0.000 A 
ATOM     18  C   UNL     1     -36.663 -43.016  50.547  0.00  0.00    +0.000 A 
ATOM     19  C   UNL     1     -35.451 -43.157  51.223  0.00  0.00    +0.000 A 
ENDBRANCH  13  14
BRANCH  13  20
ATOM     20  C   UNL     1     -33.703 -43.815  53.993  0.00  0.00    +0.000 C 
BRANCH  20  21
ATOM     21  O   UNL     1     -33.508 -43.234  55.172  0.00  0.00    +0.000 OA
ATOM     22  H   UNL     1     -32.731 -42.648  55.140  0.00  0.00    +0.000 HD
ENDBRANCH  20  21
ENDBRANCH  13  20
ENDBRANCH   2  13
TORSDOF 6
ENDMDL
MODEL 2
REMARK VINA RESULT:      -5.3      8.698     11.304
REMARK  Name = Hyoscyamine.pdbqt.pdb
REMARK  6 active torsions:
REMARK  status: ('A' for Active; 'I' for Inactive)
REMARK    1  A    between atoms: C_2  and  O_3
REMARK    2  A    between atoms: C_2  and  C_13
REMARK    3  A    between atoms: O_3  and  C_4
REMARK    4  A    between atoms: C_13  and  C_14
REMARK    5  A    between atoms: C_13  and  C_20
REMARK    6  A    between atoms: C_20  and  O_21
REMARK                            x       y       z     vdW  Elec       q    Type
REMARK                         _______ _______ _______ _____ _____    ______ ____
ROOT
ATOM      1  O   UNL     1     -41.744 -38.969  51.028  0.00  0.00    +0.000 OA
ATOM      2  C   UNL     1     -42.229 -40.022  50.633  0.00  0.00    +0.000 C 
ENDROOT
BRANCH   2   3
ATOM      3  O   UNL     1     -41.551 -41.123  50.199  0.00  0.00    +0.000 OA
BRANCH   3   4
ATOM      4  C   UNL     1     -41.073 -40.990  48.895  0.00  0.00    +0.000 C 
ATOM      5  C   UNL     1     -41.518 -41.887  47.843  0.00  0.00    +0.000 C 
ATOM      6  C   UNL     1     -40.691 -42.477  46.782  0.00  0.00    +0.000 C 
ATOM      7  N   UNL     1     -39.385 -42.858  47.494  0.00  0.00    +0.000 NA
ATOM      8  C   UNL     1     -40.279 -41.512  45.777  0.00  0.00    +0.000 C 
ATOM      9  C   UNL     1     -38.828 -41.433  47.636  0.00  0.00    +0.000 C 
ATOM     10  C   UNL     1     -38.527 -43.687  46.635  0.00  0.00    +0.000 C 
ATOM     11  C   UNL     1     -39.037 -40.814  46.334  0.00  0.00    +0.000 C 
ATOM     12  C   UNL     1     -39.646 -40.831  48.700  0.00  0.00    +0.000 C 
ENDBRANCH   3   4
ENDBRANCH   2   3
BRANCH   2  13
ATOM     13  C   UNL     1     -43.702 -40.246  50.528  0.00  0.00    +0.000 C 
BRANCH  13  14
ATOM     14  C   UNL     1     -44.584 -39.486  49.623  0.00  0.00    +0.000 A 
ATOM     15  C   UNL     1     -45.564 -38.633  50.143  0.00  0.00    +0.000 A 
ATOM     16  C   UNL     1     -46.429 -37.937  49.300  0.00  0.00    +0.000 A 
ATOM     17  C   UNL     1     -46.330 -38.094  47.922  0.00  0.00    +0.000 A 
ATOM     18  C   UNL     1     -45.369 -38.946  47.389  0.00  0.00    +0.000 A 
ATOM     19  C   UNL     1     -44.507 -39.639  48.237  0.00  0.00    +0.000 A 
ENDBRANCH  13  14
BRANCH  13  20
ATOM     20  C   UNL     1     -44.251 -41.308  51.314  0.00  0.00    +0.000 C 
BRANCH  20  21
ATOM     21  O   UNL     1     -44.761 -42.294  52.044  0.00  0.00    +0.000 OA
ATOM     22  H   UNL     1     -45.624 -42.034  52.414  0.00  0.00    +0.000 HD
ENDBRANCH  20  21
ENDBRANCH  13  20
ENDBRANCH   2  13
TORSDOF 6
ENDMDL
MODEL 3
REMARK VINA RESULT:      -5.2      5.816      8.467
REMARK  Name = Hyoscyamine.pdbqt.pdb
REMARK  6 active torsions:
REMARK  status: ('A' for Active; 'I' for Inactive)
REMARK    1  A    between atoms: C_2  and  O_3
REMARK    2  A    between atoms: C_2  and  C_13
REMARK    3  A    between atoms: O_3  and  C_4
REMARK    4  A    between atoms: C_13  and  C_14
REMARK    5  A    between atoms: C_13  and  C_20
REMARK    6  A    between atoms: C_20  and  O_21
REMARK                            x       y       z     vdW  Elec       q    Type
REMARK                         _______ _______ _______ _____ _____    ______ ____
ROOT
ATOM      1  O   UNL     1     -39.255 -39.907  48.759  0.00  0.00    +0.000 OA
ATOM      2  C   UNL     1     -39.912 -40.894  49.066  0.00  0.00    +0.000 C 
ENDROOT
BRANCH   2   3
ATOM      3  O   UNL     1     -39.587 -41.836  49.998  0.00  0.00    +0.000 OA
BRANCH   3   4
ATOM      4  C   UNL     1     -38.360 -42.451  49.747  0.00  0.00    +0.000 C 
ATOM      5  C   UNL     1     -38.290 -43.856  49.390  0.00  0.00    +0.000 C 
ATOM      6  C   UNL     1     -37.300 -44.835  49.858  0.00  0.00    +0.000 C 
ATOM      7  N   UNL     1     -37.118 -44.501  51.345  0.00  0.00    +0.000 NA
ATOM      8  C   UNL     1     -35.981 -44.630  49.285  0.00  0.00    +0.000 C 
ATOM      9  C   UNL     1     -36.294 -43.218  51.149  0.00  0.00    +0.000 C 
ATOM     10  C   UNL     1     -36.339 -45.539  52.038  0.00  0.00    +0.000 C 
ATOM     11  C   UNL     1     -35.302 -43.558  50.139  0.00  0.00    +0.000 C 
ATOM     12  C   UNL     1     -37.277 -42.228  50.684  0.00  0.00    +0.000 C 
ENDBRANCH   3   4
ENDBRANCH   2   3
BRANCH   2  13
ATOM     13  C   UNL     1     -41.203 -41.245  48.404  0.00  0.00    +0.000 C 
BRANCH  13  14
ATOM     14  C   UNL     1     -42.501 -40.647  48.769  0.00  0.00    +0.000 A 
ATOM     15  C   UNL     1     -43.076 -40.915  50.016  0.00  0.00    +0.000 A 
ATOM     16  C   UNL     1     -44.319 -40.385  50.361  0.00  0.00    +0.000 A 
ATOM     17  C   UNL     1     -45.008 -39.586  49.455  0.00  0.00    +0.000 A 
ATOM     18  C   UNL     1     -44.456 -39.318  48.207  0.00  0.00    +0.000 A 
ATOM     19  C   UNL     1     -43.213 -39.851  47.868  0.00  0.00    +0.000 A 
ENDBRANCH  13  14
BRANCH  13  20
ATOM     20  C   UNL     1     -41.140 -42.168  47.312  0.00  0.00    +0.000 C 
BRANCH  20  21
ATOM     21  O   UNL     1     -41.082 -43.025  46.298  0.00  0.00    +0.000 OA
ATOM     22  H   UNL     1     -41.852 -43.620  46.310  0.00  0.00    +0.000 HD
ENDBRANCH  20  21
ENDBRANCH  13  20
ENDBRANCH   2  13
TORSDOF 6
ENDMDL
MODEL 4
REMARK VINA RESULT:      -5.2     34.424     36.513
REMARK  Name = Hyoscyamine.pdbqt.pdb
REMARK  6 active torsions:
REMARK  status: ('A' for Active; 'I' for Inactive)
REMARK    1  A    between atoms: C_2  and  O_3
REMARK    2  A    between atoms: C_2  and  C_13
REMARK    3  A    between atoms: O_3  and  C_4
REMARK    4  A    between atoms: C_13  and  C_14
REMARK    5  A    between atoms: C_13  and  C_20
REMARK    6  A    between atoms: C_20  and  O_21
REMARK                            x       y       z     vdW  Elec       q    Type
REMARK                         _______ _______ _______ _____ _____    ______ ____
ROOT
ATOM      1  O   UNL     1     -47.760 -80.425  61.773  0.00  0.00    +0.000 OA
ATOM      2  C   UNL     1     -47.815 -79.497  60.975  0.00  0.00    +0.000 C 
ENDROOT
BRANCH   2   3
ATOM      3  O   UNL     1     -48.734 -79.326  59.981  0.00  0.00    +0.000 OA
BRANCH   3   4
ATOM      4  C   UNL     1     -49.700 -78.368  60.292  0.00  0.00    +0.000 C 
ATOM      5  C   UNL     1     -50.642 -78.584  61.375  0.00  0.00    +0.000 C 
ATOM      6  C   UNL     1     -52.073 -78.253  61.376  0.00  0.00    +0.000 C 
ATOM      7  N   UNL     1     -52.550 -78.648  59.972  0.00  0.00    +0.000 NA
ATOM      8  C   UNL     1     -52.327 -76.824  61.448  0.00  0.00    +0.000 C 
ATOM      9  C   UNL     1     -51.907 -77.473  59.219  0.00  0.00    +0.000 C 
ATOM     10  C   UNL     1     -54.016 -78.613  59.872  0.00  0.00    +0.000 C 
ATOM     11  C   UNL     1     -52.223 -76.296  60.016  0.00  0.00    +0.000 C 
ATOM     12  C   UNL     1     -50.472 -77.795  59.207  0.00  0.00    +0.000 C 
ENDBRANCH   3   4
ENDBRANCH   2   3
BRANCH   2  13
ATOM     13  C   UNL     1     -46.814 -78.389  60.951  0.00  0.00    +0.000 C 
BRANCH  13  14
ATOM     14  C   UNL     1     -46.487 -77.555  62.122  0.00  0.00    +0.000 A 
ATOM     15  C   UNL     1     -45.166 -77.161  62.362  0.00  0.00    +0.000 A 
ATOM     16  C   UNL     1     -44.836 -76.403  63.485  0.00  0.00    +0.000 A 
ATOM     17  C   UNL     1     -45.827 -76.036  64.389  0.00  0.00    +0.000 A 
ATOM     18  C   UNL     1     -47.143 -76.428  64.172  0.00  0.00    +0.000 A 
ATOM     19  C   UNL     1     -47.467 -77.186  63.047  0.00  0.00    +0.000 A 
ENDBRANCH  13  14
BRANCH  13  20
ATOM     20  C   UNL     1     -46.099 -78.191  59.728  0.00  0.00    +0.000 C 
BRANCH  20  21
ATOM     21  O   UNL     1     -45.435 -78.006  58.592  0.00  0.00    +0.000 OA
ATOM     22  H   UNL     1     -44.476 -78.087  58.740  0.00  0.00    +0.000 HD
ENDBRANCH  20  21
ENDBRANCH  13  20
ENDBRANCH   2  13
TORSDOF 6
ENDMDL
MODEL 5
REMARK VINA RESULT:      -5.1      7.711     11.280
REMARK  Name = Hyoscyamine.pdbqt.pdb
REMARK  6 active torsions:
REMARK  status: ('A' for Active; 'I' for Inactive)
REMARK    1  A    between atoms: C_2  and  O_3
REMARK    2  A    between atoms: C_2  and  C_13
REMARK    3  A    between atoms: O_3  and  C_4
REMARK    4  A    between atoms: C_13  and  C_14
REMARK    5  A    between atoms: C_13  and  C_20
REMARK    6  A    between atoms: C_20  and  O_21
REMARK                            x       y       z     vdW  Elec       q    Type
REMARK                         _______ _______ _______ _____ _____    ______ ____
ROOT
ATOM      1  O   UNL     1     -41.271 -39.312  48.396  0.00  0.00    +0.000 OA
ATOM      2  C   UNL     1     -41.488 -40.481  48.102  0.00  0.00    +0.000 C 
ENDROOT
BRANCH   2   3
ATOM      3  O   UNL     1     -42.658 -41.163  48.271  0.00  0.00    +0.000 OA
BRANCH   3   4
ATOM      4  C   UNL     1     -43.124 -41.127  49.585  0.00  0.00    +0.000 C 
ATOM      5  C   UNL     1     -44.153 -40.183  49.985  0.00  0.00    +0.000 C 
ATOM      6  C   UNL     1     -44.206 -39.419  51.238  0.00  0.00    +0.000 C 
ATOM      7  N   UNL     1     -42.754 -38.981  51.471  0.00  0.00    +0.000 NA
ATOM      8  C   UNL     1     -44.519 -40.241  52.395  0.00  0.00    +0.000 C 
ATOM      9  C   UNL     1     -42.213 -40.352  51.907  0.00  0.00    +0.000 C 
ATOM     10  C   UNL     1     -42.658 -37.995  52.558  0.00  0.00    +0.000 C 
ATOM     11  C   UNL     1     -43.198 -40.863  52.850  0.00  0.00    +0.000 C 
ATOM     12  C   UNL     1     -42.151 -41.127  50.659  0.00  0.00    +0.000 C 
ENDBRANCH   3   4
ENDBRANCH   2   3
BRANCH   2  13
ATOM     13  C   UNL     1     -40.444 -41.378  47.526  0.00  0.00    +0.000 C 
BRANCH  13  14
ATOM     14  C   UNL     1     -39.503 -42.170  48.340  0.00  0.00    +0.000 A 
ATOM     15  C   UNL     1     -39.222 -43.499  48.003  0.00  0.00    +0.000 A 
ATOM     16  C   UNL     1     -38.363 -44.270  48.784  0.00  0.00    +0.000 A 
ATOM     17  C   UNL     1     -37.781 -43.724  49.922  0.00  0.00    +0.000 A 
ATOM     18  C   UNL     1     -38.057 -42.408  50.278  0.00  0.00    +0.000 A 
ATOM     19  C   UNL     1     -38.917 -41.641  49.493  0.00  0.00    +0.000 A 
ENDBRANCH  13  14
BRANCH  13  20
ATOM     20  C   UNL     1     -40.418 -41.510  46.101  0.00  0.00    +0.000 C 
BRANCH  20  21
ATOM     21  O   UNL     1     -40.395 -41.631  44.778  0.00  0.00    +0.000 OA
ATOM     22  H   UNL     1     -40.564 -42.554  44.517  0.00  0.00    +0.000 HD
ENDBRANCH  20  21
ENDBRANCH  13  20
ENDBRANCH   2  13
TORSDOF 6
ENDMDL
MODEL 6
REMARK VINA RESULT:      -5.1      7.864     10.578
REMARK  Name = Hyoscyamine.pdbqt.pdb
REMARK  6 active torsions:
REMARK  status: ('A' for Active; 'I' for Inactive)
REMARK    1  A    between atoms: C_2  and  O_3
REMARK    2  A    between atoms: C_2  and  C_13
REMARK    3  A    between atoms: O_3  and  C_4
REMARK    4  A    between atoms: C_13  and  C_14
REMARK    5  A    between atoms: C_13  and  C_20
REMARK    6  A    between atoms: C_20  and  O_21
REMARK                            x       y       z     vdW  Elec       q    Type
REMARK                         _______ _______ _______ _____ _____    ______ ____
ROOT
ATOM      1  O   UNL     1     -39.289 -40.788  44.048  0.00  0.00    +0.000 OA
ATOM      2  C   UNL     1     -38.456 -41.674  43.899  0.00  0.00    +0.000 C 
ENDROOT
BRANCH   2   3
ATOM      3  O   UNL     1     -38.278 -42.772  44.689  0.00  0.00    +0.000 OA
BRANCH   3   4
ATOM      4  C   UNL     1     -38.328 -42.475  46.052  0.00  0.00    +0.000 C 
ATOM      5  C   UNL     1     -37.122 -42.136  46.786  0.00  0.00    +0.000 C 
ATOM      6  C   UNL     1     -36.764 -42.574  48.141  0.00  0.00    +0.000 C 
ATOM      7  N   UNL     1     -37.195 -44.046  48.185  0.00  0.00    +0.000 NA
ATOM      8  C   UNL     1     -37.564 -41.939  49.175  0.00  0.00    +0.000 C 
ATOM      9  C   UNL     1     -38.709 -43.795  48.274  0.00  0.00    +0.000 C 
ATOM     10  C   UNL     1     -36.691 -44.718  49.392  0.00  0.00    +0.000 C 
ATOM     11  C   UNL     1     -38.859 -42.747  49.273  0.00  0.00    +0.000 C 
ATOM     12  C   UNL     1     -39.081 -43.359  46.919  0.00  0.00    +0.000 C 
ENDBRANCH   3   4
ENDBRANCH   2   3
BRANCH   2  13
ATOM     13  C   UNL     1     -37.444 -41.657  42.801  0.00  0.00    +0.000 C 
BRANCH  13  14
ATOM     14  C   UNL     1     -37.790 -41.651  41.367  0.00  0.00    +0.000 A 
ATOM     15  C   UNL     1     -39.107 -41.885  40.958  0.00  0.00    +0.000 A 
ATOM     16  C   UNL     1     -39.442 -41.919  39.605  0.00  0.00    +0.000 A 
ATOM     17  C   UNL     1     -38.458 -41.726  38.641  0.00  0.00    +0.000 A 
ATOM     18  C   UNL     1     -37.142 -41.502  39.030  0.00  0.00    +0.000 A 
ATOM     19  C   UNL     1     -36.813 -41.470  40.385  0.00  0.00    +0.000 A 
ENDBRANCH  13  14
BRANCH  13  20
ATOM     20  C   UNL     1     -36.070 -41.577  43.190  0.00  0.00    +0.000 C 
BRANCH  20  21
ATOM     21  O   UNL     1     -34.793 -41.501  43.551  0.00  0.00    +0.000 OA
ATOM     22  H   UNL     1     -34.481 -40.580  43.513  0.00  0.00    +0.000 HD
ENDBRANCH  20  21
ENDBRANCH  13  20
ENDBRANCH   2  13
TORSDOF 6
ENDMDL
MODEL 7
REMARK VINA RESULT:      -5.1     13.446     16.765
REMARK  Name = Hyoscyamine.pdbqt.pdb
REMARK  6 active torsions:
REMARK  status: ('A' for Active; 'I' for Inactive)
REMARK    1  A    between atoms: C_2  and  O_3
REMARK    2  A    between atoms: C_2  and  C_13
REMARK    3  A    between atoms: O_3  and  C_4
REMARK    4  A    between atoms: C_13  and  C_14
REMARK    5  A    between atoms: C_13  and  C_20
REMARK    6  A    between atoms: C_20  and  O_21
REMARK                            x       y       z     vdW  Elec       q    Type
REMARK                         _______ _______ _______ _____ _____    ______ ____
ROOT
ATOM      1  O   UNL     1     -49.484 -37.342  50.064  0.00  0.00    +0.000 OA
ATOM      2  C   UNL     1     -49.106 -37.402  51.227  0.00  0.00    +0.000 C 
ENDROOT
BRANCH   2   3
ATOM      3  O   UNL     1     -47.844 -37.167  51.690  0.00  0.00    +0.000 OA
BRANCH   3   4
ATOM      4  C   UNL     1     -47.008 -38.279  51.582  0.00  0.00    +0.000 C 
ATOM      5  C   UNL     1     -46.399 -38.871  52.759  0.00  0.00    +0.000 C 
ATOM      6  C   UNL     1     -45.026 -39.379  52.879  0.00  0.00    +0.000 C 
ATOM      7  N   UNL     1     -44.178 -38.349  52.121  0.00  0.00    +0.000 NA
ATOM      8  C   UNL     1     -44.812 -40.619  52.152  0.00  0.00    +0.000 C 
ATOM      9  C   UNL     1     -44.598 -38.769  50.703  0.00  0.00    +0.000 C 
ATOM     10  C   UNL     1     -42.741 -38.566  52.343  0.00  0.00    +0.000 C 
ATOM     11  C   UNL     1     -44.522 -40.223  50.703  0.00  0.00    +0.000 C 
ATOM     12  C   UNL     1     -45.972 -38.261  50.569  0.00  0.00    +0.000 C 
ENDBRANCH   3   4
ENDBRANCH   2   3
BRANCH   2  13
ATOM     13  C   UNL     1     -50.005 -37.797  52.352  0.00  0.00    +0.000 C 
BRANCH  13  14
ATOM     14  C   UNL     1     -49.927 -37.217  53.706  0.00  0.00    +0.000 A 
ATOM     15  C   UNL     1     -50.327 -35.896  53.932  0.00  0.00    +0.000 A 
ATOM     16  C   UNL     1     -50.225 -35.323  55.199  0.00  0.00    +0.000 A 
ATOM     17  C   UNL     1     -49.711 -36.065  56.257  0.00  0.00    +0.000 A 
ATOM     18  C   UNL     1     -49.299 -37.376  56.047  0.00  0.00    +0.000 A 
ATOM     19  C   UNL     1     -49.403 -37.944  54.778  0.00  0.00    +0.000 A 
ENDBRANCH  13  14
BRANCH  13  20
ATOM     20  C   UNL     1     -51.033 -38.746  52.055  0.00  0.00    +0.000 C 
BRANCH  20  21
ATOM     21  O   UNL     1     -51.988 -39.627  51.778  0.00  0.00    +0.000 OA
ATOM     22  H   UNL     1     -52.008 -39.821  50.824  0.00  0.00    +0.000 HD
ENDBRANCH  20  21
ENDBRANCH  13  20
ENDBRANCH   2  13
TORSDOF 6
ENDMDL
MODEL 8
REMARK VINA RESULT:      -5.0     19.706     21.514
REMARK  Name = Hyoscyamine.pdbqt.pdb
REMARK  6 active torsions:
REMARK  status: ('A' for Active; 'I' for Inactive)
REMARK    1  A    between atoms: C_2  and  O_3
REMARK    2  A    between atoms: C_2  and  C_13
REMARK    3  A    between atoms: O_3  and  C_4
REMARK    4  A    between atoms: C_13  and  C_14
REMARK    5  A    between atoms: C_13  and  C_20
REMARK    6  A    between atoms: C_20  and  O_21
REMARK                            x       y       z     vdW  Elec       q    Type
REMARK                         _______ _______ _______ _____ _____    ______ ____
ROOT
ATOM      1  O   UNL     1     -46.077 -45.075  71.636  0.00  0.00    +0.000 OA
ATOM      2  C   UNL     1     -45.363 -45.610  70.797  0.00  0.00    +0.000 C 
ENDROOT
BRANCH   2   3
ATOM      3  O   UNL     1     -44.407 -45.007  70.031  0.00  0.00    +0.000 OA
BRANCH   3   4
ATOM      4  C   UNL     1     -43.268 -44.659  70.757  0.00  0.00    +0.000 C 
ATOM      5  C   UNL     1     -43.024 -43.281  71.144  0.00  0.00    +0.000 C 
ATOM      6  C   UNL     1     -41.735 -42.576  71.124  0.00  0.00    +0.000 C 
ATOM      7  N   UNL     1     -41.073 -43.044  69.821  0.00  0.00    +0.000 NA
ATOM      8  C   UNL     1     -40.825 -43.024  72.165  0.00  0.00    +0.000 C 
ATOM      9  C   UNL     1     -40.705 -44.459  70.296  0.00  0.00    +0.000 C 
ATOM     10  C   UNL     1     -39.873 -42.252  69.512  0.00  0.00    +0.000 C 
ATOM     11  C   UNL     1     -40.131 -44.274  71.622  0.00  0.00    +0.000 C 
ATOM     12  C   UNL     1     -41.989 -45.177  70.316  0.00  0.00    +0.000 C 
ENDBRANCH   3   4
ENDBRANCH   2   3
BRANCH   2  13
ATOM     13  C   UNL     1     -45.469 -47.058  70.447  0.00  0.00    +0.000 C 
BRANCH  13  14
ATOM     14  C   UNL     1     -46.601 -47.641  69.703  0.00  0.00    +0.000 A 
ATOM     15  C   UNL     1     -47.209 -46.924  68.667  0.00  0.00    +0.000 A 
ATOM     16  C   UNL     1     -48.302 -47.447  67.979  0.00  0.00    +0.000 A 
ATOM     17  C   UNL     1     -48.810 -48.694  68.327  0.00  0.00    +0.000 A 
ATOM     18  C   UNL     1     -48.224 -49.416  69.361  0.00  0.00    +0.000 A 
ATOM     19  C   UNL     1     -47.131 -48.887  70.046  0.00  0.00    +0.000 A 
ENDBRANCH  13  14
BRANCH  13  20
ATOM     20  C   UNL     1     -44.365 -47.893  70.810  0.00  0.00    +0.000 C 
BRANCH  20  21
ATOM     21  O   UNL     1     -43.340 -48.668  71.147  0.00  0.00    +0.000 OA
ATOM     22  H   UNL     1     -42.520 -48.146  71.200  0.00  0.00    +0.000 HD
ENDBRANCH  20  21
ENDBRANCH  13  20
ENDBRANCH   2  13
TORSDOF 6
ENDMDL
MODEL 9
REMARK VINA RESULT:      -5.0     23.431     24.714
REMARK  Name = Hyoscyamine.pdbqt.pdb
REMARK  6 active torsions:
REMARK  status: ('A' for Active; 'I' for Inactive)
REMARK    1  A    between atoms: C_2  and  O_3
REMARK    2  A    between atoms: C_2  and  C_13
REMARK    3  A    between atoms: O_3  and  C_4
REMARK    4  A    between atoms: C_13  and  C_14
REMARK    5  A    between atoms: C_13  and  C_20
REMARK    6  A    between atoms: C_20  and  O_21
REMARK                            x       y       z     vdW  Elec       q    Type
REMARK                         _______ _______ _______ _____ _____    ______ ____
ROOT
ATOM      1  O   UNL     1     -46.910 -47.291  73.068  0.00  0.00    +0.000 OA
ATOM      2  C   UNL     1     -46.077 -48.087  72.652  0.00  0.00    +0.000 C 
ENDROOT
BRANCH   2   3
ATOM      3  O   UNL     1     -45.365 -48.987  73.390  0.00  0.00    +0.000 OA
BRANCH   3   4
ATOM      4  C   UNL     1     -46.170 -49.948  74.001  0.00  0.00    +0.000 C 
ATOM      5  C   UNL     1     -47.279 -50.555  73.287  0.00  0.00    +0.000 C 
ATOM      6  C   UNL     1     -48.610 -50.865  73.827  0.00  0.00    +0.000 C 
ATOM      7  N   UNL     1     -48.948 -49.652  74.705  0.00  0.00    +0.000 NA
ATOM      8  C   UNL     1     -48.602 -51.983  74.754  0.00  0.00    +0.000 C 
ATOM      9  C   UNL     1     -47.999 -49.991  75.865  0.00  0.00    +0.000 C 
ATOM     10  C   UNL     1     -50.354 -49.676  75.136  0.00  0.00    +0.000 C 
ATOM     11  C   UNL     1     -48.201 -51.411  76.115  0.00  0.00    +0.000 C 
ATOM     12  C   UNL     1     -46.662 -49.681  75.338  0.00  0.00    +0.000 C 
ENDBRANCH   3   4
ENDBRANCH   2   3
BRANCH   2  13
ATOM     13  C   UNL     1     -45.677 -48.163  71.215  0.00  0.00    +0.000 C 
BRANCH  13  14
ATOM     14  C   UNL     1     -46.628 -48.060  70.093  0.00  0.00    +0.000 A 
ATOM     15  C   UNL     1     -46.687 -46.894  69.321  0.00  0.00    +0.000 A 
ATOM     16  C   UNL     1     -47.606 -46.770  68.280  0.00  0.00    +0.000 A 
ATOM     17  C   UNL     1     -48.486 -47.810  68.003  0.00  0.00    +0.000 A 
ATOM     18  C   UNL     1     -48.448 -48.972  68.766  0.00  0.00    +0.000 A 
ATOM     19  C   UNL     1     -47.527 -49.090  69.806  0.00  0.00    +0.000 A 
ENDBRANCH  13  14
BRANCH  13  20
ATOM     20  C   UNL     1     -44.278 -48.276  70.939  0.00  0.00    +0.000 C 
BRANCH  20  21
ATOM     21  O   UNL     1     -42.978 -48.380  70.683  0.00  0.00    +0.000 OA
ATOM     22  H   UNL     1     -42.827 -48.502  69.730  0.00  0.00    +0.000 HD
ENDBRANCH  20  21
ENDBRANCH  13  20
ENDBRANCH   2  13
TORSDOF 6
ENDMDL
