MODEL 1
REMARK VINA RESULT:      -7.3      0.000      0.000
REMARK  Name = 
REMARK  21 active torsions:
REMARK  status: ('A' for Active; 'I' for Inactive)
REMARK    1  A    between atoms: O_3  and  C_22
REMARK    2  A    between atoms: O_3  and  C_28
REMARK    3  A    between atoms: O_4  and  C_25
REMARK    4  A    between atoms: O_4  and  C_30
REMARK    5  A    between atoms: O_5  and  C_16
REMARK    6  A    between atoms: O_6  and  C_17
REMARK    7  A    between atoms: O_7  and  C_18
REMARK    8  A    between atoms: O_8  and  C_20
REMARK    9  A    between atoms: O_9  and  C_21
REMARK   10  A    between atoms: O_10  and  C_23
REMARK   11  A    between atoms: O_11  and  C_26
REMARK   12  A    between atoms: O_13  and  C_36
REMARK   13  A    between atoms: O_15  and  C_45
REMARK   14  A    between atoms: O_15  and  C_48
REMARK   15  A    between atoms: C_19  and  C_26
REMARK   16  A    between atoms: C_24  and  C_27
REMARK   17  A    between atoms: C_29  and  C_37
REMARK   18  A    between atoms: C_35  and  C_38
REMARK   19  A    between atoms: C_37  and  C_39
REMARK   20  A    between atoms: C_42  and  C_46
REMARK   21  A    between atoms: C_42  and  C_47
REMARK                            x       y       z     vdW  Elec       q    Type
REMARK                         _______ _______ _______ _____ _____    ______ ____
ROOT
ATOM      1  O   UNL     1     -31.215 -47.335  53.155  0.00  0.00    +0.000 OA
ATOM      2  O   UNL     1     -34.942 -48.657  52.233  0.00  0.00    +0.000 OA
ATOM      3  C   UNL     1     -30.646 -50.939  53.428  0.00  0.00    +0.000 A 
ATOM      4  C   UNL     1     -30.404 -49.553  53.441  0.00  0.00    +0.000 A 
ATOM      5  C   UNL     1     -33.502 -46.798  52.584  0.00  0.00    +0.000 A 
ATOM      6  C   UNL     1     -31.472 -48.685  53.138  0.00  0.00    +0.000 A 
ATOM      7  C   UNL     1     -32.734 -49.190  52.823  0.00  0.00    +0.000 A 
ATOM      8  C   UNL     1     -33.819 -48.247  52.525  0.00  0.00    +0.000 A 
ATOM      9  C   UNL     1     -31.900 -51.445  53.073  0.00  0.00    +0.000 A 
ATOM     10  C   UNL     1     -32.248 -46.447  52.921  0.00  0.00    +0.000 A 
ATOM     11  C   UNL     1     -32.943 -50.571  52.787  0.00  0.00    +0.000 A 
ENDROOT
BRANCH  10  12
ATOM     12  C   UNL     1     -31.830 -45.041  53.032  0.00  0.00    +0.000 A 
ATOM     13  C   UNL     1     -32.401 -44.219  54.010  0.00  0.00    +0.000 A 
ATOM     14  C   UNL     1     -30.874 -44.498  52.165  0.00  0.00    +0.000 A 
ATOM     15  C   UNL     1     -32.007 -42.884  54.125  0.00  0.00    +0.000 A 
ATOM     16  C   UNL     1     -30.478 -43.161  52.284  0.00  0.00    +0.000 A 
ATOM     17  C   UNL     1     -31.040 -42.349  53.270  0.00  0.00    +0.000 A 
BRANCH  17  18
ATOM     18  O   UNL     1     -30.742 -41.034  53.495  0.00  0.00    +0.000 OA
ATOM     19  C   UNL     1     -29.989 -40.737  54.664  0.00  0.00    +0.000 C 
ENDBRANCH  17  18
ENDBRANCH  10  12
BRANCH  11  20
ATOM     20  O   UNL     1     -34.145 -51.140  52.466  0.00  0.00    +0.000 OA
ATOM     21  H   UNL     1     -34.840 -50.447  52.522  0.00  0.00    +0.000 HD
ENDBRANCH  11  20
BRANCH   4  22
ATOM     22  C   UNL     1     -29.044 -48.993  53.810  0.00  0.00    +0.000 C 
BRANCH  22  23
ATOM     23  C   UNL     1     -28.254 -48.562  52.601  0.00  0.00    +0.000 C 
ATOM     24  C   UNL     1     -27.718 -47.355  52.331  0.00  0.00    +0.000 C 
ATOM     25  C   UNL     1     -27.796 -46.144  53.219  0.00  0.00    +0.000 C 
ATOM     26  C   UNL     1     -26.955 -47.132  51.052  0.00  0.00    +0.000 C 
ENDBRANCH  22  23
ENDBRANCH   4  22
BRANCH   5  27
ATOM     27  O   UNL     1     -34.510 -45.875  52.372  0.00  0.00    +0.000 OA
BRANCH  27  33
ATOM     28  O   UNL     1     -34.033 -44.576  50.449  0.00  0.00    +0.000 OA
ATOM     29  C   UNL     1     -36.722 -44.106  51.381  0.00  0.00    +0.000 C 
ATOM     30  C   UNL     1     -35.849 -42.974  50.823  0.00  0.00    +0.000 C 
ATOM     31  C   UNL     1     -36.308 -45.458  50.801  0.00  0.00    +0.000 C 
ATOM     32  C   UNL     1     -34.368 -43.310  51.034  0.00  0.00    +0.000 C 
ATOM     33  C   UNL     1     -34.790 -45.673  50.982  0.00  0.00    +0.000 C 
ATOM     34  C   UNL     1     -33.461 -42.260  50.399  0.00  0.00    +0.000 C 
BRANCH  29  35
ATOM     35  O   UNL     1     -38.094 -43.824  51.051  0.00  0.00    +0.000 OA
ATOM     36  H   UNL     1     -38.453 -43.366  51.840  0.00  0.00    +0.000 HD
ENDBRANCH  29  35
BRANCH  30  37
ATOM     37  O   UNL     1     -36.202 -41.751  51.481  0.00  0.00    +0.000 OA
ATOM     38  H   UNL     1     -35.438 -41.538  52.054  0.00  0.00    +0.000 HD
ENDBRANCH  30  37
BRANCH  31  39
ATOM     39  O   UNL     1     -36.701 -45.474  49.413  0.00  0.00    +0.000 OA
ATOM     40  H   UNL     1     -37.308 -46.229  49.294  0.00  0.00    +0.000 HD
ENDBRANCH  31  39
ENDBRANCH  27  33
ENDBRANCH   5  27
BRANCH   3  41
ATOM     41  O   UNL     1     -29.608 -51.803  53.669  0.00  0.00    +0.000 OA
BRANCH  41  47
ATOM     42  O   UNL     1     -30.720 -52.305  55.696  0.00  0.00    +0.000 OA
ATOM     43  C   UNL     1     -28.903 -54.446  56.219  0.00  0.00    +0.000 C 
ATOM     44  C   UNL     1     -29.826 -53.889  57.306  0.00  0.00    +0.000 C 
ATOM     45  C   UNL     1     -28.625 -53.396  55.145  0.00  0.00    +0.000 C 
ATOM     46  C   UNL     1     -31.090 -53.310  56.656  0.00  0.00    +0.000 C 
ATOM     47  C   UNL     1     -29.958 -52.836  54.613  0.00  0.00    +0.000 C 
BRANCH  44  48
ATOM     48  O   UNL     1     -30.144 -54.933  58.229  0.00  0.00    +0.000 OA
ATOM     49  H   UNL     1     -29.443 -54.891  58.913  0.00  0.00    +0.000 HD
ENDBRANCH  44  48
BRANCH  45  50
ATOM     50  O   UNL     1     -27.842 -54.004  54.105  0.00  0.00    +0.000 OA
ATOM     51  H   UNL     1     -27.615 -53.283  53.484  0.00  0.00    +0.000 HD
ENDBRANCH  45  50
BRANCH  43  52
ATOM     52  O   UNL     1     -27.674 -54.876  56.826  0.00  0.00    +0.000 OA
ATOM     53  H   UNL     1     -27.328 -55.574  56.234  0.00  0.00    +0.000 HD
ENDBRANCH  43  52
BRANCH  46  54
ATOM     54  C   UNL     1     -32.006 -52.665  57.705  0.00  0.00    +0.000 C 
BRANCH  54  55
ATOM     55  O   UNL     1     -31.221 -51.930  58.646  0.00  0.00    +0.000 OA
ATOM     56  H   UNL     1     -31.405 -52.307  59.523  0.00  0.00    +0.000 HD
ENDBRANCH  54  55
ENDBRANCH  46  54
ENDBRANCH  41  47
ENDBRANCH   3  41
TORSDOF 17
ENDMDL
MODEL 2
REMARK VINA RESULT:      -7.0      5.784     13.295
REMARK  Name = 
REMARK  21 active torsions:
REMARK  status: ('A' for Active; 'I' for Inactive)
REMARK    1  A    between atoms: O_3  and  C_22
REMARK    2  A    between atoms: O_3  and  C_28
REMARK    3  A    between atoms: O_4  and  C_25
REMARK    4  A    between atoms: O_4  and  C_30
REMARK    5  A    between atoms: O_5  and  C_16
REMARK    6  A    between atoms: O_6  and  C_17
REMARK    7  A    between atoms: O_7  and  C_18
REMARK    8  A    between atoms: O_8  and  C_20
REMARK    9  A    between atoms: O_9  and  C_21
REMARK   10  A    between atoms: O_10  and  C_23
REMARK   11  A    between atoms: O_11  and  C_26
REMARK   12  A    between atoms: O_13  and  C_36
REMARK   13  A    between atoms: O_15  and  C_45
REMARK   14  A    between atoms: O_15  and  C_48
REMARK   15  A    between atoms: C_19  and  C_26
REMARK   16  A    between atoms: C_24  and  C_27
REMARK   17  A    between atoms: C_29  and  C_37
REMARK   18  A    between atoms: C_35  and  C_38
REMARK   19  A    between atoms: C_37  and  C_39
REMARK   20  A    between atoms: C_42  and  C_46
REMARK   21  A    between atoms: C_42  and  C_47
REMARK                            x       y       z     vdW  Elec       q    Type
REMARK                         _______ _______ _______ _____ _____    ______ ____
ROOT
ATOM      1  O   UNL     1     -36.334 -43.574  48.240  0.00  0.00    +0.000 OA
ATOM      2  O   UNL     1     -33.327 -40.874  47.857  0.00  0.00    +0.000 OA
ATOM      3  C   UNL     1     -37.557 -41.741  45.319  0.00  0.00    +0.000 A 
ATOM      4  C   UNL     1     -37.491 -42.684  46.361  0.00  0.00    +0.000 A 
ATOM      5  C   UNL     1     -34.247 -42.692  49.082  0.00  0.00    +0.000 A 
ATOM      6  C   UNL     1     -36.381 -42.644  47.230  0.00  0.00    +0.000 A 
ATOM      7  C   UNL     1     -35.371 -41.698  47.052  0.00  0.00    +0.000 A 
ATOM      8  C   UNL     1     -34.240 -41.687  47.989  0.00  0.00    +0.000 A 
ATOM      9  C   UNL     1     -36.524 -40.820  45.118  0.00  0.00    +0.000 A 
ATOM     10  C   UNL     1     -35.295 -43.533  49.150  0.00  0.00    +0.000 A 
ATOM     11  C   UNL     1     -35.443 -40.791  45.992  0.00  0.00    +0.000 A 
ENDROOT
BRANCH  10  12
ATOM     12  C   UNL     1     -35.416 -44.552  50.204  0.00  0.00    +0.000 A 
ATOM     13  C   UNL     1     -34.424 -45.528  50.348  0.00  0.00    +0.000 A 
ATOM     14  C   UNL     1     -36.518 -44.575  51.067  0.00  0.00    +0.000 A 
ATOM     15  C   UNL     1     -34.529 -46.496  51.349  0.00  0.00    +0.000 A 
ATOM     16  C   UNL     1     -36.620 -45.544  52.071  0.00  0.00    +0.000 A 
ATOM     17  C   UNL     1     -35.621 -46.507  52.220  0.00  0.00    +0.000 A 
BRANCH  17  18
ATOM     18  O   UNL     1     -35.596 -47.503  53.155  0.00  0.00    +0.000 OA
ATOM     19  C   UNL     1     -34.425 -48.308  53.205  0.00  0.00    +0.000 C 
ENDBRANCH  17  18
ENDBRANCH  10  12
BRANCH  11  20
ATOM     20  O   UNL     1     -34.482 -39.850  45.743  0.00  0.00    +0.000 OA
ATOM     21  H   UNL     1     -34.326 -39.341  46.569  0.00  0.00    +0.000 HD
ENDBRANCH  11  20
BRANCH   4  22
ATOM     22  C   UNL     1     -38.598 -43.698  46.580  0.00  0.00    +0.000 C 
BRANCH  22  23
ATOM     23  C   UNL     1     -39.916 -43.046  46.906  0.00  0.00    +0.000 C 
ATOM     24  C   UNL     1     -40.278 -42.391  48.027  0.00  0.00    +0.000 C 
ATOM     25  C   UNL     1     -39.403 -42.162  49.228  0.00  0.00    +0.000 C 
ATOM     26  C   UNL     1     -41.660 -41.805  48.153  0.00  0.00    +0.000 C 
ENDBRANCH  22  23
ENDBRANCH   4  22
BRANCH   5  27
ATOM     27  O   UNL     1     -33.234 -42.676  50.023  0.00  0.00    +0.000 OA
BRANCH  27  33
ATOM     28  O   UNL     1     -32.028 -41.198  51.429  0.00  0.00    +0.000 OA
ATOM     29  C   UNL     1     -33.749 -42.926  52.969  0.00  0.00    +0.000 C 
ATOM     30  C   UNL     1     -32.350 -42.532  53.459  0.00  0.00    +0.000 C 
ATOM     31  C   UNL     1     -34.323 -41.864  52.031  0.00  0.00    +0.000 C 
ATOM     32  C   UNL     1     -31.450 -42.216  52.258  0.00  0.00    +0.000 C 
ATOM     33  C   UNL     1     -33.317 -41.549  50.904  0.00  0.00    +0.000 C 
ATOM     34  C   UNL     1     -30.079 -41.717  52.704  0.00  0.00    +0.000 C 
BRANCH  29  35
ATOM     35  O   UNL     1     -34.602 -43.086  54.117  0.00  0.00    +0.000 OA
ATOM     36  H   UNL     1     -35.258 -43.765  53.850  0.00  0.00    +0.000 HD
ENDBRANCH  29  35
BRANCH  30  37
ATOM     37  O   UNL     1     -31.814 -43.607  54.240  0.00  0.00    +0.000 OA
ATOM     38  H   UNL     1     -30.996 -43.250  54.641  0.00  0.00    +0.000 HD
ENDBRANCH  30  37
BRANCH  31  39
ATOM     39  O   UNL     1     -34.635 -40.702  52.828  0.00  0.00    +0.000 OA
ATOM     40  H   UNL     1     -34.802 -39.966  52.210  0.00  0.00    +0.000 HD
ENDBRANCH  31  39
ENDBRANCH  27  33
ENDBRANCH   5  27
BRANCH   3  41
ATOM     41  O   UNL     1     -38.600 -41.796  44.431  0.00  0.00    +0.000 OA
BRANCH  41  47
ATOM     42  O   UNL     1     -39.323 -40.093  42.955  0.00  0.00    +0.000 OA
ATOM     43  C   UNL     1     -38.134 -41.443  40.737  0.00  0.00    +0.000 C 
ATOM     44  C   UNL     1     -39.141 -40.306  40.543  0.00  0.00    +0.000 C 
ATOM     45  C   UNL     1     -38.339 -42.132  42.085  0.00  0.00    +0.000 C 
ATOM     46  C   UNL     1     -39.077 -39.355  41.746  0.00  0.00    +0.000 C 
ATOM     47  C   UNL     1     -38.324 -41.079  43.209  0.00  0.00    +0.000 C 
BRANCH  44  48
ATOM     48  O   UNL     1     -38.847 -39.625  39.322  0.00  0.00    +0.000 OA
ATOM     49  H   UNL     1     -38.726 -38.686  39.575  0.00  0.00    +0.000 HD
ENDBRANCH  44  48
BRANCH  45  50
ATOM     50  O   UNL     1     -37.306 -43.117  42.254  0.00  0.00    +0.000 OA
ATOM     51  H   UNL     1     -37.143 -43.171  43.217  0.00  0.00    +0.000 HD
ENDBRANCH  45  50
BRANCH  43  52
ATOM     52  O   UNL     1     -38.287 -42.389  39.666  0.00  0.00    +0.000 OA
ATOM     53  H   UNL     1     -38.089 -41.885  38.851  0.00  0.00    +0.000 HD
ENDBRANCH  43  52
BRANCH  46  54
ATOM     54  C   UNL     1     -40.130 -38.245  41.631  0.00  0.00    +0.000 C 
BRANCH  54  55
ATOM     55  O   UNL     1     -41.204 -38.683  40.795  0.00  0.00    +0.000 OA
ATOM     56  H   UNL     1     -40.815 -39.251  40.110  0.00  0.00    +0.000 HD
ENDBRANCH  54  55
ENDBRANCH  46  54
ENDBRANCH  41  47
ENDBRANCH   3  41
TORSDOF 17
ENDMDL
MODEL 3
REMARK VINA RESULT:      -6.8     11.123     17.166
REMARK  Name = 
REMARK  21 active torsions:
REMARK  status: ('A' for Active; 'I' for Inactive)
REMARK    1  A    between atoms: O_3  and  C_22
REMARK    2  A    between atoms: O_3  and  C_28
REMARK    3  A    between atoms: O_4  and  C_25
REMARK    4  A    between atoms: O_4  and  C_30
REMARK    5  A    between atoms: O_5  and  C_16
REMARK    6  A    between atoms: O_6  and  C_17
REMARK    7  A    between atoms: O_7  and  C_18
REMARK    8  A    between atoms: O_8  and  C_20
REMARK    9  A    between atoms: O_9  and  C_21
REMARK   10  A    between atoms: O_10  and  C_23
REMARK   11  A    between atoms: O_11  and  C_26
REMARK   12  A    between atoms: O_13  and  C_36
REMARK   13  A    between atoms: O_15  and  C_45
REMARK   14  A    between atoms: O_15  and  C_48
REMARK   15  A    between atoms: C_19  and  C_26
REMARK   16  A    between atoms: C_24  and  C_27
REMARK   17  A    between atoms: C_29  and  C_37
REMARK   18  A    between atoms: C_35  and  C_38
REMARK   19  A    between atoms: C_37  and  C_39
REMARK   20  A    between atoms: C_42  and  C_46
REMARK   21  A    between atoms: C_42  and  C_47
REMARK                            x       y       z     vdW  Elec       q    Type
REMARK                         _______ _______ _______ _____ _____    ______ ____
ROOT
ATOM      1  O   UNL     1     -45.414 -38.921  51.713  0.00  0.00    +0.000 OA
ATOM      2  O   UNL     1     -46.616 -37.711  48.029  0.00  0.00    +0.000 OA
ATOM      3  C   UNL     1     -42.980 -40.738  49.673  0.00  0.00    +0.000 A 
ATOM      4  C   UNL     1     -43.669 -40.258  50.801  0.00  0.00    +0.000 A 
ATOM      5  C   UNL     1     -46.968 -37.637  50.379  0.00  0.00    +0.000 A 
ATOM      6  C   UNL     1     -44.753 -39.379  50.599  0.00  0.00    +0.000 A 
ATOM      7  C   UNL     1     -45.124 -38.991  49.311  0.00  0.00    +0.000 A 
ATOM      8  C   UNL     1     -46.267 -38.083  49.148  0.00  0.00    +0.000 A 
ATOM      9  C   UNL     1     -43.326 -40.315  48.386  0.00  0.00    +0.000 A 
ATOM     10  C   UNL     1     -46.519 -38.105  51.557  0.00  0.00    +0.000 A 
ATOM     11  C   UNL     1     -44.405 -39.456  48.207  0.00  0.00    +0.000 A 
ENDROOT
BRANCH  10  12
ATOM     12  C   UNL     1     -47.151 -37.747  52.835  0.00  0.00    +0.000 A 
ATOM     13  C   UNL     1     -46.782 -36.567  53.491  0.00  0.00    +0.000 A 
ATOM     14  C   UNL     1     -48.115 -38.575  53.424  0.00  0.00    +0.000 A 
ATOM     15  C   UNL     1     -47.380 -36.218  54.703  0.00  0.00    +0.000 A 
ATOM     16  C   UNL     1     -48.716 -38.221  54.638  0.00  0.00    +0.000 A 
ATOM     17  C   UNL     1     -48.354 -37.036  55.280  0.00  0.00    +0.000 A 
BRANCH  17  18
ATOM     18  O   UNL     1     -48.862 -36.574  56.462  0.00  0.00    +0.000 OA
ATOM     19  C   UNL     1     -49.869 -37.365  57.081  0.00  0.00    +0.000 C 
ENDBRANCH  17  18
ENDBRANCH  10  12
BRANCH  11  20
ATOM     20  O   UNL     1     -44.696 -39.102  46.918  0.00  0.00    +0.000 OA
ATOM     21  H   UNL     1     -43.881 -39.206  46.378  0.00  0.00    +0.000 HD
ENDBRANCH  11  20
BRANCH   4  22
ATOM     22  C   UNL     1     -43.293 -40.697  52.203  0.00  0.00    +0.000 C 
BRANCH  22  23
ATOM     23  C   UNL     1     -42.163 -39.881  52.776  0.00  0.00    +0.000 C 
ATOM     24  C   UNL     1     -42.220 -38.873  53.669  0.00  0.00    +0.000 C 
ATOM     25  C   UNL     1     -43.471 -38.339  54.307  0.00  0.00    +0.000 C 
ATOM     26  C   UNL     1     -40.958 -38.183  54.117  0.00  0.00    +0.000 C 
ENDBRANCH  22  23
ENDBRANCH   4  22
BRANCH   5  27
ATOM     27  O   UNL     1     -48.088 -36.833  50.267  0.00  0.00    +0.000 OA
BRANCH  27  33
ATOM     28  O   UNL     1     -49.744 -37.374  48.662  0.00  0.00    +0.000 OA
ATOM     29  C   UNL     1     -50.845 -35.772  50.792  0.00  0.00    +0.000 C 
ATOM     30  C   UNL     1     -51.278 -35.584  49.332  0.00  0.00    +0.000 C 
ATOM     31  C   UNL     1     -50.355 -37.198  51.043  0.00  0.00    +0.000 C 
ATOM     32  C   UNL     1     -50.145 -36.023  48.396  0.00  0.00    +0.000 C 
ATOM     33  C   UNL     1     -49.281 -37.582  50.004  0.00  0.00    +0.000 C 
ATOM     34  C   UNL     1     -50.571 -35.952  46.933  0.00  0.00    +0.000 C 
BRANCH  29  35
ATOM     35  O   UNL     1     -51.972 -35.478  51.639  0.00  0.00    +0.000 OA
ATOM     36  H   UNL     1     -51.804 -34.573  51.975  0.00  0.00    +0.000 HD
ENDBRANCH  29  35
BRANCH  30  37
ATOM     37  O   UNL     1     -51.619 -34.208  49.125  0.00  0.00    +0.000 OA
ATOM     38  H   UNL     1     -50.832 -33.810  48.700  0.00  0.00    +0.000 HD
ENDBRANCH  30  37
BRANCH  31  39
ATOM     39  O   UNL     1     -51.505 -38.068  50.989  0.00  0.00    +0.000 OA
ATOM     40  H   UNL     1     -52.296 -37.506  51.083  0.00  0.00    +0.000 HD
ENDBRANCH  31  39
ENDBRANCH  27  33
ENDBRANCH   5  27
BRANCH   3  41
ATOM     41  O   UNL     1     -41.889 -41.550  49.850  0.00  0.00    +0.000 OA
BRANCH  41  47
ATOM     42  O   UNL     1     -40.324 -42.503  48.353  0.00  0.00    +0.000 OA
ATOM     43  C   UNL     1     -38.545 -40.303  48.735  0.00  0.00    +0.000 C 
ATOM     44  C   UNL     1     -38.085 -41.605  48.074  0.00  0.00    +0.000 C 
ATOM     45  C   UNL     1     -39.734 -40.548  49.661  0.00  0.00    +0.000 C 
ATOM     46  C   UNL     1     -39.281 -42.280  47.388  0.00  0.00    +0.000 C 
ATOM     47  C   UNL     1     -40.844 -41.288  48.891  0.00  0.00    +0.000 C 
BRANCH  44  48
ATOM     48  O   UNL     1     -37.045 -41.312  47.139  0.00  0.00    +0.000 OA
ATOM     49  H   UNL     1     -36.914 -42.141  46.633  0.00  0.00    +0.000 HD
ENDBRANCH  44  48
BRANCH  45  50
ATOM     50  O   UNL     1     -40.183 -39.282  50.172  0.00  0.00    +0.000 OA
ATOM     51  H   UNL     1     -40.093 -39.339  51.144  0.00  0.00    +0.000 HD
ENDBRANCH  45  50
BRANCH  43  52
ATOM     52  O   UNL     1     -37.446 -39.741  49.472  0.00  0.00    +0.000 OA
ATOM     53  H   UNL     1     -37.842 -39.400  50.299  0.00  0.00    +0.000 HD
ENDBRANCH  43  52
BRANCH  46  54
ATOM     54  C   UNL     1     -38.882 -43.632  46.782  0.00  0.00    +0.000 C 
BRANCH  54  55
ATOM     55  O   UNL     1     -37.780 -44.181  47.510  0.00  0.00    +0.000 OA
ATOM     56  H   UNL     1     -37.915 -43.948  48.444  0.00  0.00    +0.000 HD
ENDBRANCH  54  55
ENDBRANCH  46  54
ENDBRANCH  41  47
ENDBRANCH   3  41
TORSDOF 17
ENDMDL
MODEL 4
REMARK VINA RESULT:      -6.5      9.466     16.766
REMARK  Name = 
REMARK  21 active torsions:
REMARK  status: ('A' for Active; 'I' for Inactive)
REMARK    1  A    between atoms: O_3  and  C_22
REMARK    2  A    between atoms: O_3  and  C_28
REMARK    3  A    between atoms: O_4  and  C_25
REMARK    4  A    between atoms: O_4  and  C_30
REMARK    5  A    between atoms: O_5  and  C_16
REMARK    6  A    between atoms: O_6  and  C_17
REMARK    7  A    between atoms: O_7  and  C_18
REMARK    8  A    between atoms: O_8  and  C_20
REMARK    9  A    between atoms: O_9  and  C_21
REMARK   10  A    between atoms: O_10  and  C_23
REMARK   11  A    between atoms: O_11  and  C_26
REMARK   12  A    between atoms: O_13  and  C_36
REMARK   13  A    between atoms: O_15  and  C_45
REMARK   14  A    between atoms: O_15  and  C_48
REMARK   15  A    between atoms: C_19  and  C_26
REMARK   16  A    between atoms: C_24  and  C_27
REMARK   17  A    between atoms: C_29  and  C_37
REMARK   18  A    between atoms: C_35  and  C_38
REMARK   19  A    between atoms: C_37  and  C_39
REMARK   20  A    between atoms: C_42  and  C_46
REMARK   21  A    between atoms: C_42  and  C_47
REMARK                            x       y       z     vdW  Elec       q    Type
REMARK                         _______ _______ _______ _____ _____    ______ ____
ROOT
ATOM      1  O   UNL     1     -42.791 -40.761  49.729  0.00  0.00    +0.000 OA
ATOM      2  O   UNL     1     -44.364 -38.525  46.727  0.00  0.00    +0.000 OA
ATOM      3  C   UNL     1     -45.534 -39.169  51.554  0.00  0.00    +0.000 A 
ATOM      4  C   UNL     1     -44.414 -39.976  51.282  0.00  0.00    +0.000 A 
ATOM      5  C   UNL     1     -42.674 -40.046  47.422  0.00  0.00    +0.000 A 
ATOM      6  C   UNL     1     -43.885 -39.966  49.975  0.00  0.00    +0.000 A 
ATOM      7  C   UNL     1     -44.465 -39.182  48.977  0.00  0.00    +0.000 A 
ATOM      8  C   UNL     1     -43.872 -39.195  47.634  0.00  0.00    +0.000 A 
ATOM      9  C   UNL     1     -46.139 -38.416  50.543  0.00  0.00    +0.000 A 
ATOM     10  C   UNL     1     -42.205 -40.735  48.477  0.00  0.00    +0.000 A 
ATOM     11  C   UNL     1     -45.596 -38.413  49.264  0.00  0.00    +0.000 A 
ENDROOT
BRANCH  10  12
ATOM     12  C   UNL     1     -41.012 -41.591  48.387  0.00  0.00    +0.000 A 
ATOM     13  C   UNL     1     -40.017 -41.508  49.367  0.00  0.00    +0.000 A 
ATOM     14  C   UNL     1     -40.842 -42.488  47.325  0.00  0.00    +0.000 A 
ATOM     15  C   UNL     1     -38.883 -42.320  49.291  0.00  0.00    +0.000 A 
ATOM     16  C   UNL     1     -39.706 -43.303  47.252  0.00  0.00    +0.000 A 
ATOM     17  C   UNL     1     -38.724 -43.226  48.240  0.00  0.00    +0.000 A 
BRANCH  17  18
ATOM     18  O   UNL     1     -37.574 -43.963  48.290  0.00  0.00    +0.000 OA
ATOM     19  C   UNL     1     -37.241 -44.549  49.542  0.00  0.00    +0.000 C 
ENDBRANCH  17  18
ENDBRANCH  10  12
BRANCH  11  20
ATOM     20  O   UNL     1     -46.231 -37.637  48.333  0.00  0.00    +0.000 OA
ATOM     21  H   UNL     1     -47.192 -37.630  48.540  0.00  0.00    +0.000 HD
ENDBRANCH  11  20
BRANCH   4  22
ATOM     22  C   UNL     1     -43.758 -40.809  52.366  0.00  0.00    +0.000 C 
BRANCH  22  23
ATOM     23  C   UNL     1     -43.075 -39.960  53.407  0.00  0.00    +0.000 C 
ATOM     24  C   UNL     1     -41.928 -39.259  53.303  0.00  0.00    +0.000 C 
ATOM     25  C   UNL     1     -41.064 -39.171  52.076  0.00  0.00    +0.000 C 
ATOM     26  C   UNL     1     -41.413 -38.465  54.475  0.00  0.00    +0.000 C 
ENDBRANCH  22  23
ENDBRANCH   4  22
BRANCH   5  27
ATOM     27  O   UNL     1     -42.047 -40.038  46.189  0.00  0.00    +0.000 OA
BRANCH  27  33
ATOM     28  O   UNL     1     -41.688 -38.095  44.882  0.00  0.00    +0.000 OA
ATOM     29  C   UNL     1     -39.591 -40.030  44.466  0.00  0.00    +0.000 C 
ATOM     30  C   UNL     1     -40.145 -39.178  43.317  0.00  0.00    +0.000 C 
ATOM     31  C   UNL     1     -39.762 -39.323  45.810  0.00  0.00    +0.000 C 
ATOM     32  C   UNL     1     -41.593 -38.774  43.623  0.00  0.00    +0.000 C 
ATOM     33  C   UNL     1     -41.229 -38.878  45.994  0.00  0.00    +0.000 C 
ATOM     34  C   UNL     1     -42.149 -37.838  42.555  0.00  0.00    +0.000 C 
BRANCH  29  35
ATOM     35  O   UNL     1     -38.196 -40.280  44.211  0.00  0.00    +0.000 OA
ATOM     36  H   UNL     1     -37.942 -40.969  44.861  0.00  0.00    +0.000 HD
ENDBRANCH  29  35
BRANCH  30  37
ATOM     37  O   UNL     1     -40.063 -39.931  42.101  0.00  0.00    +0.000 OA
ATOM     38  H   UNL     1     -39.415 -40.642  42.284  0.00  0.00    +0.000 HD
ENDBRANCH  30  37
BRANCH  31  39
ATOM     39  O   UNL     1     -38.846 -38.208  45.834  0.00  0.00    +0.000 OA
ATOM     40  H   UNL     1     -38.109 -38.454  46.424  0.00  0.00    +0.000 HD
ENDBRANCH  31  39
ENDBRANCH  27  33
ENDBRANCH   5  27
BRANCH   3  41
ATOM     41  O   UNL     1     -46.097 -39.205  52.804  0.00  0.00    +0.000 OA
BRANCH  41  47
ATOM     42  O   UNL     1     -45.939 -37.172  54.005  0.00  0.00    +0.000 OA
ATOM     43  C   UNL     1     -48.772 -37.107  54.364  0.00  0.00    +0.000 C 
ATOM     44  C   UNL     1     -47.836 -36.209  55.177  0.00  0.00    +0.000 C 
ATOM     45  C   UNL     1     -48.047 -38.365  53.888  0.00  0.00    +0.000 C 
ATOM     46  C   UNL     1     -46.564 -35.928  54.365  0.00  0.00    +0.000 C 
ATOM     47  C   UNL     1     -46.756 -37.968  53.148  0.00  0.00    +0.000 C 
BRANCH  44  48
ATOM     48  O   UNL     1     -48.521 -35.000  55.510  0.00  0.00    +0.000 OA
ATOM     49  H   UNL     1     -49.461 -35.171  55.292  0.00  0.00    +0.000 HD
ENDBRANCH  44  48
BRANCH  45  50
ATOM     50  O   UNL     1     -48.941 -39.116  53.050  0.00  0.00    +0.000 OA
ATOM     51  H   UNL     1     -49.631 -38.486  52.762  0.00  0.00    +0.000 HD
ENDBRANCH  45  50
BRANCH  43  52
ATOM     52  O   UNL     1     -49.902 -37.461  55.178  0.00  0.00    +0.000 OA
ATOM     53  H   UNL     1     -49.878 -38.437  55.237  0.00  0.00    +0.000 HD
ENDBRANCH  43  52
BRANCH  46  54
ATOM     54  C   UNL     1     -45.561 -35.097  55.176  0.00  0.00    +0.000 C 
BRANCH  54  55
ATOM     55  O   UNL     1     -45.872 -35.189  56.569  0.00  0.00    +0.000 OA
ATOM     56  H   UNL     1     -46.760 -34.810  56.685  0.00  0.00    +0.000 HD
ENDBRANCH  54  55
ENDBRANCH  46  54
ENDBRANCH  41  47
ENDBRANCH   3  41
TORSDOF 17
ENDMDL
MODEL 5
REMARK VINA RESULT:      -6.4      8.113     15.869
REMARK  Name = 
REMARK  21 active torsions:
REMARK  status: ('A' for Active; 'I' for Inactive)
REMARK    1  A    between atoms: O_3  and  C_22
REMARK    2  A    between atoms: O_3  and  C_28
REMARK    3  A    between atoms: O_4  and  C_25
REMARK    4  A    between atoms: O_4  and  C_30
REMARK    5  A    between atoms: O_5  and  C_16
REMARK    6  A    between atoms: O_6  and  C_17
REMARK    7  A    between atoms: O_7  and  C_18
REMARK    8  A    between atoms: O_8  and  C_20
REMARK    9  A    between atoms: O_9  and  C_21
REMARK   10  A    between atoms: O_10  and  C_23
REMARK   11  A    between atoms: O_11  and  C_26
REMARK   12  A    between atoms: O_13  and  C_36
REMARK   13  A    between atoms: O_15  and  C_45
REMARK   14  A    between atoms: O_15  and  C_48
REMARK   15  A    between atoms: C_19  and  C_26
REMARK   16  A    between atoms: C_24  and  C_27
REMARK   17  A    between atoms: C_29  and  C_37
REMARK   18  A    between atoms: C_35  and  C_38
REMARK   19  A    between atoms: C_37  and  C_39
REMARK   20  A    between atoms: C_42  and  C_46
REMARK   21  A    between atoms: C_42  and  C_47
REMARK                            x       y       z     vdW  Elec       q    Type
REMARK                         _______ _______ _______ _____ _____    ______ ____
ROOT
ATOM      1  O   UNL     1     -41.060 -40.997  48.500  0.00  0.00    +0.000 OA
ATOM      2  O   UNL     1     -40.328 -39.025  45.028  0.00  0.00    +0.000 OA
ATOM      3  C   UNL     1     -44.346 -39.474  47.983  0.00  0.00    +0.000 A 
ATOM      4  C   UNL     1     -43.311 -40.226  48.566  0.00  0.00    +0.000 A 
ATOM      5  C   UNL     1     -39.480 -40.404  46.769  0.00  0.00    +0.000 A 
ATOM      6  C   UNL     1     -42.060 -40.256  47.916  0.00  0.00    +0.000 A 
ATOM      7  C   UNL     1     -41.860 -39.564  46.722  0.00  0.00    +0.000 A 
ATOM      8  C   UNL     1     -40.537 -39.614  46.087  0.00  0.00    +0.000 A 
ATOM      9  C   UNL     1     -44.158 -38.814  46.765  0.00  0.00    +0.000 A 
ATOM     10  C   UNL     1     -39.802 -41.006  47.928  0.00  0.00    +0.000 A 
ATOM     11  C   UNL     1     -42.913 -38.848  46.146  0.00  0.00    +0.000 A 
ENDROOT
BRANCH  10  12
ATOM     12  C   UNL     1     -38.829 -41.793  48.700  0.00  0.00    +0.000 A 
ATOM     13  C   UNL     1     -38.911 -43.190  48.707  0.00  0.00    +0.000 A 
ATOM     14  C   UNL     1     -37.819 -41.171  49.444  0.00  0.00    +0.000 A 
ATOM     15  C   UNL     1     -37.987 -43.946  49.434  0.00  0.00    +0.000 A 
ATOM     16  C   UNL     1     -36.893 -41.930  50.168  0.00  0.00    +0.000 A 
ATOM     17  C   UNL     1     -36.970 -43.323  50.161  0.00  0.00    +0.000 A 
BRANCH  17  18
ATOM     18  O   UNL     1     -36.132 -44.179  50.820  0.00  0.00    +0.000 OA
ATOM     19  C   UNL     1     -35.992 -43.987  52.222  0.00  0.00    +0.000 C 
ENDBRANCH  17  18
ENDBRANCH  10  12
BRANCH  11  20
ATOM     20  O   UNL     1     -42.799 -38.163  44.967  0.00  0.00    +0.000 OA
ATOM     21  H   UNL     1     -43.589 -38.362  44.416  0.00  0.00    +0.000 HD
ENDBRANCH  11  20
BRANCH   4  22
ATOM     22  C   UNL     1     -43.508 -40.959  49.879  0.00  0.00    +0.000 C 
BRANCH  22  23
ATOM     23  C   UNL     1     -42.988 -40.176  51.056  0.00  0.00    +0.000 C 
ATOM     24  C   UNL     1     -42.960 -40.528  52.357  0.00  0.00    +0.000 C 
ATOM     25  C   UNL     1     -43.457 -41.830  52.922  0.00  0.00    +0.000 C 
ATOM     26  C   UNL     1     -42.389 -39.589  53.387  0.00  0.00    +0.000 C 
ENDBRANCH  22  23
ENDBRANCH   4  22
BRANCH   5  27
ATOM     27  O   UNL     1     -38.203 -40.426  46.240  0.00  0.00    +0.000 OA
BRANCH  27  33
ATOM     28  O   UNL     1     -36.618 -42.184  46.132  0.00  0.00    +0.000 OA
ATOM     29  C   UNL     1     -36.676 -40.684  43.670  0.00  0.00    +0.000 C 
ATOM     30  C   UNL     1     -35.366 -41.223  44.258  0.00  0.00    +0.000 C 
ATOM     31  C   UNL     1     -37.869 -41.534  44.110  0.00  0.00    +0.000 C 
ATOM     32  C   UNL     1     -35.500 -41.359  45.780  0.00  0.00    +0.000 C 
ATOM     33  C   UNL     1     -37.874 -41.688  45.645  0.00  0.00    +0.000 C 
ATOM     34  C   UNL     1     -34.255 -41.991  46.395  0.00  0.00    +0.000 C 
BRANCH  29  35
ATOM     35  O   UNL     1     -36.565 -40.693  42.234  0.00  0.00    +0.000 OA
ATOM     36  H   UNL     1     -36.853 -41.591  41.966  0.00  0.00    +0.000 HD
ENDBRANCH  29  35
BRANCH  30  37
ATOM     37  O   UNL     1     -34.302 -40.329  43.909  0.00  0.00    +0.000 OA
ATOM     38  H   UNL     1     -34.026 -40.599  43.009  0.00  0.00    +0.000 HD
ENDBRANCH  30  37
BRANCH  31  39
ATOM     39  O   UNL     1     -37.771 -42.804  43.433  0.00  0.00    +0.000 OA
ATOM     40  H   UNL     1     -37.258 -42.657  42.616  0.00  0.00    +0.000 HD
ENDBRANCH  31  39
ENDBRANCH  27  33
ENDBRANCH   5  27
BRANCH   3  41
ATOM     41  O   UNL     1     -45.586 -39.474  48.570  0.00  0.00    +0.000 OA
BRANCH  41  47
ATOM     42  O   UNL     1     -45.913 -38.866  50.833  0.00  0.00    +0.000 OA
ATOM     43  C   UNL     1     -47.343 -36.522  50.048  0.00  0.00    +0.000 C 
ATOM     44  C   UNL     1     -47.381 -37.045  51.487  0.00  0.00    +0.000 C 
ATOM     45  C   UNL     1     -47.039 -37.649  49.064  0.00  0.00    +0.000 C 
ATOM     46  C   UNL     1     -46.082 -37.805  51.789  0.00  0.00    +0.000 C 
ATOM     47  C   UNL     1     -45.757 -38.384  49.500  0.00  0.00    +0.000 C 
BRANCH  44  48
ATOM     48  O   UNL     1     -47.561 -35.944  52.379  0.00  0.00    +0.000 OA
ATOM     49  H   UNL     1     -47.117 -35.186  51.945  0.00  0.00    +0.000 HD
ENDBRANCH  44  48
BRANCH  45  50
ATOM     50  O   UNL     1     -46.916 -37.084  47.748  0.00  0.00    +0.000 OA
ATOM     51  H   UNL     1     -47.361 -37.711  47.145  0.00  0.00    +0.000 HD
ENDBRANCH  45  50
BRANCH  43  52
ATOM     52  O   UNL     1     -48.609 -35.917  49.739  0.00  0.00    +0.000 OA
ATOM     53  H   UNL     1     -48.448 -35.389  48.931  0.00  0.00    +0.000 HD
ENDBRANCH  43  52
BRANCH  46  54
ATOM     54  C   UNL     1     -46.113 -38.418  53.196  0.00  0.00    +0.000 C 
BRANCH  54  55
ATOM     55  O   UNL     1     -47.436 -38.864  53.499  0.00  0.00    +0.000 OA
ATOM     56  H   UNL     1     -48.027 -38.104  53.369  0.00  0.00    +0.000 HD
ENDBRANCH  54  55
ENDBRANCH  46  54
ENDBRANCH  41  47
ENDBRANCH   3  41
TORSDOF 17
ENDMDL
MODEL 6
REMARK VINA RESULT:      -6.4      4.540      9.396
REMARK  Name = 
REMARK  21 active torsions:
REMARK  status: ('A' for Active; 'I' for Inactive)
REMARK    1  A    between atoms: O_3  and  C_22
REMARK    2  A    between atoms: O_3  and  C_28
REMARK    3  A    between atoms: O_4  and  C_25
REMARK    4  A    between atoms: O_4  and  C_30
REMARK    5  A    between atoms: O_5  and  C_16
REMARK    6  A    between atoms: O_6  and  C_17
REMARK    7  A    between atoms: O_7  and  C_18
REMARK    8  A    between atoms: O_8  and  C_20
REMARK    9  A    between atoms: O_9  and  C_21
REMARK   10  A    between atoms: O_10  and  C_23
REMARK   11  A    between atoms: O_11  and  C_26
REMARK   12  A    between atoms: O_13  and  C_36
REMARK   13  A    between atoms: O_15  and  C_45
REMARK   14  A    between atoms: O_15  and  C_48
REMARK   15  A    between atoms: C_19  and  C_26
REMARK   16  A    between atoms: C_24  and  C_27
REMARK   17  A    between atoms: C_29  and  C_37
REMARK   18  A    between atoms: C_35  and  C_38
REMARK   19  A    between atoms: C_37  and  C_39
REMARK   20  A    between atoms: C_42  and  C_46
REMARK   21  A    between atoms: C_42  and  C_47
REMARK                            x       y       z     vdW  Elec       q    Type
REMARK                         _______ _______ _______ _____ _____    ______ ____
ROOT
ATOM      1  O   UNL     1     -37.302 -41.919  50.248  0.00  0.00    +0.000 OA
ATOM      2  O   UNL     1     -34.736 -39.854  52.621  0.00  0.00    +0.000 OA
ATOM      3  C   UNL     1     -34.722 -44.475  50.689  0.00  0.00    +0.000 A 
ATOM      4  C   UNL     1     -35.904 -43.844  50.261  0.00  0.00    +0.000 A 
ATOM      5  C   UNL     1     -36.765 -39.852  51.381  0.00  0.00    +0.000 A 
ATOM      6  C   UNL     1     -36.142 -42.518  50.675  0.00  0.00    +0.000 A 
ATOM      7  C   UNL     1     -35.229 -41.853  51.494  0.00  0.00    +0.000 A 
ATOM      8  C   UNL     1     -35.512 -40.467  51.890  0.00  0.00    +0.000 A 
ATOM      9  C   UNL     1     -33.828 -43.822  51.544  0.00  0.00    +0.000 A 
ATOM     10  C   UNL     1     -37.545 -40.600  50.581  0.00  0.00    +0.000 A 
ATOM     11  C   UNL     1     -34.076 -42.510  51.932  0.00  0.00    +0.000 A 
ENDROOT
BRANCH  10  12
ATOM     12  C   UNL     1     -38.795 -40.084  50.002  0.00  0.00    +0.000 A 
ATOM     13  C   UNL     1     -38.750 -39.138  48.972  0.00  0.00    +0.000 A 
ATOM     14  C   UNL     1     -40.043 -40.515  50.470  0.00  0.00    +0.000 A 
ATOM     15  C   UNL     1     -39.932 -38.647  48.414  0.00  0.00    +0.000 A 
ATOM     16  C   UNL     1     -41.227 -40.023  49.907  0.00  0.00    +0.000 A 
ATOM     17  C   UNL     1     -41.175 -39.090  48.872  0.00  0.00    +0.000 A 
BRANCH  17  18
ATOM     18  O   UNL     1     -42.250 -38.534  48.236  0.00  0.00    +0.000 OA
ATOM     19  C   UNL     1     -43.257 -39.428  47.778  0.00  0.00    +0.000 C 
ENDBRANCH  17  18
ENDBRANCH  10  12
BRANCH  11  20
ATOM     20  O   UNL     1     -33.148 -41.931  52.753  0.00  0.00    +0.000 OA
ATOM     21  H   UNL     1     -32.270 -42.326  52.553  0.00  0.00    +0.000 HD
ENDBRANCH  11  20
BRANCH   4  22
ATOM     22  C   UNL     1     -36.889 -44.548  49.347  0.00  0.00    +0.000 C 
BRANCH  22  23
ATOM     23  C   UNL     1     -36.951 -43.918  47.979  0.00  0.00    +0.000 C 
ATOM     24  C   UNL     1     -38.024 -43.439  47.320  0.00  0.00    +0.000 C 
ATOM     25  C   UNL     1     -39.436 -43.427  47.837  0.00  0.00    +0.000 C 
ATOM     26  C   UNL     1     -37.868 -42.841  45.946  0.00  0.00    +0.000 C 
ENDBRANCH  22  23
ENDBRANCH   4  22
BRANCH   5  27
ATOM     27  O   UNL     1     -37.039 -38.530  51.677  0.00  0.00    +0.000 OA
BRANCH  27  33
ATOM     28  O   UNL     1     -39.118 -38.148  52.747  0.00  0.00    +0.000 OA
ATOM     29  C   UNL     1     -37.360 -35.882  53.052  0.00  0.00    +0.000 C 
ATOM     30  C   UNL     1     -38.868 -35.712  52.827  0.00  0.00    +0.000 C 
ATOM     31  C   UNL     1     -37.050 -37.223  53.719  0.00  0.00    +0.000 C 
ATOM     32  C   UNL     1     -39.418 -36.923  52.064  0.00  0.00    +0.000 C 
ATOM     33  C   UNL     1     -37.713 -38.374  52.932  0.00  0.00    +0.000 C 
ATOM     34  C   UNL     1     -40.933 -36.845  51.910  0.00  0.00    +0.000 C 
BRANCH  29  35
ATOM     35  O   UNL     1     -36.902 -34.799  53.882  0.00  0.00    +0.000 OA
ATOM     36  H   UNL     1     -37.385 -34.011  53.556  0.00  0.00    +0.000 HD
ENDBRANCH  29  35
BRANCH  30  37
ATOM     37  O   UNL     1     -39.092 -34.497  52.102  0.00  0.00    +0.000 OA
ATOM     38  H   UNL     1     -38.637 -34.622  51.244  0.00  0.00    +0.000 HD
ENDBRANCH  30  37
BRANCH  31  39
ATOM     39  O   UNL     1     -37.520 -37.150  55.081  0.00  0.00    +0.000 OA
ATOM     40  H   UNL     1     -36.885 -37.645  55.631  0.00  0.00    +0.000 HD
ENDBRANCH  31  39
ENDBRANCH  27  33
ENDBRANCH   5  27
BRANCH   3  41
ATOM     41  O   UNL     1     -34.497 -45.783  50.342  0.00  0.00    +0.000 OA
BRANCH  41  47
ATOM     42  O   UNL     1     -32.767 -47.323  50.826  0.00  0.00    +0.000 OA
ATOM     43  C   UNL     1     -34.205 -48.300  53.093  0.00  0.00    +0.000 C 
ATOM     44  C   UNL     1     -33.012 -49.060  52.507  0.00  0.00    +0.000 C 
ATOM     45  C   UNL     1     -34.868 -47.421  52.034  0.00  0.00    +0.000 C 
ATOM     46  C   UNL     1     -32.056 -48.067  51.830  0.00  0.00    +0.000 C 
ATOM     47  C   UNL     1     -33.809 -46.517  51.376  0.00  0.00    +0.000 C 
BRANCH  44  48
ATOM     48  O   UNL     1     -32.360 -49.783  53.552  0.00  0.00    +0.000 OA
ATOM     49  H   UNL     1     -33.075 -50.036  54.173  0.00  0.00    +0.000 HD
ENDBRANCH  44  48
BRANCH  45  50
ATOM     50  O   UNL     1     -35.912 -46.660  52.663  0.00  0.00    +0.000 OA
ATOM     51  H   UNL     1     -35.665 -45.721  52.548  0.00  0.00    +0.000 HD
ENDBRANCH  45  50
BRANCH  43  52
ATOM     52  O   UNL     1     -35.149 -49.248  53.617  0.00  0.00    +0.000 OA
ATOM     53  H   UNL     1     -34.904 -49.358  54.558  0.00  0.00    +0.000 HD
ENDBRANCH  43  52
BRANCH  46  54
ATOM     54  C   UNL     1     -30.886 -48.796  51.157  0.00  0.00    +0.000 C 
BRANCH  54  55
ATOM     55  O   UNL     1     -29.902 -49.138  52.136  0.00  0.00    +0.000 OA
ATOM     56  H   UNL     1     -29.121 -49.457  51.652  0.00  0.00    +0.000 HD
ENDBRANCH  54  55
ENDBRANCH  46  54
ENDBRANCH  41  47
ENDBRANCH   3  41
TORSDOF 17
ENDMDL
MODEL 7
REMARK VINA RESULT:      -6.3      6.367     11.231
REMARK  Name = 
REMARK  21 active torsions:
REMARK  status: ('A' for Active; 'I' for Inactive)
REMARK    1  A    between atoms: O_3  and  C_22
REMARK    2  A    between atoms: O_3  and  C_28
REMARK    3  A    between atoms: O_4  and  C_25
REMARK    4  A    between atoms: O_4  and  C_30
REMARK    5  A    between atoms: O_5  and  C_16
REMARK    6  A    between atoms: O_6  and  C_17
REMARK    7  A    between atoms: O_7  and  C_18
REMARK    8  A    between atoms: O_8  and  C_20
REMARK    9  A    between atoms: O_9  and  C_21
REMARK   10  A    between atoms: O_10  and  C_23
REMARK   11  A    between atoms: O_11  and  C_26
REMARK   12  A    between atoms: O_13  and  C_36
REMARK   13  A    between atoms: O_15  and  C_45
REMARK   14  A    between atoms: O_15  and  C_48
REMARK   15  A    between atoms: C_19  and  C_26
REMARK   16  A    between atoms: C_24  and  C_27
REMARK   17  A    between atoms: C_29  and  C_37
REMARK   18  A    between atoms: C_35  and  C_38
REMARK   19  A    between atoms: C_37  and  C_39
REMARK   20  A    between atoms: C_42  and  C_46
REMARK   21  A    between atoms: C_42  and  C_47
REMARK                            x       y       z     vdW  Elec       q    Type
REMARK                         _______ _______ _______ _____ _____    ______ ____
ROOT
ATOM      1  O   UNL     1     -39.386 -40.347  50.649  0.00  0.00    +0.000 OA
ATOM      2  O   UNL     1     -41.734 -42.069  47.818  0.00  0.00    +0.000 OA
ATOM      3  C   UNL     1     -37.049 -42.869  49.398  0.00  0.00    +0.000 A 
ATOM      4  C   UNL     1     -37.572 -41.805  50.156  0.00  0.00    +0.000 A 
ATOM      5  C   UNL     1     -41.533 -40.442  49.541  0.00  0.00    +0.000 A 
ATOM      6  C   UNL     1     -38.894 -41.388  49.899  0.00  0.00    +0.000 A 
ATOM      7  C   UNL     1     -39.658 -42.011  48.912  0.00  0.00    +0.000 A 
ATOM      8  C   UNL     1     -41.035 -41.550  48.687  0.00  0.00    +0.000 A 
ATOM      9  C   UNL     1     -37.802 -43.465  48.381  0.00  0.00    +0.000 A 
ATOM     10  C   UNL     1     -40.697 -39.946  50.470  0.00  0.00    +0.000 A 
ATOM     11  C   UNL     1     -39.107 -43.045  48.151  0.00  0.00    +0.000 A 
ENDROOT
BRANCH  10  12
ATOM     12  C   UNL     1     -41.093 -38.864  51.384  0.00  0.00    +0.000 A 
ATOM     13  C   UNL     1     -42.007 -39.119  52.413  0.00  0.00    +0.000 A 
ATOM     14  C   UNL     1     -40.582 -37.569  51.239  0.00  0.00    +0.000 A 
ATOM     15  C   UNL     1     -42.386 -38.098  53.288  0.00  0.00    +0.000 A 
ATOM     16  C   UNL     1     -40.961 -36.548  52.119  0.00  0.00    +0.000 A 
ATOM     17  C   UNL     1     -41.861 -36.811  53.152  0.00  0.00    +0.000 A 
BRANCH  17  18
ATOM     18  O   UNL     1     -42.310 -35.910  54.077  0.00  0.00    +0.000 OA
ATOM     19  C   UNL     1     -41.965 -36.157  55.434  0.00  0.00    +0.000 C 
ENDBRANCH  17  18
ENDBRANCH  10  12
BRANCH  11  20
ATOM     20  O   UNL     1     -39.787 -43.688  47.153  0.00  0.00    +0.000 OA
ATOM     21  H   UNL     1     -40.585 -43.158  46.932  0.00  0.00    +0.000 HD
ENDBRANCH  11  20
BRANCH   4  22
ATOM     22  C   UNL     1     -36.760 -41.141  51.251  0.00  0.00    +0.000 C 
BRANCH  22  23
ATOM     23  C   UNL     1     -36.136 -39.847  50.797  0.00  0.00    +0.000 C 
ATOM     24  C   UNL     1     -36.295 -38.610  51.310  0.00  0.00    +0.000 C 
ATOM     25  C   UNL     1     -37.156 -38.255  52.489  0.00  0.00    +0.000 C 
ATOM     26  C   UNL     1     -35.570 -37.437  50.702  0.00  0.00    +0.000 C 
ENDBRANCH  22  23
ENDBRANCH   4  22
BRANCH   5  27
ATOM     27  O   UNL     1     -42.843 -40.021  49.406  0.00  0.00    +0.000 OA
BRANCH  27  33
ATOM     28  O   UNL     1     -43.111 -37.703  48.992  0.00  0.00    +0.000 OA
ATOM     29  C   UNL     1     -45.510 -39.161  48.333  0.00  0.00    +0.000 C 
ATOM     30  C   UNL     1     -45.561 -37.774  48.985  0.00  0.00    +0.000 C 
ATOM     31  C   UNL     1     -44.223 -39.347  47.530  0.00  0.00    +0.000 C 
ATOM     32  C   UNL     1     -44.284 -37.539  49.802  0.00  0.00    +0.000 C 
ATOM     33  C   UNL     1     -42.997 -39.007  48.405  0.00  0.00    +0.000 C 
ATOM     34  C   UNL     1     -44.244 -36.129  50.382  0.00  0.00    +0.000 C 
BRANCH  29  35
ATOM     35  O   UNL     1     -46.656 -39.298  47.471  0.00  0.00    +0.000 OA
ATOM     36  H   UNL     1     -46.826 -40.263  47.431  0.00  0.00    +0.000 HD
ENDBRANCH  29  35
BRANCH  30  37
ATOM     37  O   UNL     1     -46.727 -37.694  49.812  0.00  0.00    +0.000 OA
ATOM     38  H   UNL     1     -47.148 -36.842  49.581  0.00  0.00    +0.000 HD
ENDBRANCH  30  37
BRANCH  31  39
ATOM     39  O   UNL     1     -44.312 -38.504  46.363  0.00  0.00    +0.000 OA
ATOM     40  H   UNL     1     -44.437 -37.589  46.678  0.00  0.00    +0.000 HD
ENDBRANCH  31  39
ENDBRANCH  27  33
ENDBRANCH   5  27
BRANCH   3  41
ATOM     41  O   UNL     1     -35.748 -43.255  49.595  0.00  0.00    +0.000 OA
BRANCH  41  47
ATOM     42  O   UNL     1     -34.538 -43.512  51.613  0.00  0.00    +0.000 OA
ATOM     43  C   UNL     1     -34.922 -46.341  51.540  0.00  0.00    +0.000 C 
ATOM     44  C   UNL     1     -33.891 -45.692  52.467  0.00  0.00    +0.000 C 
ATOM     45  C   UNL     1     -35.200 -45.458  50.325  0.00  0.00    +0.000 C 
ATOM     46  C   UNL     1     -34.346 -44.269  52.821  0.00  0.00    +0.000 C 
ATOM     47  C   UNL     1     -35.580 -44.041  50.794  0.00  0.00    +0.000 C 
BRANCH  44  48
ATOM     48  O   UNL     1     -33.741 -46.498  53.637  0.00  0.00    +0.000 OA
ATOM     49  H   UNL     1     -33.632 -47.414  53.304  0.00  0.00    +0.000 HD
ENDBRANCH  44  48
BRANCH  45  50
ATOM     50  O   UNL     1     -36.243 -46.068  49.548  0.00  0.00    +0.000 OA
ATOM     51  H   UNL     1     -36.986 -45.432  49.552  0.00  0.00    +0.000 HD
ENDBRANCH  45  50
BRANCH  43  52
ATOM     52  O   UNL     1     -34.429 -47.624  51.121  0.00  0.00    +0.000 OA
ATOM     53  H   UNL     1     -35.160 -48.249  51.301  0.00  0.00    +0.000 HD
ENDBRANCH  43  52
BRANCH  46  54
ATOM     54  C   UNL     1     -33.300 -43.551  53.683  0.00  0.00    +0.000 C 
BRANCH  54  55
ATOM     55  O   UNL     1     -33.822 -43.334  54.996  0.00  0.00    +0.000 OA
ATOM     56  H   UNL     1     -34.332 -44.127  55.231  0.00  0.00    +0.000 HD
ENDBRANCH  54  55
ENDBRANCH  46  54
ENDBRANCH  41  47
ENDBRANCH   3  41
TORSDOF 17
ENDMDL
MODEL 8
REMARK VINA RESULT:      -6.3     11.687     18.127
REMARK  Name = 
REMARK  21 active torsions:
REMARK  status: ('A' for Active; 'I' for Inactive)
REMARK    1  A    between atoms: O_3  and  C_22
REMARK    2  A    between atoms: O_3  and  C_28
REMARK    3  A    between atoms: O_4  and  C_25
REMARK    4  A    between atoms: O_4  and  C_30
REMARK    5  A    between atoms: O_5  and  C_16
REMARK    6  A    between atoms: O_6  and  C_17
REMARK    7  A    between atoms: O_7  and  C_18
REMARK    8  A    between atoms: O_8  and  C_20
REMARK    9  A    between atoms: O_9  and  C_21
REMARK   10  A    between atoms: O_10  and  C_23
REMARK   11  A    between atoms: O_11  and  C_26
REMARK   12  A    between atoms: O_13  and  C_36
REMARK   13  A    between atoms: O_15  and  C_45
REMARK   14  A    between atoms: O_15  and  C_48
REMARK   15  A    between atoms: C_19  and  C_26
REMARK   16  A    between atoms: C_24  and  C_27
REMARK   17  A    between atoms: C_29  and  C_37
REMARK   18  A    between atoms: C_35  and  C_38
REMARK   19  A    between atoms: C_37  and  C_39
REMARK   20  A    between atoms: C_42  and  C_46
REMARK   21  A    between atoms: C_42  and  C_47
REMARK                            x       y       z     vdW  Elec       q    Type
REMARK                         _______ _______ _______ _____ _____    ______ ____
ROOT
ATOM      1  O   UNL     1     -43.731 -38.055  49.073  0.00  0.00    +0.000 OA
ATOM      2  O   UNL     1     -43.168 -41.851  50.399  0.00  0.00    +0.000 OA
ATOM      3  C   UNL     1     -46.059 -38.045  51.896  0.00  0.00    +0.000 A 
ATOM      4  C   UNL     1     -45.329 -37.603  50.778  0.00  0.00    +0.000 A 
ATOM      5  C   UNL     1     -42.625 -40.186  48.790  0.00  0.00    +0.000 A 
ATOM      6  C   UNL     1     -44.436 -38.505  50.164  0.00  0.00    +0.000 A 
ATOM      7  C   UNL     1     -44.275 -39.798  50.661  0.00  0.00    +0.000 A 
ATOM      8  C   UNL     1     -43.342 -40.707  49.982  0.00  0.00    +0.000 A 
ATOM      9  C   UNL     1     -45.867 -39.328  52.419  0.00  0.00    +0.000 A 
ATOM     10  C   UNL     1     -42.890 -38.925  48.406  0.00  0.00    +0.000 A 
ATOM     11  C   UNL     1     -44.988 -40.204  51.792  0.00  0.00    +0.000 A 
ENDROOT
BRANCH  10  12
ATOM     12  C   UNL     1     -42.255 -38.315  47.227  0.00  0.00    +0.000 A 
ATOM     13  C   UNL     1     -41.213 -37.396  47.394  0.00  0.00    +0.000 A 
ATOM     14  C   UNL     1     -42.681 -38.628  45.931  0.00  0.00    +0.000 A 
ATOM     15  C   UNL     1     -40.602 -36.815  46.280  0.00  0.00    +0.000 A 
ATOM     16  C   UNL     1     -42.064 -38.047  44.816  0.00  0.00    +0.000 A 
ATOM     17  C   UNL     1     -41.017 -37.142  44.987  0.00  0.00    +0.000 A 
BRANCH  17  18
ATOM     18  O   UNL     1     -40.331 -36.508  43.989  0.00  0.00    +0.000 OA
ATOM     19  C   UNL     1     -39.373 -35.535  44.386  0.00  0.00    +0.000 C 
ENDBRANCH  17  18
ENDBRANCH  10  12
BRANCH  11  20
ATOM     20  O   UNL     1     -44.868 -41.449  52.349  0.00  0.00    +0.000 OA
ATOM     21  H   UNL     1     -44.458 -42.046  51.685  0.00  0.00    +0.000 HD
ENDBRANCH  11  20
BRANCH   4  22
ATOM     22  C   UNL     1     -45.517 -36.209  50.212  0.00  0.00    +0.000 C 
BRANCH  22  23
ATOM     23  C   UNL     1     -46.558 -36.168  49.123  0.00  0.00    +0.000 C 
ATOM     24  C   UNL     1     -46.389 -35.949  47.804  0.00  0.00    +0.000 C 
ATOM     25  C   UNL     1     -45.075 -35.695  47.119  0.00  0.00    +0.000 C 
ATOM     26  C   UNL     1     -47.575 -35.951  46.875  0.00  0.00    +0.000 C 
ENDBRANCH  22  23
ENDBRANCH   4  22
BRANCH   5  27
ATOM     27  O   UNL     1     -41.786 -41.028  48.084  0.00  0.00    +0.000 OA
BRANCH  27  33
ATOM     28  O   UNL     1     -39.576 -40.242  47.750  0.00  0.00    +0.000 OA
ATOM     29  C   UNL     1     -39.738 -43.092  47.342  0.00  0.00    +0.000 C 
ATOM     30  C   UNL     1     -38.849 -42.199  46.467  0.00  0.00    +0.000 C 
ATOM     31  C   UNL     1     -39.950 -42.475  48.724  0.00  0.00    +0.000 C 
ATOM     32  C   UNL     1     -39.423 -40.777  46.428  0.00  0.00    +0.000 C 
ATOM     33  C   UNL     1     -40.444 -41.019  48.587  0.00  0.00    +0.000 C 
ATOM     34  C   UNL     1     -38.512 -39.829  45.654  0.00  0.00    +0.000 C 
BRANCH  29  35
ATOM     35  O   UNL     1     -39.105 -44.379  47.466  0.00  0.00    +0.000 OA
ATOM     36  H   UNL     1     -38.721 -44.556  46.581  0.00  0.00    +0.000 HD
ENDBRANCH  29  35
BRANCH  30  37
ATOM     37  O   UNL     1     -38.777 -42.765  45.153  0.00  0.00    +0.000 OA
ATOM     38  H   UNL     1     -38.517 -42.025  44.569  0.00  0.00    +0.000 HD
ENDBRANCH  30  37
BRANCH  31  39
ATOM     39  O   UNL     1     -38.697 -42.562  49.436  0.00  0.00    +0.000 OA
ATOM     40  H   UNL     1     -38.829 -43.182  50.176  0.00  0.00    +0.000 HD
ENDBRANCH  31  39
ENDBRANCH  27  33
ENDBRANCH   5  27
BRANCH   3  41
ATOM     41  O   UNL     1     -46.893 -37.167  52.541  0.00  0.00    +0.000 OA
BRANCH  41  47
ATOM     42  O   UNL     1     -48.873 -37.046  51.251  0.00  0.00    +0.000 OA
ATOM     43  C   UNL     1     -50.477 -37.228  53.607  0.00  0.00    +0.000 C 
ATOM     44  C   UNL     1     -51.065 -36.787  52.263  0.00  0.00    +0.000 C 
ATOM     45  C   UNL     1     -48.979 -36.936  53.671  0.00  0.00    +0.000 C 
ATOM     46  C   UNL     1     -50.257 -37.416  51.120  0.00  0.00    +0.000 C 
ATOM     47  C   UNL     1     -48.280 -37.553  52.446  0.00  0.00    +0.000 C 
BRANCH  44  48
ATOM     48  O   UNL     1     -52.439 -37.174  52.206  0.00  0.00    +0.000 OA
ATOM     49  H   UNL     1     -52.690 -37.366  53.133  0.00  0.00    +0.000 HD
ENDBRANCH  44  48
BRANCH  45  50
ATOM     50  O   UNL     1     -48.466 -37.460  54.907  0.00  0.00    +0.000 OA
ATOM     51  H   UNL     1     -47.519 -37.646  54.746  0.00  0.00    +0.000 HD
ENDBRANCH  45  50
BRANCH  43  52
ATOM     52  O   UNL     1     -51.165 -36.540  54.665  0.00  0.00    +0.000 OA
ATOM     53  H   UNL     1     -50.951 -35.594  54.536  0.00  0.00    +0.000 HD
ENDBRANCH  43  52
BRANCH  46  54
ATOM     54  C   UNL     1     -50.761 -36.934  49.754  0.00  0.00    +0.000 C 
BRANCH  54  55
ATOM     55  O   UNL     1     -50.164 -37.714  48.715  0.00  0.00    +0.000 OA
ATOM     56  H   UNL     1     -49.332 -37.272  48.474  0.00  0.00    +0.000 HD
ENDBRANCH  54  55
ENDBRANCH  46  54
ENDBRANCH  41  47
ENDBRANCH   3  41
TORSDOF 17
ENDMDL
MODEL 9
REMARK VINA RESULT:      -6.3     15.793     18.204
REMARK  Name = 
REMARK  21 active torsions:
REMARK  status: ('A' for Active; 'I' for Inactive)
REMARK    1  A    between atoms: O_3  and  C_22
REMARK    2  A    between atoms: O_3  and  C_28
REMARK    3  A    between atoms: O_4  and  C_25
REMARK    4  A    between atoms: O_4  and  C_30
REMARK    5  A    between atoms: O_5  and  C_16
REMARK    6  A    between atoms: O_6  and  C_17
REMARK    7  A    between atoms: O_7  and  C_18
REMARK    8  A    between atoms: O_8  and  C_20
REMARK    9  A    between atoms: O_9  and  C_21
REMARK   10  A    between atoms: O_10  and  C_23
REMARK   11  A    between atoms: O_11  and  C_26
REMARK   12  A    between atoms: O_13  and  C_36
REMARK   13  A    between atoms: O_15  and  C_45
REMARK   14  A    between atoms: O_15  and  C_48
REMARK   15  A    between atoms: C_19  and  C_26
REMARK   16  A    between atoms: C_24  and  C_27
REMARK   17  A    between atoms: C_29  and  C_37
REMARK   18  A    between atoms: C_35  and  C_38
REMARK   19  A    between atoms: C_37  and  C_39
REMARK   20  A    between atoms: C_42  and  C_46
REMARK   21  A    between atoms: C_42  and  C_47
REMARK                            x       y       z     vdW  Elec       q    Type
REMARK                         _______ _______ _______ _____ _____    ______ ____
ROOT
ATOM      1  O   UNL     1     -33.423 -60.113  39.721  0.00  0.00    +0.000 OA
ATOM      2  O   UNL     1     -37.395 -60.555  39.003  0.00  0.00    +0.000 OA
ATOM      3  C   UNL     1     -34.524 -61.082  43.073  0.00  0.00    +0.000 A 
ATOM      4  C   UNL     1     -33.682 -60.701  42.012  0.00  0.00    +0.000 A 
ATOM      5  C   UNL     1     -35.253 -59.978  38.147  0.00  0.00    +0.000 A 
ATOM      6  C   UNL     1     -34.261 -60.484  40.745  0.00  0.00    +0.000 A 
ATOM      7  C   UNL     1     -35.632 -60.653  40.549  0.00  0.00    +0.000 A 
ATOM      8  C   UNL     1     -36.192 -60.405  39.215  0.00  0.00    +0.000 A 
ATOM      9  C   UNL     1     -35.891 -61.291  42.866  0.00  0.00    +0.000 A 
ATOM     10  C   UNL     1     -33.957 -59.833  38.477  0.00  0.00    +0.000 A 
ATOM     11  C   UNL     1     -36.443 -61.062  41.611  0.00  0.00    +0.000 A 
ENDROOT
BRANCH  10  12
ATOM     12  C   UNL     1     -32.945 -59.393  37.505  0.00  0.00    +0.000 A 
ATOM     13  C   UNL     1     -32.572 -58.046  37.448  0.00  0.00    +0.000 A 
ATOM     14  C   UNL     1     -32.349 -60.299  36.619  0.00  0.00    +0.000 A 
ATOM     15  C   UNL     1     -31.608 -57.621  36.530  0.00  0.00    +0.000 A 
ATOM     16  C   UNL     1     -31.381 -59.871  35.703  0.00  0.00    +0.000 A 
ATOM     17  C   UNL     1     -31.002 -58.529  35.659  0.00  0.00    +0.000 A 
BRANCH  17  18
ATOM     18  O   UNL     1     -30.073 -57.982  34.819  0.00  0.00    +0.000 OA
ATOM     19  C   UNL     1     -30.043 -56.563  34.731  0.00  0.00    +0.000 C 
ENDBRANCH  17  18
ENDBRANCH  10  12
BRANCH  11  20
ATOM     20  O   UNL     1     -37.790 -61.270  41.491  0.00  0.00    +0.000 OA
ATOM     21  H   UNL     1     -38.229 -60.396  41.390  0.00  0.00    +0.000 HD
ENDBRANCH  11  20
BRANCH   4  22
ATOM     22  C   UNL     1     -32.196 -60.486  42.220  0.00  0.00    +0.000 C 
BRANCH  22  23
ATOM     23  C   UNL     1     -31.875 -59.078  42.652  0.00  0.00    +0.000 C 
ATOM     24  C   UNL     1     -31.227 -58.114  41.969  0.00  0.00    +0.000 C 
ATOM     25  C   UNL     1     -30.673 -58.248  40.578  0.00  0.00    +0.000 C 
ATOM     26  C   UNL     1     -31.009 -56.758  42.589  0.00  0.00    +0.000 C 
ENDBRANCH  22  23
ENDBRANCH   4  22
BRANCH   5  27
ATOM     27  O   UNL     1     -35.748 -59.673  36.892  0.00  0.00    +0.000 OA
BRANCH  27  33
ATOM     28  O   UNL     1     -37.755 -58.772  36.011  0.00  0.00    +0.000 OA
ATOM     29  C   UNL     1     -35.460 -57.278  35.107  0.00  0.00    +0.000 C 
ATOM     30  C   UNL     1     -36.657 -57.557  34.189  0.00  0.00    +0.000 C 
ATOM     31  C   UNL     1     -35.882 -57.273  36.577  0.00  0.00    +0.000 C 
ATOM     32  C   UNL     1     -37.362 -58.844  34.634  0.00  0.00    +0.000 C 
ATOM     33  C   UNL     1     -36.657 -58.565  36.912  0.00  0.00    +0.000 C 
ATOM     34  C   UNL     1     -38.621 -59.103  33.813  0.00  0.00    +0.000 C 
BRANCH  29  35
ATOM     35  O   UNL     1     -34.902 -56.000  34.748  0.00  0.00    +0.000 OA
ATOM     36  H   UNL     1     -35.163 -55.867  33.812  0.00  0.00    +0.000 HD
ENDBRANCH  29  35
BRANCH  30  37
ATOM     37  O   UNL     1     -36.188 -57.662  32.839  0.00  0.00    +0.000 OA
ATOM     38  H   UNL     1     -36.510 -58.530  32.523  0.00  0.00    +0.000 HD
ENDBRANCH  30  37
BRANCH  31  39
ATOM     39  O   UNL     1     -36.674 -56.087  36.798  0.00  0.00    +0.000 OA
ATOM     40  H   UNL     1     -37.510 -56.373  37.210  0.00  0.00    +0.000 HD
ENDBRANCH  31  39
ENDBRANCH  27  33
ENDBRANCH   5  27
BRANCH   3  41
ATOM     41  O   UNL     1     -33.973 -61.349  44.301  0.00  0.00    +0.000 OA
BRANCH  41  47
ATOM     42  O   UNL     1     -33.301 -59.560  45.695  0.00  0.00    +0.000 OA
ATOM     43  C   UNL     1     -35.226 -60.310  47.668  0.00  0.00    +0.000 C 
ATOM     44  C   UNL     1     -34.090 -59.332  47.981  0.00  0.00    +0.000 C 
ATOM     45  C   UNL     1     -34.846 -61.239  46.517  0.00  0.00    +0.000 C 
ATOM     46  C   UNL     1     -33.678 -58.599  46.697  0.00  0.00    +0.000 C 
ATOM     47  C   UNL     1     -34.386 -60.403  45.308  0.00  0.00    +0.000 C 
BRANCH  44  48
ATOM     48  O   UNL     1     -34.527 -58.417  48.988  0.00  0.00    +0.000 OA
ATOM     49  H   UNL     1     -35.294 -57.951  48.595  0.00  0.00    +0.000 HD
ENDBRANCH  44  48
BRANCH  45  50
ATOM     50  O   UNL     1     -35.982 -62.062  46.202  0.00  0.00    +0.000 OA
ATOM     51  H   UNL     1     -35.648 -62.764  45.610  0.00  0.00    +0.000 HD
ENDBRANCH  45  50
BRANCH  43  52
ATOM     52  O   UNL     1     -35.522 -61.074  48.849  0.00  0.00    +0.000 OA
ATOM     53  H   UNL     1     -36.291 -60.626  49.256  0.00  0.00    +0.000 HD
ENDBRANCH  43  52
BRANCH  46  54
ATOM     54  C   UNL     1     -32.485 -57.667  46.949  0.00  0.00    +0.000 C 
BRANCH  54  55
ATOM     55  O   UNL     1     -31.824 -58.046  48.159  0.00  0.00    +0.000 OA
ATOM     56  H   UNL     1     -31.377 -58.891  47.983  0.00  0.00    +0.000 HD
ENDBRANCH  54  55
ENDBRANCH  46  54
ENDBRANCH  41  47
ENDBRANCH   3  41
TORSDOF 17
ENDMDL
