MODEL 1
REMARK VINA RESULT:      -6.6      0.000      0.000
REMARK  Name = 
REMARK  9 active torsions:
REMARK  status: ('A' for Active; 'I' for Inactive)
REMARK    1  A    between atoms: O_1  and  N_7
REMARK    2  A    between atoms: O_1  and  C_20
REMARK    3  A    between atoms: O_2  and  C_14
REMARK    4  A    between atoms: O_3  and  C_18
REMARK    5  A    between atoms: O_4  and  C_25
REMARK    6  A    between atoms: C_8  and  C_10
REMARK    7  A    between atoms: C_17  and  C_18
REMARK    8  A    between atoms: C_17  and  C_20
REMARK    9  A    between atoms: C_18  and  C_25
REMARK                            x       y       z     vdW  Elec       q    Type
REMARK                         _______ _______ _______ _____ _____    ______ ____
ROOT
ATOM      1  N   UNL     1     -34.934 -48.143  52.211  0.00  0.00    +0.000 NA
ATOM      2  N   UNL     1     -31.576 -47.551  53.189  0.00  0.00    +0.000 NA
ATOM      3  C   UNL     1     -33.749 -48.568  52.570  0.00  0.00    +0.000 C 
ATOM      4  C   UNL     1     -32.837 -47.409  52.929  0.00  0.00    +0.000 C 
ATOM      5  C   UNL     1     -33.690 -46.235  52.810  0.00  0.00    +0.000 A 
ATOM      6  C   UNL     1     -34.909 -46.746  52.363  0.00  0.00    +0.000 A 
ATOM      7  C   UNL     1     -33.486 -44.884  53.025  0.00  0.00    +0.000 A 
ATOM      8  C   UNL     1     -35.972 -45.894  52.119  0.00  0.00    +0.000 A 
ATOM      9  C   UNL     1     -34.558 -44.022  52.779  0.00  0.00    +0.000 A 
ATOM     10  C   UNL     1     -35.792 -44.523  52.328  0.00  0.00    +0.000 A 
ENDROOT
BRANCH   3  12
ATOM     11  N   UNL     1     -33.496 -52.153  53.064  0.00  0.00    +0.000 N 
ATOM     12  C   UNL     1     -33.444 -49.980  52.572  0.00  0.00    +0.000 A 
ATOM     13  C   UNL     1     -32.474 -50.665  51.765  0.00  0.00    +0.000 A 
ATOM     14  C   UNL     1     -32.522 -52.017  52.105  0.00  0.00    +0.000 A 
ATOM     15  C   UNL     1     -34.076 -50.942  53.341  0.00  0.00    +0.000 A 
ATOM     16  C   UNL     1     -31.544 -50.258  50.783  0.00  0.00    +0.000 A 
ATOM     17  C   UNL     1     -31.695 -52.980  51.516  0.00  0.00    +0.000 A 
ATOM     18  C   UNL     1     -30.709 -51.207  50.183  0.00  0.00    +0.000 A 
ATOM     19  C   UNL     1     -30.785 -52.549  50.546  0.00  0.00    +0.000 A 
ATOM     20  H   UNL     1     -33.756 -53.036  53.477  0.00  0.00    +0.000 HD
BRANCH  15  21
ATOM     21  O   UNL     1     -35.090 -50.832  54.191  0.00  0.00    +0.000 OA
ATOM     22  H   UNL     1     -35.830 -50.358  53.780  0.00  0.00    +0.000 HD
ENDBRANCH  15  21
ENDBRANCH   3  12
BRANCH   2  23
ATOM     23  O   UNL     1     -30.948 -46.329  53.442  0.00  0.00    +0.000 OA
BRANCH  23  24
ATOM     24  C   UNL     1     -29.559 -46.471  53.158  0.00  0.00    +0.000 C 
BRANCH  24  25
ATOM     25  C   UNL     1     -29.325 -47.781  52.419  0.00  0.00    +0.000 C 
BRANCH  25  26
ATOM     26  C   UNL     1     -28.337 -48.721  53.111  0.00  0.00    +0.000 C 
BRANCH  26  27
ATOM     27  O   UNL     1     -27.873 -48.071  54.304  0.00  0.00    +0.000 OA
ATOM     28  H   UNL     1     -28.179 -48.648  55.032  0.00  0.00    +0.000 HD
ENDBRANCH  26  27
BRANCH  26  29
ATOM     29  C   UNL     1     -28.936 -50.075  53.507  0.00  0.00    +0.000 C 
BRANCH  29  30
ATOM     30  O   UNL     1     -30.114 -49.831  54.284  0.00  0.00    +0.000 OA
ATOM     31  H   UNL     1     -29.937 -50.187  55.174  0.00  0.00    +0.000 HD
ENDBRANCH  29  30
ENDBRANCH  26  29
ENDBRANCH  25  26
ENDBRANCH  24  25
ENDBRANCH  23  24
ENDBRANCH   2  23
TORSDOF 9
ENDMDL
MODEL 2
REMARK VINA RESULT:      -6.4      2.840      6.464
REMARK  Name = 
REMARK  9 active torsions:
REMARK  status: ('A' for Active; 'I' for Inactive)
REMARK    1  A    between atoms: O_1  and  N_7
REMARK    2  A    between atoms: O_1  and  C_20
REMARK    3  A    between atoms: O_2  and  C_14
REMARK    4  A    between atoms: O_3  and  C_18
REMARK    5  A    between atoms: O_4  and  C_25
REMARK    6  A    between atoms: C_8  and  C_10
REMARK    7  A    between atoms: C_17  and  C_18
REMARK    8  A    between atoms: C_17  and  C_20
REMARK    9  A    between atoms: C_18  and  C_25
REMARK                            x       y       z     vdW  Elec       q    Type
REMARK                         _______ _______ _______ _____ _____    ______ ____
ROOT
ATOM      1  N   UNL     1     -35.400 -47.055  52.774  0.00  0.00    +0.000 NA
ATOM      2  N   UNL     1     -32.233 -45.625  52.060  0.00  0.00    +0.000 NA
ATOM      3  C   UNL     1     -34.653 -46.056  52.374  0.00  0.00    +0.000 C 
ATOM      4  C   UNL     1     -33.192 -46.461  52.301  0.00  0.00    +0.000 C 
ATOM      5  C   UNL     1     -33.199 -47.879  52.636  0.00  0.00    +0.000 A 
ATOM      6  C   UNL     1     -34.536 -48.154  52.921  0.00  0.00    +0.000 A 
ATOM      7  C   UNL     1     -32.210 -48.843  52.718  0.00  0.00    +0.000 A 
ATOM      8  C   UNL     1     -34.918 -49.427  53.304  0.00  0.00    +0.000 A 
ATOM      9  C   UNL     1     -32.593 -50.130  53.103  0.00  0.00    +0.000 A 
ATOM     10  C   UNL     1     -33.937 -50.420  53.395  0.00  0.00    +0.000 A 
ENDROOT
BRANCH   3  12
ATOM     11  N   UNL     1     -35.782 -42.612  52.234  0.00  0.00    +0.000 N 
ATOM     12  C   UNL     1     -35.239 -44.768  52.085  0.00  0.00    +0.000 A 
ATOM     13  C   UNL     1     -36.081 -44.422  50.975  0.00  0.00    +0.000 A 
ATOM     14  C   UNL     1     -36.413 -43.073  51.104  0.00  0.00    +0.000 A 
ATOM     15  C   UNL     1     -35.054 -43.613  52.824  0.00  0.00    +0.000 A 
ATOM     16  C   UNL     1     -36.607 -45.134  49.876  0.00  0.00    +0.000 A 
ATOM     17  C   UNL     1     -37.238 -42.401  50.193  0.00  0.00    +0.000 A 
ATOM     18  C   UNL     1     -37.433 -44.480  48.955  0.00  0.00    +0.000 A 
ATOM     19  C   UNL     1     -37.743 -43.132  49.114  0.00  0.00    +0.000 A 
ATOM     20  H   UNL     1     -35.835 -41.657  52.555  0.00  0.00    +0.000 HD
BRANCH  15  21
ATOM     21  O   UNL     1     -34.304 -43.390  53.897  0.00  0.00    +0.000 OA
ATOM     22  H   UNL     1     -34.837 -43.007  54.612  0.00  0.00    +0.000 HD
ENDBRANCH  15  21
ENDBRANCH   3  12
BRANCH   2  23
ATOM     23  O   UNL     1     -30.977 -46.235  52.094  0.00  0.00    +0.000 OA
BRANCH  23  24
ATOM     24  C   UNL     1     -29.985 -45.217  52.188  0.00  0.00    +0.000 C 
BRANCH  24  25
ATOM     25  C   UNL     1     -29.689 -44.933  53.653  0.00  0.00    +0.000 C 
BRANCH  25  26
ATOM     26  C   UNL     1     -30.292 -43.627  54.172  0.00  0.00    +0.000 C 
BRANCH  26  27
ATOM     27  O   UNL     1     -31.648 -43.893  54.561  0.00  0.00    +0.000 OA
ATOM     28  H   UNL     1     -32.118 -44.049  53.718  0.00  0.00    +0.000 HD
ENDBRANCH  26  27
BRANCH  26  29
ATOM     29  C   UNL     1     -29.555 -43.034  55.377  0.00  0.00    +0.000 C 
BRANCH  29  30
ATOM     30  O   UNL     1     -30.347 -43.273  56.545  0.00  0.00    +0.000 OA
ATOM     31  H   UNL     1     -31.176 -43.684  56.239  0.00  0.00    +0.000 HD
ENDBRANCH  29  30
ENDBRANCH  26  29
ENDBRANCH  25  26
ENDBRANCH  24  25
ENDBRANCH  23  24
ENDBRANCH   2  23
TORSDOF 9
ENDMDL
MODEL 3
REMARK VINA RESULT:      -6.0      2.975      5.700
REMARK  Name = 
REMARK  9 active torsions:
REMARK  status: ('A' for Active; 'I' for Inactive)
REMARK    1  A    between atoms: O_1  and  N_7
REMARK    2  A    between atoms: O_1  and  C_20
REMARK    3  A    between atoms: O_2  and  C_14
REMARK    4  A    between atoms: O_3  and  C_18
REMARK    5  A    between atoms: O_4  and  C_25
REMARK    6  A    between atoms: C_8  and  C_10
REMARK    7  A    between atoms: C_17  and  C_18
REMARK    8  A    between atoms: C_17  and  C_20
REMARK    9  A    between atoms: C_18  and  C_25
REMARK                            x       y       z     vdW  Elec       q    Type
REMARK                         _______ _______ _______ _____ _____    ______ ____
ROOT
ATOM      1  N   UNL     1     -30.857 -52.356  52.282  0.00  0.00    +0.000 NA
ATOM      2  N   UNL     1     -31.224 -49.079  53.587  0.00  0.00    +0.000 NA
ATOM      3  C   UNL     1     -31.264 -51.527  53.210  0.00  0.00    +0.000 C 
ATOM      4  C   UNL     1     -31.032 -50.086  52.796  0.00  0.00    +0.000 C 
ATOM      5  C   UNL     1     -30.505 -50.185  51.442  0.00  0.00    +0.000 A 
ATOM      6  C   UNL     1     -30.412 -51.559  51.214  0.00  0.00    +0.000 A 
ATOM      7  C   UNL     1     -30.121 -49.249  50.498  0.00  0.00    +0.000 A 
ATOM      8  C   UNL     1     -29.922 -52.032  50.010  0.00  0.00    +0.000 A 
ATOM      9  C   UNL     1     -29.626 -49.725  49.281  0.00  0.00    +0.000 A 
ATOM     10  C   UNL     1     -29.526 -51.106  49.038  0.00  0.00    +0.000 A 
ENDROOT
BRANCH   3  12
ATOM     11  N   UNL     1     -33.282 -52.479  56.069  0.00  0.00    +0.000 N 
ATOM     12  C   UNL     1     -31.828 -52.024  54.444  0.00  0.00    +0.000 A 
ATOM     13  C   UNL     1     -31.163 -52.781  55.466  0.00  0.00    +0.000 A 
ATOM     14  C   UNL     1     -32.094 -53.039  56.472  0.00  0.00    +0.000 A 
ATOM     15  C   UNL     1     -33.146 -51.884  54.842  0.00  0.00    +0.000 A 
ATOM     16  C   UNL     1     -29.847 -53.262  55.638  0.00  0.00    +0.000 A 
ATOM     17  C   UNL     1     -31.780 -53.751  57.636  0.00  0.00    +0.000 A 
ATOM     18  C   UNL     1     -29.515 -53.976  56.794  0.00  0.00    +0.000 A 
ATOM     19  C   UNL     1     -30.469 -54.215  57.778  0.00  0.00    +0.000 A 
ATOM     20  H   UNL     1     -34.137 -52.534  56.603  0.00  0.00    +0.000 HD
BRANCH  15  21
ATOM     21  O   UNL     1     -34.179 -51.331  54.216  0.00  0.00    +0.000 OA
ATOM     22  H   UNL     1     -34.289 -51.717  53.332  0.00  0.00    +0.000 HD
ENDBRANCH  15  21
ENDBRANCH   3  12
BRANCH   2  23
ATOM     23  O   UNL     1     -30.894 -47.862  52.986  0.00  0.00    +0.000 OA
BRANCH  23  24
ATOM     24  C   UNL     1     -32.035 -47.010  53.038  0.00  0.00    +0.000 C 
BRANCH  24  25
ATOM     25  C   UNL     1     -32.853 -47.183  51.767  0.00  0.00    +0.000 C 
BRANCH  25  26
ATOM     26  C   UNL     1     -33.811 -46.027  51.478  0.00  0.00    +0.000 C 
BRANCH  26  27
ATOM     27  O   UNL     1     -34.314 -46.195  50.144  0.00  0.00    +0.000 OA
ATOM     28  H   UNL     1     -33.582 -45.894  49.568  0.00  0.00    +0.000 HD
ENDBRANCH  26  27
BRANCH  26  29
ATOM     29  C   UNL     1     -35.006 -45.952  52.434  0.00  0.00    +0.000 C 
BRANCH  29  30
ATOM     30  O   UNL     1     -35.521 -47.276  52.609  0.00  0.00    +0.000 OA
ATOM     31  H   UNL     1     -34.752 -47.855  52.758  0.00  0.00    +0.000 HD
ENDBRANCH  29  30
ENDBRANCH  26  29
ENDBRANCH  25  26
ENDBRANCH  24  25
ENDBRANCH  23  24
ENDBRANCH   2  23
TORSDOF 9
ENDMDL
MODEL 4
REMARK VINA RESULT:      -6.0     21.679     24.097
REMARK  Name = 
REMARK  9 active torsions:
REMARK  status: ('A' for Active; 'I' for Inactive)
REMARK    1  A    between atoms: O_1  and  N_7
REMARK    2  A    between atoms: O_1  and  C_20
REMARK    3  A    between atoms: O_2  and  C_14
REMARK    4  A    between atoms: O_3  and  C_18
REMARK    5  A    between atoms: O_4  and  C_25
REMARK    6  A    between atoms: C_8  and  C_10
REMARK    7  A    between atoms: C_17  and  C_18
REMARK    8  A    between atoms: C_17  and  C_20
REMARK    9  A    between atoms: C_18  and  C_25
REMARK                            x       y       z     vdW  Elec       q    Type
REMARK                         _______ _______ _______ _____ _____    ______ ____
ROOT
ATOM      1  N   UNL     1     -47.060 -62.019  39.885  0.00  0.00    +0.000 NA
ATOM      2  N   UNL     1     -45.653 -65.273  40.004  0.00  0.00    +0.000 NA
ATOM      3  C   UNL     1     -46.493 -63.003  40.536  0.00  0.00    +0.000 C 
ATOM      4  C   UNL     1     -46.108 -64.131  39.596  0.00  0.00    +0.000 C 
ATOM      5  C   UNL     1     -46.455 -63.626  38.275  0.00  0.00    +0.000 A 
ATOM      6  C   UNL     1     -47.029 -62.380  38.528  0.00  0.00    +0.000 A 
ATOM      7  C   UNL     1     -46.332 -64.141  36.996  0.00  0.00    +0.000 A 
ATOM      8  C   UNL     1     -47.503 -61.608  37.481  0.00  0.00    +0.000 A 
ATOM      9  C   UNL     1     -46.809 -63.363  35.939  0.00  0.00    +0.000 A 
ATOM     10  C   UNL     1     -47.391 -62.106  36.179  0.00  0.00    +0.000 A 
ENDROOT
BRANCH   3  12
ATOM     11  N   UNL     1     -45.463 -63.195  44.009  0.00  0.00    +0.000 N 
ATOM     12  C   UNL     1     -46.321 -62.935  41.969  0.00  0.00    +0.000 A 
ATOM     13  C   UNL     1     -47.182 -62.294  42.922  0.00  0.00    +0.000 A 
ATOM     14  C   UNL     1     -46.626 -62.485  44.187  0.00  0.00    +0.000 A 
ATOM     15  C   UNL     1     -45.253 -63.455  42.680  0.00  0.00    +0.000 A 
ATOM     16  C   UNL     1     -48.396 -61.579  42.830  0.00  0.00    +0.000 A 
ATOM     17  C   UNL     1     -47.216 -61.999  45.360  0.00  0.00    +0.000 A 
ATOM     18  C   UNL     1     -49.000 -61.085  43.991  0.00  0.00    +0.000 A 
ATOM     19  C   UNL     1     -48.417 -61.293  45.238  0.00  0.00    +0.000 A 
ATOM     20  H   UNL     1     -44.845 -63.455  44.762  0.00  0.00    +0.000 HD
BRANCH  15  21
ATOM     21  O   UNL     1     -44.157 -64.073  42.254  0.00  0.00    +0.000 OA
ATOM     22  H   UNL     1     -43.906 -63.754  41.372  0.00  0.00    +0.000 HD
ENDBRANCH  15  21
ENDBRANCH   3  12
BRANCH   2  23
ATOM     23  O   UNL     1     -45.419 -66.157  38.948  0.00  0.00    +0.000 OA
BRANCH  23  24
ATOM     24  C   UNL     1     -44.566 -67.198  39.415  0.00  0.00    +0.000 C 
BRANCH  24  25
ATOM     25  C   UNL     1     -43.342 -66.588  40.084  0.00  0.00    +0.000 C 
BRANCH  25  26
ATOM     26  C   UNL     1     -42.604 -67.541  41.024  0.00  0.00    +0.000 C 
BRANCH  26  27
ATOM     27  O   UNL     1     -41.208 -67.207  40.983  0.00  0.00    +0.000 OA
ATOM     28  H   UNL     1     -41.077 -66.820  40.094  0.00  0.00    +0.000 HD
ENDBRANCH  26  27
BRANCH  26  29
ATOM     29  C   UNL     1     -43.071 -67.465  42.482  0.00  0.00    +0.000 C 
BRANCH  29  30
ATOM     30  O   UNL     1     -43.814 -68.653  42.774  0.00  0.00    +0.000 OA
ATOM     31  H   UNL     1     -43.312 -69.395  42.391  0.00  0.00    +0.000 HD
ENDBRANCH  29  30
ENDBRANCH  26  29
ENDBRANCH  25  26
ENDBRANCH  24  25
ENDBRANCH  23  24
ENDBRANCH   2  23
TORSDOF 9
ENDMDL
MODEL 5
REMARK VINA RESULT:      -6.0     21.386     23.234
REMARK  Name = 
REMARK  9 active torsions:
REMARK  status: ('A' for Active; 'I' for Inactive)
REMARK    1  A    between atoms: O_1  and  N_7
REMARK    2  A    between atoms: O_1  and  C_20
REMARK    3  A    between atoms: O_2  and  C_14
REMARK    4  A    between atoms: O_3  and  C_18
REMARK    5  A    between atoms: O_4  and  C_25
REMARK    6  A    between atoms: C_8  and  C_10
REMARK    7  A    between atoms: C_17  and  C_18
REMARK    8  A    between atoms: C_17  and  C_20
REMARK    9  A    between atoms: C_18  and  C_25
REMARK                            x       y       z     vdW  Elec       q    Type
REMARK                         _______ _______ _______ _____ _____    ______ ____
ROOT
ATOM      1  N   UNL     1     -47.286 -62.754  38.953  0.00  0.00    +0.000 NA
ATOM      2  N   UNL     1     -43.998 -61.629  38.244  0.00  0.00    +0.000 NA
ATOM      3  C   UNL     1     -46.041 -62.545  39.303  0.00  0.00    +0.000 C 
ATOM      4  C   UNL     1     -45.276 -61.834  38.203  0.00  0.00    +0.000 C 
ATOM      5  C   UNL     1     -46.281 -61.575  37.180  0.00  0.00    +0.000 A 
ATOM      6  C   UNL     1     -47.439 -62.164  37.687  0.00  0.00    +0.000 A 
ATOM      7  C   UNL     1     -46.247 -60.941  35.951  0.00  0.00    +0.000 A 
ATOM      8  C   UNL     1     -48.614 -62.128  36.956  0.00  0.00    +0.000 A 
ATOM      9  C   UNL     1     -47.432 -60.902  35.212  0.00  0.00    +0.000 A 
ATOM     10  C   UNL     1     -48.607 -61.493  35.710  0.00  0.00    +0.000 A 
ENDROOT
BRANCH   3  12
ATOM     11  N   UNL     1     -44.386 -64.082  42.141  0.00  0.00    +0.000 N 
ATOM     12  C   UNL     1     -45.553 -62.992  40.587  0.00  0.00    +0.000 A 
ATOM     13  C   UNL     1     -45.971 -62.542  41.885  0.00  0.00    +0.000 A 
ATOM     14  C   UNL     1     -45.233 -63.250  42.834  0.00  0.00    +0.000 A 
ATOM     15  C   UNL     1     -44.550 -63.923  40.789  0.00  0.00    +0.000 A 
ATOM     16  C   UNL     1     -46.922 -61.606  42.345  0.00  0.00    +0.000 A 
ATOM     17  C   UNL     1     -45.393 -63.071  44.213  0.00  0.00    +0.000 A 
ATOM     18  C   UNL     1     -47.096 -61.412  43.720  0.00  0.00    +0.000 A 
ATOM     19  C   UNL     1     -46.341 -62.136  44.639  0.00  0.00    +0.000 A 
ATOM     20  H   UNL     1     -43.720 -64.697  42.583  0.00  0.00    +0.000 HD
BRANCH  15  21
ATOM     21  O   UNL     1     -43.793 -64.575  39.914  0.00  0.00    +0.000 OA
ATOM     22  H   UNL     1     -42.862 -64.316  40.008  0.00  0.00    +0.000 HD
ENDBRANCH  15  21
ENDBRANCH   3  12
BRANCH   2  23
ATOM     23  O   UNL     1     -43.525 -60.999  37.090  0.00  0.00    +0.000 OA
BRANCH  23  24
ATOM     24  C   UNL     1     -43.130 -59.673  37.432  0.00  0.00    +0.000 C 
BRANCH  24  25
ATOM     25  C   UNL     1     -42.284 -59.092  36.308  0.00  0.00    +0.000 C 
BRANCH  25  26
ATOM     26  C   UNL     1     -42.408 -57.576  36.152  0.00  0.00    +0.000 C 
BRANCH  26  27
ATOM     27  O   UNL     1     -41.227 -57.104  35.485  0.00  0.00    +0.000 OA
ATOM     28  H   UNL     1     -40.783 -57.918  35.173  0.00  0.00    +0.000 HD
ENDBRANCH  26  27
BRANCH  26  29
ATOM     29  C   UNL     1     -43.628 -57.130  35.340  0.00  0.00    +0.000 C 
BRANCH  29  30
ATOM     30  O   UNL     1     -44.518 -56.432  36.218  0.00  0.00    +0.000 OA
ATOM     31  H   UNL     1     -44.094 -56.427  37.095  0.00  0.00    +0.000 HD
ENDBRANCH  29  30
ENDBRANCH  26  29
ENDBRANCH  25  26
ENDBRANCH  24  25
ENDBRANCH  23  24
ENDBRANCH   2  23
TORSDOF 9
ENDMDL
MODEL 6
REMARK VINA RESULT:      -5.9     21.670     23.561
REMARK  Name = 
REMARK  9 active torsions:
REMARK  status: ('A' for Active; 'I' for Inactive)
REMARK    1  A    between atoms: O_1  and  N_7
REMARK    2  A    between atoms: O_1  and  C_20
REMARK    3  A    between atoms: O_2  and  C_14
REMARK    4  A    between atoms: O_3  and  C_18
REMARK    5  A    between atoms: O_4  and  C_25
REMARK    6  A    between atoms: C_8  and  C_10
REMARK    7  A    between atoms: C_17  and  C_18
REMARK    8  A    between atoms: C_17  and  C_20
REMARK    9  A    between atoms: C_18  and  C_25
REMARK                            x       y       z     vdW  Elec       q    Type
REMARK                         _______ _______ _______ _____ _____    ______ ____
ROOT
ATOM      1  N   UNL     1     -43.195 -61.936  39.739  0.00  0.00    +0.000 NA
ATOM      2  N   UNL     1     -45.575 -61.547  37.139  0.00  0.00    +0.000 NA
ATOM      3  C   UNL     1     -43.532 -61.533  38.540  0.00  0.00    +0.000 C 
ATOM      4  C   UNL     1     -45.015 -61.740  38.290  0.00  0.00    +0.000 C 
ATOM      5  C   UNL     1     -45.521 -62.248  39.557  0.00  0.00    +0.000 A 
ATOM      6  C   UNL     1     -44.385 -62.355  40.359  0.00  0.00    +0.000 A 
ATOM      7  C   UNL     1     -46.781 -62.607  40.005  0.00  0.00    +0.000 A 
ATOM      8  C   UNL     1     -44.489 -62.833  41.653  0.00  0.00    +0.000 A 
ATOM      9  C   UNL     1     -46.889 -63.089  41.311  0.00  0.00    +0.000 A 
ATOM     10  C   UNL     1     -45.751 -63.203  42.130  0.00  0.00    +0.000 A 
ENDROOT
BRANCH   3  12
ATOM     11  N   UNL     1     -40.738 -60.818  36.340  0.00  0.00    +0.000 N 
ATOM     12  C   UNL     1     -42.540 -60.993  37.640  0.00  0.00    +0.000 A 
ATOM     13  C   UNL     1     -42.518 -59.686  37.047  0.00  0.00    +0.000 A 
ATOM     14  C   UNL     1     -41.375 -59.603  36.251  0.00  0.00    +0.000 A 
ATOM     15  C   UNL     1     -41.437 -61.673  37.153  0.00  0.00    +0.000 A 
ATOM     16  C   UNL     1     -43.358 -58.554  37.123  0.00  0.00    +0.000 A 
ATOM     17  C   UNL     1     -41.030 -58.455  35.529  0.00  0.00    +0.000 A 
ATOM     18  C   UNL     1     -43.030 -57.397  36.408  0.00  0.00    +0.000 A 
ATOM     19  C   UNL     1     -41.882 -57.350  35.623  0.00  0.00    +0.000 A 
ATOM     20  H   UNL     1     -39.889 -61.043  35.844  0.00  0.00    +0.000 HD
BRANCH  15  21
ATOM     21  O   UNL     1     -41.050 -62.930  37.340  0.00  0.00    +0.000 OA
ATOM     22  H   UNL     1     -40.389 -63.186  36.677  0.00  0.00    +0.000 HD
ENDBRANCH  15  21
ENDBRANCH   3  12
BRANCH   2  23
ATOM     23  O   UNL     1     -46.938 -61.853  37.156  0.00  0.00    +0.000 OA
BRANCH  23  24
ATOM     24  C   UNL     1     -47.404 -61.906  35.810  0.00  0.00    +0.000 C 
BRANCH  24  25
ATOM     25  C   UNL     1     -46.337 -61.342  34.883  0.00  0.00    +0.000 C 
BRANCH  25  26
ATOM     26  C   UNL     1     -46.551 -59.877  34.502  0.00  0.00    +0.000 C 
BRANCH  26  27
ATOM     27  O   UNL     1     -47.004 -59.179  35.672  0.00  0.00    +0.000 OA
ATOM     28  H   UNL     1     -47.010 -58.238  35.406  0.00  0.00    +0.000 HD
ENDBRANCH  26  27
BRANCH  26  29
ATOM     29  C   UNL     1     -45.291 -59.176  33.983  0.00  0.00    +0.000 C 
BRANCH  29  30
ATOM     30  O   UNL     1     -44.205 -60.106  34.050  0.00  0.00    +0.000 OA
ATOM     31  H   UNL     1     -43.977 -60.199  34.993  0.00  0.00    +0.000 HD
ENDBRANCH  29  30
ENDBRANCH  26  29
ENDBRANCH  25  26
ENDBRANCH  24  25
ENDBRANCH  23  24
ENDBRANCH   2  23
TORSDOF 9
ENDMDL
MODEL 7
REMARK VINA RESULT:      -5.9     24.880     28.371
REMARK  Name = 
REMARK  9 active torsions:
REMARK  status: ('A' for Active; 'I' for Inactive)
REMARK    1  A    between atoms: O_1  and  N_7
REMARK    2  A    between atoms: O_1  and  C_20
REMARK    3  A    between atoms: O_2  and  C_14
REMARK    4  A    between atoms: O_3  and  C_18
REMARK    5  A    between atoms: O_4  and  C_25
REMARK    6  A    between atoms: C_8  and  C_10
REMARK    7  A    between atoms: C_17  and  C_18
REMARK    8  A    between atoms: C_17  and  C_20
REMARK    9  A    between atoms: C_18  and  C_25
REMARK                            x       y       z     vdW  Elec       q    Type
REMARK                         _______ _______ _______ _____ _____    ______ ____
ROOT
ATOM      1  N   UNL     1     -53.395 -41.802  36.858  0.00  0.00    +0.000 NA
ATOM      2  N   UNL     1     -56.509 -40.999  38.354  0.00  0.00    +0.000 NA
ATOM      3  C   UNL     1     -54.146 -41.598  37.911  0.00  0.00    +0.000 C 
ATOM      4  C   UNL     1     -55.590 -41.356  37.514  0.00  0.00    +0.000 C 
ATOM      5  C   UNL     1     -55.596 -41.534  36.068  0.00  0.00    +0.000 A 
ATOM      6  C   UNL     1     -54.259 -41.777  35.751  0.00  0.00    +0.000 A 
ATOM      7  C   UNL     1     -56.589 -41.483  35.106  0.00  0.00    +0.000 A 
ATOM      8  C   UNL     1     -53.883 -41.979  34.435  0.00  0.00    +0.000 A 
ATOM      9  C   UNL     1     -56.212 -41.687  33.777  0.00  0.00    +0.000 A 
ATOM     10  C   UNL     1     -54.868 -41.932  33.443  0.00  0.00    +0.000 A 
ENDROOT
BRANCH   3  12
ATOM     11  N   UNL     1     -53.380 -41.585  41.457  0.00  0.00    +0.000 N 
ATOM     12  C   UNL     1     -53.572 -41.603  39.237  0.00  0.00    +0.000 A 
ATOM     13  C   UNL     1     -52.181 -41.671  39.586  0.00  0.00    +0.000 A 
ATOM     14  C   UNL     1     -52.094 -41.645  40.978  0.00  0.00    +0.000 A 
ATOM     15  C   UNL     1     -54.282 -41.581  40.424  0.00  0.00    +0.000 A 
ATOM     16  C   UNL     1     -50.981 -41.738  38.846  0.00  0.00    +0.000 A 
ATOM     17  C   UNL     1     -50.876 -41.684  41.666  0.00  0.00    +0.000 A 
ATOM     18  C   UNL     1     -49.753 -41.779  39.516  0.00  0.00    +0.000 A 
ATOM     19  C   UNL     1     -49.704 -41.752  40.907  0.00  0.00    +0.000 A 
ATOM     20  H   UNL     1     -53.613 -41.575  42.438  0.00  0.00    +0.000 HD
BRANCH  15  21
ATOM     21  O   UNL     1     -55.593 -41.593  40.642  0.00  0.00    +0.000 OA
ATOM     22  H   UNL     1     -55.808 -41.099  41.450  0.00  0.00    +0.000 HD
ENDBRANCH  15  21
ENDBRANCH   3  12
BRANCH   2  23
ATOM     23  O   UNL     1     -57.743 -40.793  37.733  0.00  0.00    +0.000 OA
BRANCH  23  24
ATOM     24  C   UNL     1     -58.108 -39.426  37.902  0.00  0.00    +0.000 C 
BRANCH  24  25
ATOM     25  C   UNL     1     -58.458 -39.172  39.361  0.00  0.00    +0.000 C 
BRANCH  25  26
ATOM     26  C   UNL     1     -59.779 -39.800  39.805  0.00  0.00    +0.000 C 
BRANCH  26  27
ATOM     27  O   UNL     1     -60.404 -40.377  38.648  0.00  0.00    +0.000 OA
ATOM     28  H   UNL     1     -59.670 -40.505  38.014  0.00  0.00    +0.000 HD
ENDBRANCH  26  27
BRANCH  26  29
ATOM     29  C   UNL     1     -59.624 -40.898  40.863  0.00  0.00    +0.000 C 
BRANCH  29  30
ATOM     30  O   UNL     1     -58.289 -41.408  40.783  0.00  0.00    +0.000 OA
ATOM     31  H   UNL     1     -58.056 -41.715  41.678  0.00  0.00    +0.000 HD
ENDBRANCH  29  30
ENDBRANCH  26  29
ENDBRANCH  25  26
ENDBRANCH  24  25
ENDBRANCH  23  24
ENDBRANCH   2  23
TORSDOF 9
ENDMDL
MODEL 8
REMARK VINA RESULT:      -5.8      2.221      5.991
REMARK  Name = 
REMARK  9 active torsions:
REMARK  status: ('A' for Active; 'I' for Inactive)
REMARK    1  A    between atoms: O_1  and  N_7
REMARK    2  A    between atoms: O_1  and  C_20
REMARK    3  A    between atoms: O_2  and  C_14
REMARK    4  A    between atoms: O_3  and  C_18
REMARK    5  A    between atoms: O_4  and  C_25
REMARK    6  A    between atoms: C_8  and  C_10
REMARK    7  A    between atoms: C_17  and  C_18
REMARK    8  A    between atoms: C_17  and  C_20
REMARK    9  A    between atoms: C_18  and  C_25
REMARK                            x       y       z     vdW  Elec       q    Type
REMARK                         _______ _______ _______ _____ _____    ______ ____
ROOT
ATOM      1  N   UNL     1     -35.437 -47.334  52.897  0.00  0.00    +0.000 NA
ATOM      2  N   UNL     1     -32.326 -46.197  51.627  0.00  0.00    +0.000 NA
ATOM      3  C   UNL     1     -34.685 -46.408  52.356  0.00  0.00    +0.000 C 
ATOM      4  C   UNL     1     -33.299 -46.944  52.043  0.00  0.00    +0.000 C 
ATOM      5  C   UNL     1     -33.374 -48.354  52.401  0.00  0.00    +0.000 A 
ATOM      6  C   UNL     1     -34.662 -48.506  52.915  0.00  0.00    +0.000 A 
ATOM      7  C   UNL     1     -32.474 -49.402  52.332  0.00  0.00    +0.000 A 
ATOM      8  C   UNL     1     -35.083 -49.739  53.381  0.00  0.00    +0.000 A 
ATOM      9  C   UNL     1     -32.898 -50.648  52.801  0.00  0.00    +0.000 A 
ATOM     10  C   UNL     1     -34.192 -50.816  53.323  0.00  0.00    +0.000 A 
ENDROOT
BRANCH   3  12
ATOM     11  N   UNL     1     -35.531 -42.881  52.362  0.00  0.00    +0.000 N 
ATOM     12  C   UNL     1     -35.196 -45.074  52.147  0.00  0.00    +0.000 A 
ATOM     13  C   UNL     1     -36.153 -44.650  51.165  0.00  0.00    +0.000 A 
ATOM     14  C   UNL     1     -36.350 -43.279  51.333  0.00  0.00    +0.000 A 
ATOM     15  C   UNL     1     -34.814 -43.944  52.848  0.00  0.00    +0.000 A 
ATOM     16  C   UNL     1     -36.885 -45.308  50.153  0.00  0.00    +0.000 A 
ATOM     17  C   UNL     1     -37.235 -42.534  50.545  0.00  0.00    +0.000 A 
ATOM     18  C   UNL     1     -37.774 -44.580  49.354  0.00  0.00    +0.000 A 
ATOM     19  C   UNL     1     -37.946 -43.212  49.550  0.00  0.00    +0.000 A 
ATOM     20  H   UNL     1     -35.458 -41.928  52.684  0.00  0.00    +0.000 HD
BRANCH  15  21
ATOM     21  O   UNL     1     -33.905 -43.792  53.805  0.00  0.00    +0.000 OA
ATOM     22  H   UNL     1     -34.211 -43.153  54.468  0.00  0.00    +0.000 HD
ENDBRANCH  15  21
ENDBRANCH   3  12
BRANCH   2  23
ATOM     23  O   UNL     1     -31.142 -46.919  51.457  0.00  0.00    +0.000 OA
BRANCH  23  24
ATOM     24  C   UNL     1     -30.100 -46.241  52.153  0.00  0.00    +0.000 C 
BRANCH  24  25
ATOM     25  C   UNL     1     -28.786 -46.978  51.939  0.00  0.00    +0.000 C 
BRANCH  25  26
ATOM     26  C   UNL     1     -28.642 -48.254  52.769  0.00  0.00    +0.000 C 
BRANCH  26  27
ATOM     27  O   UNL     1     -29.659 -48.236  53.783  0.00  0.00    +0.000 OA
ATOM     28  H   UNL     1     -29.275 -47.697  54.503  0.00  0.00    +0.000 HD
ENDBRANCH  26  27
BRANCH  26  29
ATOM     29  C   UNL     1     -28.795 -49.546  51.960  0.00  0.00    +0.000 C 
BRANCH  29  30
ATOM     30  O   UNL     1     -28.368 -49.285  50.619  0.00  0.00    +0.000 OA
ATOM     31  H   UNL     1     -28.406 -50.135  50.145  0.00  0.00    +0.000 HD
ENDBRANCH  29  30
ENDBRANCH  26  29
ENDBRANCH  25  26
ENDBRANCH  24  25
ENDBRANCH  23  24
ENDBRANCH   2  23
TORSDOF 9
ENDMDL
MODEL 9
REMARK VINA RESULT:      -5.8      3.807      7.370
REMARK  Name = 
REMARK  9 active torsions:
REMARK  status: ('A' for Active; 'I' for Inactive)
REMARK    1  A    between atoms: O_1  and  N_7
REMARK    2  A    between atoms: O_1  and  C_20
REMARK    3  A    between atoms: O_2  and  C_14
REMARK    4  A    between atoms: O_3  and  C_18
REMARK    5  A    between atoms: O_4  and  C_25
REMARK    6  A    between atoms: C_8  and  C_10
REMARK    7  A    between atoms: C_17  and  C_18
REMARK    8  A    between atoms: C_17  and  C_20
REMARK    9  A    between atoms: C_18  and  C_25
REMARK                            x       y       z     vdW  Elec       q    Type
REMARK                         _______ _______ _______ _____ _____    ______ ____
ROOT
ATOM      1  N   UNL     1     -30.148 -54.262  54.371  0.00  0.00    +0.000 NA
ATOM      2  N   UNL     1     -32.454 -51.583  54.081  0.00  0.00    +0.000 NA
ATOM      3  C   UNL     1     -30.919 -53.346  54.901  0.00  0.00    +0.000 C 
ATOM      4  C   UNL     1     -31.718 -52.619  53.835  0.00  0.00    +0.000 C 
ATOM      5  C   UNL     1     -31.366 -53.305  52.599  0.00  0.00    +0.000 A 
ATOM      6  C   UNL     1     -30.420 -54.251  52.993  0.00  0.00    +0.000 A 
ATOM      7  C   UNL     1     -31.764 -53.158  51.282  0.00  0.00    +0.000 A 
ATOM      8  C   UNL     1     -29.840 -55.087  52.054  0.00  0.00    +0.000 A 
ATOM      9  C   UNL     1     -31.181 -54.001  50.333  0.00  0.00    +0.000 A 
ATOM     10  C   UNL     1     -30.225 -54.958  50.716  0.00  0.00    +0.000 A 
ENDROOT
BRANCH   3  12
ATOM     11  N   UNL     1     -31.628 -52.767  58.411  0.00  0.00    +0.000 N 
ATOM     12  C   UNL     1     -30.919 -53.121  56.328  0.00  0.00    +0.000 A 
ATOM     13  C   UNL     1     -29.782 -53.048  57.201  0.00  0.00    +0.000 A 
ATOM     14  C   UNL     1     -30.257 -52.814  58.492  0.00  0.00    +0.000 A 
ATOM     15  C   UNL     1     -32.044 -52.972  57.121  0.00  0.00    +0.000 A 
ATOM     16  C   UNL     1     -28.387 -53.146  57.013  0.00  0.00    +0.000 A 
ATOM     17  C   UNL     1     -29.413 -52.675  59.600  0.00  0.00    +0.000 A 
ATOM     18  C   UNL     1     -27.528 -53.009  58.109  0.00  0.00    +0.000 A 
ATOM     19  C   UNL     1     -28.036 -52.777  59.384  0.00  0.00    +0.000 A 
ATOM     20  H   UNL     1     -32.231 -52.629  59.207  0.00  0.00    +0.000 HD
BRANCH  15  21
ATOM     21  O   UNL     1     -33.333 -53.035  56.806  0.00  0.00    +0.000 OA
ATOM     22  H   UNL     1     -33.806 -53.620  57.420  0.00  0.00    +0.000 HD
ENDBRANCH  15  21
ENDBRANCH   3  12
BRANCH   2  23
ATOM     23  O   UNL     1     -33.047 -51.069  52.925  0.00  0.00    +0.000 OA
BRANCH  23  24
ATOM     24  C   UNL     1     -34.441 -50.906  53.170  0.00  0.00    +0.000 C 
BRANCH  24  25
ATOM     25  C   UNL     1     -34.747 -49.432  53.392  0.00  0.00    +0.000 C 
BRANCH  25  26
ATOM     26  C   UNL     1     -33.734 -48.481  52.756  0.00  0.00    +0.000 C 
BRANCH  26  27
ATOM     27  O   UNL     1     -33.885 -48.565  51.330  0.00  0.00    +0.000 OA
ATOM     28  H   UNL     1     -33.832 -49.522  51.136  0.00  0.00    +0.000 HD
ENDBRANCH  26  27
BRANCH  26  29
ATOM     29  C   UNL     1     -33.907 -47.016  53.170  0.00  0.00    +0.000 C 
BRANCH  29  30
ATOM     30  O   UNL     1     -35.243 -46.617  52.846  0.00  0.00    +0.000 OA
ATOM     31  H   UNL     1     -35.239 -45.644  52.800  0.00  0.00    +0.000 HD
ENDBRANCH  29  30
ENDBRANCH  26  29
ENDBRANCH  25  26
ENDBRANCH  24  25
ENDBRANCH  23  24
ENDBRANCH   2  23
TORSDOF 9
ENDMDL
