MODEL 1
REMARK VINA RESULT:      -7.1      0.000      0.000
REMARK  Name = 
REMARK  6 active torsions:
REMARK  status: ('A' for Active; 'I' for Inactive)
REMARK    1  A    between atoms: O_3  and  C_16
REMARK    2  A    between atoms: O_4  and  C_17
REMARK    3  A    between atoms: O_4  and  C_22
REMARK    4  A    between atoms: O_5  and  C_19
REMARK    5  A    between atoms: O_5  and  C_23
REMARK    6  A    between atoms: O_6  and  C_21
REMARK                            x       y       z     vdW  Elec       q    Type
REMARK                         _______ _______ _______ _____ _____    ______ ____
ROOT
ATOM      1  O   UNL     1     -59.827 -64.617  40.183  0.00  0.00    +0.000 OA
ATOM      2  O   UNL     1     -63.520 -64.171  41.505  0.00  0.00    +0.000 OA
ATOM      3  C   UNL     1     -62.145 -64.532  39.502  0.00  0.00    +0.000 C 
ATOM      4  C   UNL     1     -60.989 -63.750  40.134  0.00  0.00    +0.000 C 
ATOM      5  C   UNL     1     -61.688 -65.922  39.782  0.00  0.00    +0.000 A 
ATOM      6  C   UNL     1     -63.478 -64.106  40.081  0.00  0.00    +0.000 C 
ATOM      7  C   UNL     1     -61.292 -63.221  41.520  0.00  0.00    +0.000 A 
ATOM      8  C   UNL     1     -60.346 -65.887  40.130  0.00  0.00    +0.000 A 
ATOM      9  C   UNL     1     -62.528 -63.470  42.139  0.00  0.00    +0.000 A 
ATOM     10  C   UNL     1     -62.363 -67.126  39.679  0.00  0.00    +0.000 A 
ATOM     11  C   UNL     1     -60.314 -62.471  42.199  0.00  0.00    +0.000 A 
ATOM     12  C   UNL     1     -59.643 -67.048  40.380  0.00  0.00    +0.000 A 
ATOM     13  C   UNL     1     -62.758 -63.015  43.445  0.00  0.00    +0.000 A 
ATOM     14  C   UNL     1     -61.664 -68.313  39.945  0.00  0.00    +0.000 A 
ATOM     15  C   UNL     1     -60.304 -68.280  40.294  0.00  0.00    +0.000 A 
ATOM     16  C   UNL     1     -60.562 -61.972  43.474  0.00  0.00    +0.000 A 
ATOM     17  C   UNL     1     -61.779 -62.242  44.080  0.00  0.00    +0.000 A 
ENDROOT
BRANCH  12  18
ATOM     18  O   UNL     1     -58.319 -66.996  40.714  0.00  0.00    +0.000 OA
ATOM     19  H   UNL     1     -58.106 -66.046  40.761  0.00  0.00    +0.000 HD
ENDBRANCH  12  18
BRANCH  13  20
ATOM     20  O   UNL     1     -63.908 -63.198  44.176  0.00  0.00    +0.000 OA
ATOM     21  C   UNL     1     -64.051 -64.502  44.735  0.00  0.00    +0.000 C 
ENDBRANCH  13  20
BRANCH  15  22
ATOM     22  O   UNL     1     -59.519 -69.374  40.568  0.00  0.00    +0.000 OA
ATOM     23  C   UNL     1     -59.882 -70.155  41.701  0.00  0.00    +0.000 C 
ENDBRANCH  15  22
BRANCH  17  24
ATOM     24  O   UNL     1     -62.003 -61.742  45.335  0.00  0.00    +0.000 OA
ATOM     25  H   UNL     1     -61.151 -61.349  45.603  0.00  0.00    +0.000 HD
ENDBRANCH  17  24
TORSDOF 4
ENDMDL
MODEL 2
REMARK VINA RESULT:      -6.5      2.660      4.014
REMARK  Name = 
REMARK  6 active torsions:
REMARK  status: ('A' for Active; 'I' for Inactive)
REMARK    1  A    between atoms: O_3  and  C_16
REMARK    2  A    between atoms: O_4  and  C_17
REMARK    3  A    between atoms: O_4  and  C_22
REMARK    4  A    between atoms: O_5  and  C_19
REMARK    5  A    between atoms: O_5  and  C_23
REMARK    6  A    between atoms: O_6  and  C_21
REMARK                            x       y       z     vdW  Elec       q    Type
REMARK                         _______ _______ _______ _____ _____    ______ ____
ROOT
ATOM      1  O   UNL     1     -63.506 -67.985  38.406  0.00  0.00    +0.000 OA
ATOM      2  O   UNL     1     -65.077 -65.654  41.178  0.00  0.00    +0.000 OA
ATOM      3  C   UNL     1     -65.577 -67.368  39.490  0.00  0.00    +0.000 C 
ATOM      4  C   UNL     1     -64.414 -66.875  38.622  0.00  0.00    +0.000 C 
ATOM      5  C   UNL     1     -64.921 -68.535  40.145  0.00  0.00    +0.000 A 
ATOM      6  C   UNL     1     -66.097 -66.265  40.389  0.00  0.00    +0.000 C 
ATOM      7  C   UNL     1     -63.661 -65.703  39.213  0.00  0.00    +0.000 A 
ATOM      8  C   UNL     1     -63.764 -68.845  39.445  0.00  0.00    +0.000 A 
ATOM      9  C   UNL     1     -64.017 -65.165  40.461  0.00  0.00    +0.000 A 
ATOM     10  C   UNL     1     -65.328 -69.306  41.220  0.00  0.00    +0.000 A 
ATOM     11  C   UNL     1     -62.581 -65.149  38.500  0.00  0.00    +0.000 A 
ATOM     12  C   UNL     1     -62.988 -69.931  39.794  0.00  0.00    +0.000 A 
ATOM     13  C   UNL     1     -63.264 -64.116  41.008  0.00  0.00    +0.000 A 
ATOM     14  C   UNL     1     -64.540 -70.405  41.595  0.00  0.00    +0.000 A 
ATOM     15  C   UNL     1     -63.370 -70.723  40.885  0.00  0.00    +0.000 A 
ATOM     16  C   UNL     1     -61.868 -64.072  39.018  0.00  0.00    +0.000 A 
ATOM     17  C   UNL     1     -62.219 -63.564  40.259  0.00  0.00    +0.000 A 
ENDROOT
BRANCH  12  18
ATOM     18  O   UNL     1     -61.856 -70.228  39.088  0.00  0.00    +0.000 OA
ATOM     19  H   UNL     1     -62.095 -70.997  38.538  0.00  0.00    +0.000 HD
ENDBRANCH  12  18
BRANCH  13  20
ATOM     20  O   UNL     1     -63.487 -63.505  42.220  0.00  0.00    +0.000 OA
ATOM     21  C   UNL     1     -62.890 -64.168  43.333  0.00  0.00    +0.000 C 
ENDBRANCH  13  20
BRANCH  15  22
ATOM     22  O   UNL     1     -62.528 -71.774  41.155  0.00  0.00    +0.000 OA
ATOM     23  C   UNL     1     -61.775 -71.697  42.360  0.00  0.00    +0.000 C 
ENDBRANCH  15  22
BRANCH  17  24
ATOM     24  O   UNL     1     -61.504 -62.505  40.751  0.00  0.00    +0.000 OA
ATOM     25  H   UNL     1     -62.132 -61.758  40.752  0.00  0.00    +0.000 HD
ENDBRANCH  17  24
TORSDOF 4
ENDMDL
MODEL 3
REMARK VINA RESULT:      -6.4     26.098     27.938
REMARK  Name = 
REMARK  6 active torsions:
REMARK  status: ('A' for Active; 'I' for Inactive)
REMARK    1  A    between atoms: O_3  and  C_16
REMARK    2  A    between atoms: O_4  and  C_17
REMARK    3  A    between atoms: O_4  and  C_22
REMARK    4  A    between atoms: O_5  and  C_19
REMARK    5  A    between atoms: O_5  and  C_23
REMARK    6  A    between atoms: O_6  and  C_21
REMARK                            x       y       z     vdW  Elec       q    Type
REMARK                         _______ _______ _______ _____ _____    ______ ____
ROOT
ATOM      1  O   UNL     1     -34.939 -61.945  43.992  0.00  0.00    +0.000 OA
ATOM      2  O   UNL     1     -32.655 -59.086  45.475  0.00  0.00    +0.000 OA
ATOM      3  C   UNL     1     -32.709 -61.013  43.952  0.00  0.00    +0.000 C 
ATOM      4  C   UNL     1     -33.775 -61.690  44.820  0.00  0.00    +0.000 C 
ATOM      5  C   UNL     1     -33.579 -60.442  42.887  0.00  0.00    +0.000 A 
ATOM      6  C   UNL     1     -31.874 -60.045  44.764  0.00  0.00    +0.000 C 
ATOM      7  C   UNL     1     -34.178 -60.885  46.036  0.00  0.00    +0.000 A 
ATOM      8  C   UNL     1     -34.823 -61.051  42.956  0.00  0.00    +0.000 A 
ATOM      9  C   UNL     1     -33.614 -59.624  46.293  0.00  0.00    +0.000 A 
ATOM     10  C   UNL     1     -33.296 -59.517  41.896  0.00  0.00    +0.000 A 
ATOM     11  C   UNL     1     -35.139 -61.409  46.921  0.00  0.00    +0.000 A 
ATOM     12  C   UNL     1     -35.813 -60.759  42.040  0.00  0.00    +0.000 A 
ATOM     13  C   UNL     1     -34.049 -58.877  47.397  0.00  0.00    +0.000 A 
ATOM     14  C   UNL     1     -34.298 -59.200  40.967  0.00  0.00    +0.000 A 
ATOM     15  C   UNL     1     -35.558 -59.819  41.032  0.00  0.00    +0.000 A 
ATOM     16  C   UNL     1     -35.531 -60.692  48.048  0.00  0.00    +0.000 A 
ATOM     17  C   UNL     1     -34.980 -59.441  48.278  0.00  0.00    +0.000 A 
ENDROOT
BRANCH  12  18
ATOM     18  O   UNL     1     -37.031 -61.375  42.116  0.00  0.00    +0.000 OA
ATOM     19  H   UNL     1     -37.465 -60.982  42.896  0.00  0.00    +0.000 HD
ENDBRANCH  12  18
BRANCH  13  20
ATOM     20  O   UNL     1     -33.598 -57.630  47.760  0.00  0.00    +0.000 OA
ATOM     21  C   UNL     1     -32.325 -57.627  48.403  0.00  0.00    +0.000 C 
ENDBRANCH  13  20
BRANCH  15  22
ATOM     22  O   UNL     1     -36.608 -59.593  40.176  0.00  0.00    +0.000 OA
ATOM     23  C   UNL     1     -36.453 -60.053  38.838  0.00  0.00    +0.000 C 
ENDBRANCH  15  22
BRANCH  17  24
ATOM     24  O   UNL     1     -35.379 -58.752  49.392  0.00  0.00    +0.000 OA
ATOM     25  H   UNL     1     -34.599 -58.229  49.655  0.00  0.00    +0.000 HD
ENDBRANCH  17  24
TORSDOF 4
ENDMDL
MODEL 4
REMARK VINA RESULT:      -6.3     25.728     27.748
REMARK  Name = 
REMARK  6 active torsions:
REMARK  status: ('A' for Active; 'I' for Inactive)
REMARK    1  A    between atoms: O_3  and  C_16
REMARK    2  A    between atoms: O_4  and  C_17
REMARK    3  A    between atoms: O_4  and  C_22
REMARK    4  A    between atoms: O_5  and  C_19
REMARK    5  A    between atoms: O_5  and  C_23
REMARK    6  A    between atoms: O_6  and  C_21
REMARK                            x       y       z     vdW  Elec       q    Type
REMARK                         _______ _______ _______ _____ _____    ______ ____
ROOT
ATOM      1  O   UNL     1     -32.677 -60.011  44.554  0.00  0.00    +0.000 OA
ATOM      2  O   UNL     1     -35.677 -61.964  42.890  0.00  0.00    +0.000 OA
ATOM      3  C   UNL     1     -33.654 -62.202  44.263  0.00  0.00    +0.000 C 
ATOM      4  C   UNL     1     -33.011 -61.006  43.554  0.00  0.00    +0.000 C 
ATOM      5  C   UNL     1     -34.134 -61.529  45.502  0.00  0.00    +0.000 A 
ATOM      6  C   UNL     1     -34.691 -62.869  43.385  0.00  0.00    +0.000 C 
ATOM      7  C   UNL     1     -33.885 -60.385  42.485  0.00  0.00    +0.000 A 
ATOM      8  C   UNL     1     -33.503 -60.299  45.613  0.00  0.00    +0.000 A 
ATOM      9  C   UNL     1     -35.172 -60.881  42.220  0.00  0.00    +0.000 A 
ATOM     10  C   UNL     1     -34.998 -61.974  46.488  0.00  0.00    +0.000 A 
ATOM     11  C   UNL     1     -33.398 -59.287  41.751  0.00  0.00    +0.000 A 
ATOM     12  C   UNL     1     -33.712 -59.485  46.707  0.00  0.00    +0.000 A 
ATOM     13  C   UNL     1     -35.979 -60.249  41.263  0.00  0.00    +0.000 A 
ATOM     14  C   UNL     1     -35.231 -61.150  47.599  0.00  0.00    +0.000 A 
ATOM     15  C   UNL     1     -34.590 -59.905  47.715  0.00  0.00    +0.000 A 
ATOM     16  C   UNL     1     -34.178 -58.694  40.762  0.00  0.00    +0.000 A 
ATOM     17  C   UNL     1     -35.453 -59.182  40.525  0.00  0.00    +0.000 A 
ENDROOT
BRANCH  12  18
ATOM     18  O   UNL     1     -33.076 -58.279  46.805  0.00  0.00    +0.000 OA
ATOM     19  H   UNL     1     -33.580 -57.678  46.226  0.00  0.00    +0.000 HD
ENDBRANCH  12  18
BRANCH  13  20
ATOM     20  O   UNL     1     -37.257 -60.615  40.913  0.00  0.00    +0.000 OA
ATOM     21  C   UNL     1     -37.329 -61.721  40.015  0.00  0.00    +0.000 C 
ENDBRANCH  13  20
BRANCH  15  22
ATOM     22  O   UNL     1     -34.735 -59.021  48.757  0.00  0.00    +0.000 OA
ATOM     23  C   UNL     1     -35.865 -59.208  49.601  0.00  0.00    +0.000 C 
ENDBRANCH  15  22
BRANCH  17  24
ATOM     24  O   UNL     1     -36.205 -58.584  39.548  0.00  0.00    +0.000 OA
ATOM     25  H   UNL     1     -35.879 -58.968  38.712  0.00  0.00    +0.000 HD
ENDBRANCH  17  24
TORSDOF 4
ENDMDL
MODEL 5
REMARK VINA RESULT:      -6.2     33.312     35.649
REMARK  Name = 
REMARK  6 active torsions:
REMARK  status: ('A' for Active; 'I' for Inactive)
REMARK    1  A    between atoms: O_3  and  C_16
REMARK    2  A    between atoms: O_4  and  C_17
REMARK    3  A    between atoms: O_4  and  C_22
REMARK    4  A    between atoms: O_5  and  C_19
REMARK    5  A    between atoms: O_5  and  C_23
REMARK    6  A    between atoms: O_6  and  C_21
REMARK                            x       y       z     vdW  Elec       q    Type
REMARK                         _______ _______ _______ _____ _____    ______ ____
ROOT
ATOM      1  O   UNL     1     -32.734 -53.465  53.639  0.00  0.00    +0.000 OA
ATOM      2  O   UNL     1     -28.945 -53.231  54.721  0.00  0.00    +0.000 OA
ATOM      3  C   UNL     1     -30.499 -54.195  53.080  0.00  0.00    +0.000 C 
ATOM      4  C   UNL     1     -31.611 -54.237  54.133  0.00  0.00    +0.000 C 
ATOM      5  C   UNL     1     -30.882 -52.947  52.363  0.00  0.00    +0.000 A 
ATOM      6  C   UNL     1     -29.129 -54.236  53.725  0.00  0.00    +0.000 C 
ATOM      7  C   UNL     1     -31.189 -53.718  55.491  0.00  0.00    +0.000 A 
ATOM      8  C   UNL     1     -32.184 -52.616  52.710  0.00  0.00    +0.000 A 
ATOM      9  C   UNL     1     -29.891 -53.228  55.711  0.00  0.00    +0.000 A 
ATOM     10  C   UNL     1     -30.183 -52.194  51.435  0.00  0.00    +0.000 A 
ATOM     11  C   UNL     1     -32.119 -53.721  56.548  0.00  0.00    +0.000 A 
ATOM     12  C   UNL     1     -32.822 -51.534  52.140  0.00  0.00    +0.000 A 
ATOM     13  C   UNL     1     -29.548 -52.701  56.964  0.00  0.00    +0.000 A 
ATOM     14  C   UNL     1     -30.815 -51.083  50.858  0.00  0.00    +0.000 A 
ATOM     15  C   UNL     1     -32.135 -50.748  51.205  0.00  0.00    +0.000 A 
ATOM     16  C   UNL     1     -31.762 -53.248  57.807  0.00  0.00    +0.000 A 
ATOM     17  C   UNL     1     -30.483 -52.751  58.005  0.00  0.00    +0.000 A 
ENDROOT
BRANCH  12  18
ATOM     18  O   UNL     1     -34.108 -51.228  52.487  0.00  0.00    +0.000 OA
ATOM     19  H   UNL     1     -34.354 -50.480  51.912  0.00  0.00    +0.000 HD
ENDBRANCH  12  18
BRANCH  13  20
ATOM     20  O   UNL     1     -28.326 -52.177  57.316  0.00  0.00    +0.000 OA
ATOM     21  C   UNL     1     -28.130 -50.821  56.921  0.00  0.00    +0.000 C 
ENDBRANCH  13  20
BRANCH  15  22
ATOM     22  O   UNL     1     -32.855 -49.692  50.702  0.00  0.00    +0.000 OA
ATOM     23  C   UNL     1     -32.371 -49.102  49.501  0.00  0.00    +0.000 C 
ENDBRANCH  15  22
BRANCH  17  24
ATOM     24  O   UNL     1     -30.152 -52.291  59.251  0.00  0.00    +0.000 OA
ATOM     25  H   UNL     1     -30.873 -51.677  59.490  0.00  0.00    +0.000 HD
ENDBRANCH  17  24
TORSDOF 4
ENDMDL
MODEL 6
REMARK VINA RESULT:      -6.1     33.133     35.460
REMARK  Name = 
REMARK  6 active torsions:
REMARK  status: ('A' for Active; 'I' for Inactive)
REMARK    1  A    between atoms: O_3  and  C_16
REMARK    2  A    between atoms: O_4  and  C_17
REMARK    3  A    between atoms: O_4  and  C_22
REMARK    4  A    between atoms: O_5  and  C_19
REMARK    5  A    between atoms: O_5  and  C_23
REMARK    6  A    between atoms: O_6  and  C_21
REMARK                            x       y       z     vdW  Elec       q    Type
REMARK                         _______ _______ _______ _____ _____    ______ ____
ROOT
ATOM      1  O   UNL     1     -30.566 -51.736  53.266  0.00  0.00    +0.000 OA
ATOM      2  O   UNL     1     -33.972 -49.762  53.568  0.00  0.00    +0.000 OA
ATOM      3  C   UNL     1     -32.969 -51.991  53.314  0.00  0.00    +0.000 C 
ATOM      4  C   UNL     1     -31.782 -51.388  52.556  0.00  0.00    +0.000 C 
ATOM      5  C   UNL     1     -32.359 -52.125  54.666  0.00  0.00    +0.000 A 
ATOM      6  C   UNL     1     -34.201 -51.119  53.188  0.00  0.00    +0.000 C 
ATOM      7  C   UNL     1     -31.863 -49.887  52.383  0.00  0.00    +0.000 A 
ATOM      8  C   UNL     1     -30.982 -52.002  54.547  0.00  0.00    +0.000 A 
ATOM      9  C   UNL     1     -32.938 -49.151  52.909  0.00  0.00    +0.000 A 
ATOM     10  C   UNL     1     -32.943 -52.399  55.892  0.00  0.00    +0.000 A 
ATOM     11  C   UNL     1     -30.838 -49.218  51.688  0.00  0.00    +0.000 A 
ATOM     12  C   UNL     1     -30.155 -52.151  55.641  0.00  0.00    +0.000 A 
ATOM     13  C   UNL     1     -32.956 -47.755  52.781  0.00  0.00    +0.000 A 
ATOM     14  C   UNL     1     -32.114 -52.538  57.015  0.00  0.00    +0.000 A 
ATOM     15  C   UNL     1     -30.720 -52.417  56.896  0.00  0.00    +0.000 A 
ATOM     16  C   UNL     1     -30.884 -47.838  51.513  0.00  0.00    +0.000 A 
ATOM     17  C   UNL     1     -31.941 -47.124  52.053  0.00  0.00    +0.000 A 
ENDROOT
BRANCH  12  18
ATOM     18  O   UNL     1     -28.800 -52.035  55.505  0.00  0.00    +0.000 OA
ATOM     19  H   UNL     1     -28.535 -51.369  56.166  0.00  0.00    +0.000 HD
ENDBRANCH  12  18
BRANCH  13  20
ATOM     20  O   UNL     1     -33.933 -46.911  53.256  0.00  0.00    +0.000 OA
ATOM     21  C   UNL     1     -35.124 -46.887  52.472  0.00  0.00    +0.000 C 
ENDBRANCH  13  20
BRANCH  15  22
ATOM     22  O   UNL     1     -29.813 -52.541  57.920  0.00  0.00    +0.000 OA
ATOM     23  C   UNL     1     -29.709 -53.822  58.531  0.00  0.00    +0.000 C 
ENDBRANCH  15  22
BRANCH  17  24
ATOM     24  O   UNL     1     -31.967 -45.766  51.870  0.00  0.00    +0.000 OA
ATOM     25  H   UNL     1     -32.449 -45.419  52.645  0.00  0.00    +0.000 HD
ENDBRANCH  17  24
TORSDOF 4
ENDMDL
MODEL 7
REMARK VINA RESULT:      -6.0     33.557     35.223
REMARK  Name = 
REMARK  6 active torsions:
REMARK  status: ('A' for Active; 'I' for Inactive)
REMARK    1  A    between atoms: O_3  and  C_16
REMARK    2  A    between atoms: O_4  and  C_17
REMARK    3  A    between atoms: O_4  and  C_22
REMARK    4  A    between atoms: O_5  and  C_19
REMARK    5  A    between atoms: O_5  and  C_23
REMARK    6  A    between atoms: O_6  and  C_21
REMARK                            x       y       z     vdW  Elec       q    Type
REMARK                         _______ _______ _______ _____ _____    ______ ____
ROOT
ATOM      1  O   UNL     1     -30.227 -48.613  52.608  0.00  0.00    +0.000 OA
ATOM      2  O   UNL     1     -33.628 -48.075  50.677  0.00  0.00    +0.000 OA
ATOM      3  C   UNL     1     -31.382 -49.060  50.532  0.00  0.00    +0.000 C 
ATOM      4  C   UNL     1     -30.827 -47.970  51.455  0.00  0.00    +0.000 C 
ATOM      5  C   UNL     1     -31.549 -50.162  51.521  0.00  0.00    +0.000 A 
ATOM      6  C   UNL     1     -32.622 -48.584  49.804  0.00  0.00    +0.000 C 
ATOM      7  C   UNL     1     -31.863 -46.965  51.909  0.00  0.00    +0.000 A 
ATOM      8  C   UNL     1     -30.830 -49.845  52.665  0.00  0.00    +0.000 A 
ATOM      9  C   UNL     1     -33.206 -47.076  51.514  0.00  0.00    +0.000 A 
ATOM     10  C   UNL     1     -32.214 -51.372  51.414  0.00  0.00    +0.000 A 
ATOM     11  C   UNL     1     -31.471 -45.904  52.747  0.00  0.00    +0.000 A 
ATOM     12  C   UNL     1     -30.754 -50.724  53.726  0.00  0.00    +0.000 A 
ATOM     13  C   UNL     1     -34.153 -46.162  51.998  0.00  0.00    +0.000 A 
ATOM     14  C   UNL     1     -32.156 -52.268  52.491  0.00  0.00    +0.000 A 
ATOM     15  C   UNL     1     -31.426 -51.951  53.649  0.00  0.00    +0.000 A 
ATOM     16  C   UNL     1     -32.400 -44.964  53.183  0.00  0.00    +0.000 A 
ATOM     17  C   UNL     1     -33.726 -45.098  52.801  0.00  0.00    +0.000 A 
ENDROOT
BRANCH  12  18
ATOM     18  O   UNL     1     -30.034 -50.400  54.842  0.00  0.00    +0.000 OA
ATOM     19  H   UNL     1     -30.600 -50.658  55.593  0.00  0.00    +0.000 HD
ENDBRANCH  12  18
BRANCH  13  20
ATOM     20  O   UNL     1     -35.497 -46.158  51.708  0.00  0.00    +0.000 OA
ATOM     21  C   UNL     1     -35.836 -45.500  50.489  0.00  0.00    +0.000 C 
ENDBRANCH  13  20
BRANCH  15  22
ATOM     22  O   UNL     1     -31.293 -52.750  54.759  0.00  0.00    +0.000 OA
ATOM     23  C   UNL     1     -31.829 -54.065  54.668  0.00  0.00    +0.000 C 
ENDBRANCH  15  22
BRANCH  17  24
ATOM     24  O   UNL     1     -34.624 -44.163  53.241  0.00  0.00    +0.000 OA
ATOM     25  H   UNL     1     -35.276 -44.084  52.519  0.00  0.00    +0.000 HD
ENDBRANCH  17  24
TORSDOF 4
ENDMDL
MODEL 8
REMARK VINA RESULT:      -5.7     21.212     23.112
REMARK  Name = 
REMARK  6 active torsions:
REMARK  status: ('A' for Active; 'I' for Inactive)
REMARK    1  A    between atoms: O_3  and  C_16
REMARK    2  A    between atoms: O_4  and  C_17
REMARK    3  A    between atoms: O_4  and  C_22
REMARK    4  A    between atoms: O_5  and  C_19
REMARK    5  A    between atoms: O_5  and  C_23
REMARK    6  A    between atoms: O_6  and  C_21
REMARK                            x       y       z     vdW  Elec       q    Type
REMARK                         _______ _______ _______ _____ _____    ______ ____
ROOT
ATOM      1  O   UNL     1     -64.329 -44.600  40.610  0.00  0.00    +0.000 OA
ATOM      2  O   UNL     1     -64.725 -41.773  37.883  0.00  0.00    +0.000 OA
ATOM      3  C   UNL     1     -65.178 -44.132  38.395  0.00  0.00    +0.000 C 
ATOM      4  C   UNL     1     -63.926 -44.199  39.276  0.00  0.00    +0.000 C 
ATOM      5  C   UNL     1     -66.214 -43.945  39.450  0.00  0.00    +0.000 A 
ATOM      6  C   UNL     1     -65.053 -43.052  37.342  0.00  0.00    +0.000 C 
ATOM      7  C   UNL     1     -63.153 -42.899  39.343  0.00  0.00    +0.000 A 
ATOM      8  C   UNL     1     -65.659 -44.266  40.680  0.00  0.00    +0.000 A 
ATOM      9  C   UNL     1     -63.598 -41.753  38.661  0.00  0.00    +0.000 A 
ATOM     10  C   UNL     1     -67.548 -43.590  39.345  0.00  0.00    +0.000 A 
ATOM     11  C   UNL     1     -61.974 -42.839  40.107  0.00  0.00    +0.000 A 
ATOM     12  C   UNL     1     -66.417 -44.245  41.833  0.00  0.00    +0.000 A 
ATOM     13  C   UNL     1     -62.891 -40.549  38.788  0.00  0.00    +0.000 A 
ATOM     14  C   UNL     1     -68.326 -43.550  40.511  0.00  0.00    +0.000 A 
ATOM     15  C   UNL     1     -67.768 -43.878  41.758  0.00  0.00    +0.000 A 
ATOM     16  C   UNL     1     -61.242 -41.658  40.189  0.00  0.00    +0.000 A 
ATOM     17  C   UNL     1     -61.702 -40.530  39.527  0.00  0.00    +0.000 A 
ENDROOT
BRANCH  12  18
ATOM     18  O   UNL     1     -65.857 -44.572  43.036  0.00  0.00    +0.000 OA
ATOM     19  H   UNL     1     -66.205 -45.459  43.244  0.00  0.00    +0.000 HD
ENDBRANCH  12  18
BRANCH  13  20
ATOM     20  O   UNL     1     -63.217 -39.353  38.194  0.00  0.00    +0.000 OA
ATOM     21  C   UNL     1     -64.189 -38.587  38.903  0.00  0.00    +0.000 C 
ENDBRANCH  13  20
BRANCH  15  22
ATOM     22  O   UNL     1     -68.432 -43.882  42.960  0.00  0.00    +0.000 OA
ATOM     23  C   UNL     1     -69.425 -44.885  43.139  0.00  0.00    +0.000 C 
ENDBRANCH  15  22
BRANCH  17  24
ATOM     24  O   UNL     1     -60.968 -39.378  39.621  0.00  0.00    +0.000 OA
ATOM     25  H   UNL     1     -60.295 -39.566  40.302  0.00  0.00    +0.000 HD
ENDBRANCH  17  24
TORSDOF 4
ENDMDL
MODEL 9
REMARK VINA RESULT:      -5.6     26.961     28.782
REMARK  Name = 
REMARK  6 active torsions:
REMARK  status: ('A' for Active; 'I' for Inactive)
REMARK    1  A    between atoms: O_3  and  C_16
REMARK    2  A    between atoms: O_4  and  C_17
REMARK    3  A    between atoms: O_4  and  C_22
REMARK    4  A    between atoms: O_5  and  C_19
REMARK    5  A    between atoms: O_5  and  C_23
REMARK    6  A    between atoms: O_6  and  C_21
REMARK                            x       y       z     vdW  Elec       q    Type
REMARK                         _______ _______ _______ _____ _____    ______ ____
ROOT
ATOM      1  O   UNL     1     -61.411 -46.385  19.046  0.00  0.00    +0.000 OA
ATOM      2  O   UNL     1     -60.873 -49.634  16.868  0.00  0.00    +0.000 OA
ATOM      3  C   UNL     1     -60.561 -47.198  16.934  0.00  0.00    +0.000 C 
ATOM      4  C   UNL     1     -61.804 -47.046  17.816  0.00  0.00    +0.000 C 
ATOM      5  C   UNL     1     -59.503 -47.129  17.981  0.00  0.00    +0.000 A 
ATOM      6  C   UNL     1     -60.632 -48.458  16.097  0.00  0.00    +0.000 C 
ATOM      7  C   UNL     1     -62.494 -48.355  18.135  0.00  0.00    +0.000 A 
ATOM      8  C   UNL     1     -60.062 -46.623  19.145  0.00  0.00    +0.000 A 
ATOM      9  C   UNL     1     -61.988 -49.577  17.662  0.00  0.00    +0.000 A 
ATOM     10  C   UNL     1     -58.151 -47.419  17.912  0.00  0.00    +0.000 A 
ATOM     11  C   UNL     1     -63.659 -48.344  18.924  0.00  0.00    +0.000 A 
ATOM     12  C   UNL     1     -59.291 -46.389  20.265  0.00  0.00    +0.000 A 
ATOM     13  C   UNL     1     -62.617 -50.778  18.021  0.00  0.00    +0.000 A 
ATOM     14  C   UNL     1     -57.358 -47.199  19.047  0.00  0.00    +0.000 A 
ATOM     15  C   UNL     1     -57.921 -46.683  20.227  0.00  0.00    +0.000 A 
ATOM     16  C   UNL     1     -64.315 -49.532  19.235  0.00  0.00    +0.000 A 
ATOM     17  C   UNL     1     -63.793 -50.732  18.777  0.00  0.00    +0.000 A 
ENDROOT
BRANCH  12  18
ATOM     18  O   UNL     1     -59.856 -45.881  21.401  0.00  0.00    +0.000 OA
ATOM     19  H   UNL     1     -60.386 -45.120  21.102  0.00  0.00    +0.000 HD
ENDBRANCH  12  18
BRANCH  13  20
ATOM     20  O   UNL     1     -62.225 -52.041  17.646  0.00  0.00    +0.000 OA
ATOM     21  C   UNL     1     -62.533 -52.377  16.294  0.00  0.00    +0.000 C 
ENDBRANCH  13  20
BRANCH  15  22
ATOM     22  O   UNL     1     -57.244 -46.422  21.393  0.00  0.00    +0.000 OA
ATOM     23  C   UNL     1     -56.018 -47.117  21.591  0.00  0.00    +0.000 C 
ENDBRANCH  15  22
BRANCH  17  24
ATOM     24  O   UNL     1     -64.454 -51.888  19.095  0.00  0.00    +0.000 OA
ATOM     25  H   UNL     1     -65.386 -51.716  18.861  0.00  0.00    +0.000 HD
ENDBRANCH  17  24
TORSDOF 4
ENDMDL
