MODEL 1
REMARK VINA RESULT:      -6.1      0.000      0.000
REMARK  Name = IPA3.pdbqt.pdb
REMARK  5 active torsions:
REMARK  status: ('A' for Active; 'I' for Inactive)
REMARK    1  A    between atoms: S_1  and  S_2
REMARK    2  A    between atoms: S_1  and  C_15
REMARK    3  A    between atoms: S_2  and  C_3
REMARK    4  A    between atoms: C_10  and  O_13
REMARK    5  A    between atoms: C_22  and  O_25
REMARK                            x       y       z     vdW  Elec       q    Type
REMARK                         _______ _______ _______ _____ _____    ______ ____
ROOT
ATOM      1  S   UNL     1     -53.545 -39.543  40.022  0.00  0.00    +0.000 S 
ENDROOT
BRANCH   1   2
ATOM      2  C   UNL     1     -52.113 -40.507  40.529  0.00  0.00    +0.000 A 
ATOM      3  C   UNL     1     -50.985 -40.640  39.683  0.00  0.00    +0.000 A 
ATOM      4  C   UNL     1     -49.872 -41.385  40.139  0.00  0.00    +0.000 A 
ATOM      5  C   UNL     1     -50.897 -40.058  38.407  0.00  0.00    +0.000 A 
ATOM      6  C   UNL     1     -49.892 -41.993  41.392  0.00  0.00    +0.000 A 
ATOM      7  C   UNL     1     -48.734 -41.518  39.344  0.00  0.00    +0.000 A 
ATOM      8  C   UNL     1     -51.007 -41.874  42.213  0.00  0.00    +0.000 A 
ATOM      9  C   UNL     1     -52.105 -41.136  41.784  0.00  0.00    +0.000 A 
ATOM     10  C   UNL     1     -48.675 -40.922  38.088  0.00  0.00    +0.000 A 
ATOM     11  C   UNL     1     -49.757 -40.192  37.617  0.00  0.00    +0.000 A 
BRANCH   9  12
ATOM     12  O   UNL     1     -53.163 -41.056  42.651  0.00  0.00    +0.000 OA
ATOM     13  H   UNL     1     -52.859 -41.375  43.520  0.00  0.00    +0.000 HD
ENDBRANCH   9  12
ENDBRANCH   1   2
BRANCH   1  14
ATOM     14  S   UNL     1     -54.863 -41.023  39.458  0.00  0.00    +0.000 S 
BRANCH  14  15
ATOM     15  C   UNL     1     -54.726 -40.968  37.666  0.00  0.00    +0.000 A 
ATOM     16  C   UNL     1     -53.766 -41.752  36.981  0.00  0.00    +0.000 A 
ATOM     17  C   UNL     1     -53.717 -41.696  35.569  0.00  0.00    +0.000 A 
ATOM     18  C   UNL     1     -52.855 -42.606  37.629  0.00  0.00    +0.000 A 
ATOM     19  C   UNL     1     -54.586 -40.869  34.864  0.00  0.00    +0.000 A 
ATOM     20  C   UNL     1     -52.800 -42.471  34.859  0.00  0.00    +0.000 A 
ATOM     21  C   UNL     1     -55.517 -40.087  35.538  0.00  0.00    +0.000 A 
ATOM     22  C   UNL     1     -55.585 -40.140  36.925  0.00  0.00    +0.000 A 
ATOM     23  C   UNL     1     -51.917 -43.314  35.530  0.00  0.00    +0.000 A 
ATOM     24  C   UNL     1     -51.942 -43.380  36.917  0.00  0.00    +0.000 A 
BRANCH  22  25
ATOM     25  O   UNL     1     -56.534 -39.350  37.519  0.00  0.00    +0.000 OA
ATOM     26  H   UNL     1     -56.452 -39.464  38.484  0.00  0.00    +0.000 HD
ENDBRANCH  22  25
ENDBRANCH  14  15
ENDBRANCH   1  14
TORSDOF 5
ENDMDL
MODEL 2
REMARK VINA RESULT:      -5.8     38.287     40.100
REMARK  Name = IPA3.pdbqt.pdb
REMARK  5 active torsions:
REMARK  status: ('A' for Active; 'I' for Inactive)
REMARK    1  A    between atoms: S_1  and  S_2
REMARK    2  A    between atoms: S_1  and  C_15
REMARK    3  A    between atoms: S_2  and  C_3
REMARK    4  A    between atoms: C_10  and  O_13
REMARK    5  A    between atoms: C_22  and  O_25
REMARK                            x       y       z     vdW  Elec       q    Type
REMARK                         _______ _______ _______ _____ _____    ______ ____
ROOT
ATOM      1  S   UNL     1     -31.626 -63.184  63.345  0.00  0.00    +0.000 S 
ENDROOT
BRANCH   1   2
ATOM      2  C   UNL     1     -32.794 -64.548  63.454  0.00  0.00    +0.000 A 
ATOM      3  C   UNL     1     -32.987 -65.251  64.668  0.00  0.00    +0.000 A 
ATOM      4  C   UNL     1     -33.938 -66.298  64.710  0.00  0.00    +0.000 A 
ATOM      5  C   UNL     1     -32.290 -64.959  65.854  0.00  0.00    +0.000 A 
ATOM      6  C   UNL     1     -34.660 -66.643  63.570  0.00  0.00    +0.000 A 
ATOM      7  C   UNL     1     -34.171 -66.996  65.894  0.00  0.00    +0.000 A 
ATOM      8  C   UNL     1     -34.458 -65.962  62.376  0.00  0.00    +0.000 A 
ATOM      9  C   UNL     1     -33.534 -64.924  62.321  0.00  0.00    +0.000 A 
ATOM     10  C   UNL     1     -33.471 -66.677  67.054  0.00  0.00    +0.000 A 
ATOM     11  C   UNL     1     -32.528 -65.658  67.035  0.00  0.00    +0.000 A 
BRANCH   9  12
ATOM     12  O   UNL     1     -33.397 -64.293  61.113  0.00  0.00    +0.000 OA
ATOM     13  H   UNL     1     -34.219 -64.434  60.609  0.00  0.00    +0.000 HD
ENDBRANCH   9  12
ENDBRANCH   1   2
BRANCH   1  14
ATOM     14  S   UNL     1     -32.874 -61.553  63.517  0.00  0.00    +0.000 S 
BRANCH  14  15
ATOM     15  C   UNL     1     -33.257 -61.572  65.274  0.00  0.00    +0.000 A 
ATOM     16  C   UNL     1     -34.460 -62.141  65.754  0.00  0.00    +0.000 A 
ATOM     17  C   UNL     1     -34.702 -62.157  67.148  0.00  0.00    +0.000 A 
ATOM     18  C   UNL     1     -35.438 -62.712  64.920  0.00  0.00    +0.000 A 
ATOM     19  C   UNL     1     -33.780 -61.605  68.032  0.00  0.00    +0.000 A 
ATOM     20  C   UNL     1     -35.867 -62.730  67.659  0.00  0.00    +0.000 A 
ATOM     21  C   UNL     1     -32.605 -61.032  67.558  0.00  0.00    +0.000 A 
ATOM     22  C   UNL     1     -32.348 -61.019  66.192  0.00  0.00    +0.000 A 
ATOM     23  C   UNL     1     -36.811 -63.295  66.807  0.00  0.00    +0.000 A 
ATOM     24  C   UNL     1     -36.598 -63.285  65.434  0.00  0.00    +0.000 A 
BRANCH  22  25
ATOM     25  O   UNL     1     -31.167 -60.446  65.800  0.00  0.00    +0.000 OA
ATOM     26  H   UNL     1     -30.671 -61.112  65.288  0.00  0.00    +0.000 HD
ENDBRANCH  22  25
ENDBRANCH  14  15
ENDBRANCH   1  14
TORSDOF 5
ENDMDL
MODEL 3
REMARK VINA RESULT:      -5.8     14.399     16.823
REMARK  Name = IPA3.pdbqt.pdb
REMARK  5 active torsions:
REMARK  status: ('A' for Active; 'I' for Inactive)
REMARK    1  A    between atoms: S_1  and  S_2
REMARK    2  A    between atoms: S_1  and  C_15
REMARK    3  A    between atoms: S_2  and  C_3
REMARK    4  A    between atoms: C_10  and  O_13
REMARK    5  A    between atoms: C_22  and  O_25
REMARK                            x       y       z     vdW  Elec       q    Type
REMARK                         _______ _______ _______ _____ _____    ______ ____
ROOT
ATOM      1  S   UNL     1     -40.920 -40.063  50.277  0.00  0.00    +0.000 S 
ENDROOT
BRANCH   1   2
ATOM      2  C   UNL     1     -40.531 -41.284  49.015  0.00  0.00    +0.000 A 
ATOM      3  C   UNL     1     -39.471 -42.206  49.192  0.00  0.00    +0.000 A 
ATOM      4  C   UNL     1     -39.223 -43.166  48.182  0.00  0.00    +0.000 A 
ATOM      5  C   UNL     1     -38.648 -42.236  50.331  0.00  0.00    +0.000 A 
ATOM      6  C   UNL     1     -39.997 -43.191  47.025  0.00  0.00    +0.000 A 
ATOM      7  C   UNL     1     -38.203 -44.105  48.332  0.00  0.00    +0.000 A 
ATOM      8  C   UNL     1     -41.025 -42.275  46.846  0.00  0.00    +0.000 A 
ATOM      9  C   UNL     1     -41.289 -41.332  47.834  0.00  0.00    +0.000 A 
ATOM     10  C   UNL     1     -37.411 -44.113  49.476  0.00  0.00    +0.000 A 
ATOM     11  C   UNL     1     -37.632 -43.177  50.478  0.00  0.00    +0.000 A 
BRANCH   9  12
ATOM     12  O   UNL     1     -42.325 -40.468  47.593  0.00  0.00    +0.000 OA
ATOM     13  H   UNL     1     -42.145 -39.645  48.082  0.00  0.00    +0.000 HD
ENDBRANCH   9  12
ENDBRANCH   1   2
BRANCH   1  14
ATOM     14  S   UNL     1     -42.355 -41.047  51.380  0.00  0.00    +0.000 S 
BRANCH  14  15
ATOM     15  C   UNL     1     -43.686 -39.838  51.409  0.00  0.00    +0.000 A 
ATOM     16  C   UNL     1     -43.849 -38.957  52.505  0.00  0.00    +0.000 A 
ATOM     17  C   UNL     1     -44.895 -38.004  52.468  0.00  0.00    +0.000 A 
ATOM     18  C   UNL     1     -43.017 -38.963  53.639  0.00  0.00    +0.000 A 
ATOM     19  C   UNL     1     -45.759 -37.946  51.379  0.00  0.00    +0.000 A 
ATOM     20  C   UNL     1     -45.073 -37.105  53.519  0.00  0.00    +0.000 A 
ATOM     21  C   UNL     1     -45.607 -38.822  50.310  0.00  0.00    +0.000 A 
ATOM     22  C   UNL     1     -44.578 -39.757  50.328  0.00  0.00    +0.000 A 
ATOM     23  C   UNL     1     -44.225 -37.130  54.624  0.00  0.00    +0.000 A 
ATOM     24  C   UNL     1     -43.196 -38.062  54.685  0.00  0.00    +0.000 A 
BRANCH  22  25
ATOM     25  O   UNL     1     -44.484 -40.580  49.236  0.00  0.00    +0.000 OA
ATOM     26  H   UNL     1     -44.805 -40.081  48.462  0.00  0.00    +0.000 HD
ENDBRANCH  22  25
ENDBRANCH  14  15
ENDBRANCH   1  14
TORSDOF 5
ENDMDL
MODEL 4
REMARK VINA RESULT:      -5.7     23.551     25.411
REMARK  Name = IPA3.pdbqt.pdb
REMARK  5 active torsions:
REMARK  status: ('A' for Active; 'I' for Inactive)
REMARK    1  A    between atoms: S_1  and  S_2
REMARK    2  A    between atoms: S_1  and  C_15
REMARK    3  A    between atoms: S_2  and  C_3
REMARK    4  A    between atoms: C_10  and  O_13
REMARK    5  A    between atoms: C_22  and  O_25
REMARK                            x       y       z     vdW  Elec       q    Type
REMARK                         _______ _______ _______ _____ _____    ______ ____
ROOT
ATOM      1  S   UNL     1     -43.707 -65.218  36.363  0.00  0.00    +0.000 S 
ENDROOT
BRANCH   1   2
ATOM      2  C   UNL     1     -44.342 -66.556  37.385  0.00  0.00    +0.000 A 
ATOM      3  C   UNL     1     -44.002 -66.654  38.756  0.00  0.00    +0.000 A 
ATOM      4  C   UNL     1     -44.550 -67.709  39.523  0.00  0.00    +0.000 A 
ATOM      5  C   UNL     1     -43.152 -65.747  39.412  0.00  0.00    +0.000 A 
ATOM      6  C   UNL     1     -45.397 -68.646  38.936  0.00  0.00    +0.000 A 
ATOM      7  C   UNL     1     -44.257 -67.823  40.882  0.00  0.00    +0.000 A 
ATOM      8  C   UNL     1     -45.716 -68.556  37.587  0.00  0.00    +0.000 A 
ATOM      9  C   UNL     1     -45.194 -67.519  36.821  0.00  0.00    +0.000 A 
ATOM     10  C   UNL     1     -43.418 -66.904  41.505  0.00  0.00    +0.000 A 
ATOM     11  C   UNL     1     -42.863 -65.864  40.770  0.00  0.00    +0.000 A 
BRANCH   9  12
ATOM     12  O   UNL     1     -45.561 -67.491  35.501  0.00  0.00    +0.000 OA
ATOM     13  H   UNL     1     -45.356 -66.603  35.155  0.00  0.00    +0.000 HD
ENDBRANCH   9  12
ENDBRANCH   1   2
BRANCH   1  14
ATOM     14  S   UNL     1     -45.250 -63.855  36.456  0.00  0.00    +0.000 S 
BRANCH  14  15
ATOM     15  C   UNL     1     -44.684 -62.753  37.759  0.00  0.00    +0.000 A 
ATOM     16  C   UNL     1     -45.122 -62.915  39.095  0.00  0.00    +0.000 A 
ATOM     17  C   UNL     1     -44.626 -62.039  40.090  0.00  0.00    +0.000 A 
ATOM     18  C   UNL     1     -46.024 -63.915  39.503  0.00  0.00    +0.000 A 
ATOM     19  C   UNL     1     -43.735 -61.024  39.756  0.00  0.00    +0.000 A 
ATOM     20  C   UNL     1     -45.018 -62.183  41.421  0.00  0.00    +0.000 A 
ATOM     21  C   UNL     1     -43.317 -60.856  38.441  0.00  0.00    +0.000 A 
ATOM     22  C   UNL     1     -43.788 -61.715  37.454  0.00  0.00    +0.000 A 
ATOM     23  C   UNL     1     -45.905 -63.189  41.793  0.00  0.00    +0.000 A 
ATOM     24  C   UNL     1     -46.411 -64.056  40.832  0.00  0.00    +0.000 A 
BRANCH  22  25
ATOM     25  O   UNL     1     -43.325 -61.495  36.184  0.00  0.00    +0.000 OA
ATOM     26  H   UNL     1     -43.137 -60.542  36.099  0.00  0.00    +0.000 HD
ENDBRANCH  22  25
ENDBRANCH  14  15
ENDBRANCH   1  14
TORSDOF 5
ENDMDL
MODEL 5
REMARK VINA RESULT:      -5.7     23.469     25.434
REMARK  Name = IPA3.pdbqt.pdb
REMARK  5 active torsions:
REMARK  status: ('A' for Active; 'I' for Inactive)
REMARK    1  A    between atoms: S_1  and  S_2
REMARK    2  A    between atoms: S_1  and  C_15
REMARK    3  A    between atoms: S_2  and  C_3
REMARK    4  A    between atoms: C_10  and  O_13
REMARK    5  A    between atoms: C_22  and  O_25
REMARK                            x       y       z     vdW  Elec       q    Type
REMARK                         _______ _______ _______ _____ _____    ______ ____
ROOT
ATOM      1  S   UNL     1     -42.900 -62.890  37.499  0.00  0.00    +0.000 S 
ENDROOT
BRANCH   1   2
ATOM      2  C   UNL     1     -44.637 -62.825  37.965  0.00  0.00    +0.000 A 
ATOM      3  C   UNL     1     -45.038 -62.975  39.314  0.00  0.00    +0.000 A 
ATOM      4  C   UNL     1     -46.414 -62.888  39.633  0.00  0.00    +0.000 A 
ATOM      5  C   UNL     1     -44.139 -63.196  40.373  0.00  0.00    +0.000 A 
ATOM      6  C   UNL     1     -47.360 -62.674  38.633  0.00  0.00    +0.000 A 
ATOM      7  C   UNL     1     -46.844 -63.007  40.954  0.00  0.00    +0.000 A 
ATOM      8  C   UNL     1     -46.965 -62.543  37.308  0.00  0.00    +0.000 A 
ATOM      9  C   UNL     1     -45.615 -62.616  36.979  0.00  0.00    +0.000 A 
ATOM     10  C   UNL     1     -45.928 -63.217  41.981  0.00  0.00    +0.000 A 
ATOM     11  C   UNL     1     -44.574 -63.313  41.691  0.00  0.00    +0.000 A 
BRANCH   9  12
ATOM     12  O   UNL     1     -45.301 -62.468  35.654  0.00  0.00    +0.000 OA
ATOM     13  H   UNL     1     -45.907 -61.804  35.278  0.00  0.00    +0.000 HD
ENDBRANCH   9  12
ENDBRANCH   1   2
BRANCH   1  14
ATOM     14  S   UNL     1     -42.749 -64.793  36.723  0.00  0.00    +0.000 S 
BRANCH  14  15
ATOM     15  C   UNL     1     -42.762 -65.796  38.215  0.00  0.00    +0.000 A 
ATOM     16  C   UNL     1     -43.962 -66.367  38.703  0.00  0.00    +0.000 A 
ATOM     17  C   UNL     1     -43.915 -67.172  39.866  0.00  0.00    +0.000 A 
ATOM     18  C   UNL     1     -45.214 -66.191  38.086  0.00  0.00    +0.000 A 
ATOM     19  C   UNL     1     -42.711 -67.385  40.530  0.00  0.00    +0.000 A 
ATOM     20  C   UNL     1     -45.074 -67.769  40.362  0.00  0.00    +0.000 A 
ATOM     21  C   UNL     1     -41.536 -66.811  40.059  0.00  0.00    +0.000 A 
ATOM     22  C   UNL     1     -41.564 -66.026  38.911  0.00  0.00    +0.000 A 
ATOM     23  C   UNL     1     -46.296 -67.583  39.722  0.00  0.00    +0.000 A 
ATOM     24  C   UNL     1     -46.368 -66.790  38.584  0.00  0.00    +0.000 A 
BRANCH  22  25
ATOM     25  O   UNL     1     -40.366 -65.502  38.502  0.00  0.00    +0.000 OA
ATOM     26  H   UNL     1     -40.256 -65.718  37.558  0.00  0.00    +0.000 HD
ENDBRANCH  22  25
ENDBRANCH  14  15
ENDBRANCH   1  14
TORSDOF 5
ENDMDL
MODEL 6
REMARK VINA RESULT:      -5.6     25.683     28.113
REMARK  Name = IPA3.pdbqt.pdb
REMARK  5 active torsions:
REMARK  status: ('A' for Active; 'I' for Inactive)
REMARK    1  A    between atoms: S_1  and  S_2
REMARK    2  A    between atoms: S_1  and  C_15
REMARK    3  A    between atoms: S_2  and  C_3
REMARK    4  A    between atoms: C_10  and  O_13
REMARK    5  A    between atoms: C_22  and  O_25
REMARK                            x       y       z     vdW  Elec       q    Type
REMARK                         _______ _______ _______ _____ _____    ______ ____
ROOT
ATOM      1  S   UNL     1     -30.768 -48.652  52.223  0.00  0.00    +0.000 S 
ENDROOT
BRANCH   1   2
ATOM      2  C   UNL     1     -31.861 -49.860  52.985  0.00  0.00    +0.000 A 
ATOM      3  C   UNL     1     -31.372 -50.796  53.929  0.00  0.00    +0.000 A 
ATOM      4  C   UNL     1     -32.278 -51.707  54.521  0.00  0.00    +0.000 A 
ATOM      5  C   UNL     1     -30.026 -50.867  54.327  0.00  0.00    +0.000 A 
ATOM      6  C   UNL     1     -33.625 -51.695  54.169  0.00  0.00    +0.000 A 
ATOM      7  C   UNL     1     -31.837 -52.628  55.472  0.00  0.00    +0.000 A 
ATOM      8  C   UNL     1     -34.099 -50.787  53.232  0.00  0.00    +0.000 A 
ATOM      9  C   UNL     1     -33.223 -49.877  52.648  0.00  0.00    +0.000 A 
ATOM     10  C   UNL     1     -30.499 -52.667  55.851  0.00  0.00    +0.000 A 
ATOM     11  C   UNL     1     -29.590 -51.787  55.278  0.00  0.00    +0.000 A 
BRANCH   9  12
ATOM     12  O   UNL     1     -33.765 -49.006  51.740  0.00  0.00    +0.000 OA
ATOM     13  H   UNL     1     -34.722 -49.182  51.694  0.00  0.00    +0.000 HD
ENDBRANCH   9  12
ENDBRANCH   1   2
BRANCH   1  14
ATOM     14  S   UNL     1     -30.589 -49.400  50.311  0.00  0.00    +0.000 S 
BRANCH  14  15
ATOM     15  C   UNL     1     -30.511 -51.170  50.619  0.00  0.00    +0.000 A 
ATOM     16  C   UNL     1     -29.336 -51.772  51.130  0.00  0.00    +0.000 A 
ATOM     17  C   UNL     1     -29.334 -53.164  51.382  0.00  0.00    +0.000 A 
ATOM     18  C   UNL     1     -28.158 -51.059  51.418  0.00  0.00    +0.000 A 
ATOM     19  C   UNL     1     -30.463 -53.933  51.115  0.00  0.00    +0.000 A 
ATOM     20  C   UNL     1     -28.202 -53.789  51.906  0.00  0.00    +0.000 A 
ATOM     21  C   UNL     1     -31.611 -53.343  50.599  0.00  0.00    +0.000 A 
ATOM     22  C   UNL     1     -31.632 -51.974  50.356  0.00  0.00    +0.000 A 
ATOM     23  C   UNL     1     -27.055 -53.052  52.189  0.00  0.00    +0.000 A 
ATOM     24  C   UNL     1     -27.032 -51.685  51.943  0.00  0.00    +0.000 A 
BRANCH  22  25
ATOM     25  O   UNL     1     -32.801 -51.462  49.856  0.00  0.00    +0.000 OA
ATOM     26  H   UNL     1     -32.660 -51.273  48.910  0.00  0.00    +0.000 HD
ENDBRANCH  22  25
ENDBRANCH  14  15
ENDBRANCH   1  14
TORSDOF 5
ENDMDL
MODEL 7
REMARK VINA RESULT:      -5.5     34.103     36.228
REMARK  Name = IPA3.pdbqt.pdb
REMARK  5 active torsions:
REMARK  status: ('A' for Active; 'I' for Inactive)
REMARK    1  A    between atoms: S_1  and  S_2
REMARK    2  A    between atoms: S_1  and  C_15
REMARK    3  A    between atoms: S_2  and  C_3
REMARK    4  A    between atoms: C_10  and  O_13
REMARK    5  A    between atoms: C_22  and  O_25
REMARK                            x       y       z     vdW  Elec       q    Type
REMARK                         _______ _______ _______ _____ _____    ______ ____
ROOT
ATOM      1  S   UNL     1     -68.674 -72.329  27.558  0.00  0.00    +0.000 S 
ENDROOT
BRANCH   1   2
ATOM      2  C   UNL     1     -67.107 -71.446  27.617  0.00  0.00    +0.000 A 
ATOM      3  C   UNL     1     -66.197 -71.642  28.684  0.00  0.00    +0.000 A 
ATOM      4  C   UNL     1     -64.965 -70.945  28.669  0.00  0.00    +0.000 A 
ATOM      5  C   UNL     1     -66.439 -72.509  29.763  0.00  0.00    +0.000 A 
ATOM      6  C   UNL     1     -64.662 -70.067  27.632  0.00  0.00    +0.000 A 
ATOM      7  C   UNL     1     -64.034 -71.131  29.690  0.00  0.00    +0.000 A 
ATOM      8  C   UNL     1     -65.564 -69.864  26.595  0.00  0.00    +0.000 A 
ATOM      9  C   UNL     1     -66.774 -70.550  26.589  0.00  0.00    +0.000 A 
ATOM     10  C   UNL     1     -64.301 -72.003  30.742  0.00  0.00    +0.000 A 
ATOM     11  C   UNL     1     -65.505 -72.693  30.780  0.00  0.00    +0.000 A 
BRANCH   9  12
ATOM     12  O   UNL     1     -67.608 -70.306  25.530  0.00  0.00    +0.000 OA
ATOM     13  H   UNL     1     -68.404 -70.856  25.646  0.00  0.00    +0.000 HD
ENDBRANCH   9  12
ENDBRANCH   1   2
BRANCH   1  14
ATOM     14  S   UNL     1     -68.065 -74.219  27.007  0.00  0.00    +0.000 S 
BRANCH  14  15
ATOM     15  C   UNL     1     -67.106 -73.876  25.525  0.00  0.00    +0.000 A 
ATOM     16  C   UNL     1     -65.692 -73.912  25.544  0.00  0.00    +0.000 A 
ATOM     17  C   UNL     1     -64.983 -73.661  24.346  0.00  0.00    +0.000 A 
ATOM     18  C   UNL     1     -64.936 -74.197  26.697  0.00  0.00    +0.000 A 
ATOM     19  C   UNL     1     -65.667 -73.367  23.169  0.00  0.00    +0.000 A 
ATOM     20  C   UNL     1     -63.590 -73.711  24.322  0.00  0.00    +0.000 A 
ATOM     21  C   UNL     1     -67.056 -73.317  23.155  0.00  0.00    +0.000 A 
ATOM     22  C   UNL     1     -67.766 -73.571  24.323  0.00  0.00    +0.000 A 
ATOM     23  C   UNL     1     -62.872 -74.006  25.477  0.00  0.00    +0.000 A 
ATOM     24  C   UNL     1     -63.546 -74.248  26.668  0.00  0.00    +0.000 A 
BRANCH  22  25
ATOM     25  O   UNL     1     -69.132 -73.512  24.230  0.00  0.00    +0.000 OA
ATOM     26  H   UNL     1     -69.467 -74.428  24.225  0.00  0.00    +0.000 HD
ENDBRANCH  22  25
ENDBRANCH  14  15
ENDBRANCH   1  14
TORSDOF 5
ENDMDL
MODEL 8
REMARK VINA RESULT:      -5.5     17.014     19.268
REMARK  Name = IPA3.pdbqt.pdb
REMARK  5 active torsions:
REMARK  status: ('A' for Active; 'I' for Inactive)
REMARK    1  A    between atoms: S_1  and  S_2
REMARK    2  A    between atoms: S_1  and  C_15
REMARK    3  A    between atoms: S_2  and  C_3
REMARK    4  A    between atoms: C_10  and  O_13
REMARK    5  A    between atoms: C_22  and  O_25
REMARK                            x       y       z     vdW  Elec       q    Type
REMARK                         _______ _______ _______ _____ _____    ______ ____
ROOT
ATOM      1  S   UNL     1     -67.514 -40.775  49.359  0.00  0.00    +0.000 S 
ENDROOT
BRANCH   1   2
ATOM      2  C   UNL     1     -68.515 -41.733  48.213  0.00  0.00    +0.000 A 
ATOM      3  C   UNL     1     -68.502 -41.459  46.824  0.00  0.00    +0.000 A 
ATOM      4  C   UNL     1     -69.285 -42.260  45.960  0.00  0.00    +0.000 A 
ATOM      5  C   UNL     1     -67.737 -40.433  46.241  0.00  0.00    +0.000 A 
ATOM      6  C   UNL     1     -70.071 -43.291  46.470  0.00  0.00    +0.000 A 
ATOM      7  C   UNL     1     -69.279 -42.035  44.584  0.00  0.00    +0.000 A 
ATOM      8  C   UNL     1     -70.095 -43.548  47.835  0.00  0.00    +0.000 A 
ATOM      9  C   UNL     1     -69.322 -42.776  48.696  0.00  0.00    +0.000 A 
ATOM     10  C   UNL     1     -68.503 -41.016  44.037  0.00  0.00    +0.000 A 
ATOM     11  C   UNL     1     -67.732 -40.213  44.866  0.00  0.00    +0.000 A 
BRANCH   9  12
ATOM     12  O   UNL     1     -69.389 -43.094  50.027  0.00  0.00    +0.000 OA
ATOM     13  H   UNL     1     -69.706 -42.307  50.505  0.00  0.00    +0.000 HD
ENDBRANCH   9  12
ENDBRANCH   1   2
BRANCH   1  14
ATOM     14  S   UNL     1     -65.691 -41.723  49.214  0.00  0.00    +0.000 S 
BRANCH  14  15
ATOM     15  C   UNL     1     -65.436 -42.284  50.903  0.00  0.00    +0.000 A 
ATOM     16  C   UNL     1     -64.624 -41.553  51.802  0.00  0.00    +0.000 A 
ATOM     17  C   UNL     1     -64.477 -42.020  53.130  0.00  0.00    +0.000 A 
ATOM     18  C   UNL     1     -63.953 -40.366  51.455  0.00  0.00    +0.000 A 
ATOM     19  C   UNL     1     -65.109 -43.191  53.540  0.00  0.00    +0.000 A 
ATOM     20  C   UNL     1     -63.703 -41.314  54.049  0.00  0.00    +0.000 A 
ATOM     21  C   UNL     1     -65.894 -43.917  52.652  0.00  0.00    +0.000 A 
ATOM     22  C   UNL     1     -66.055 -43.464  51.347  0.00  0.00    +0.000 A 
ATOM     23  C   UNL     1     -63.060 -40.136  53.677  0.00  0.00    +0.000 A 
ATOM     24  C   UNL     1     -63.183 -39.662  52.377  0.00  0.00    +0.000 A 
BRANCH  22  25
ATOM     25  O   UNL     1     -66.851 -44.226  50.532  0.00  0.00    +0.000 OA
ATOM     26  H   UNL     1     -67.644 -44.475  51.043  0.00  0.00    +0.000 HD
ENDBRANCH  22  25
ENDBRANCH  14  15
ENDBRANCH   1  14
TORSDOF 5
ENDMDL
MODEL 9
REMARK VINA RESULT:      -5.5     34.495     36.526
REMARK  Name = IPA3.pdbqt.pdb
REMARK  5 active torsions:
REMARK  status: ('A' for Active; 'I' for Inactive)
REMARK    1  A    between atoms: S_1  and  S_2
REMARK    2  A    between atoms: S_1  and  C_15
REMARK    3  A    between atoms: S_2  and  C_3
REMARK    4  A    between atoms: C_10  and  O_13
REMARK    5  A    between atoms: C_22  and  O_25
REMARK                            x       y       z     vdW  Elec       q    Type
REMARK                         _______ _______ _______ _____ _____    ______ ____
ROOT
ATOM      1  S   UNL     1     -69.167 -72.894  27.663  0.00  0.00    +0.000 S 
ENDROOT
BRANCH   1   2
ATOM      2  C   UNL     1     -67.701 -72.487  28.622  0.00  0.00    +0.000 A 
ATOM      3  C   UNL     1     -66.732 -71.580  28.129  0.00  0.00    +0.000 A 
ATOM      4  C   UNL     1     -65.611 -71.271  28.934  0.00  0.00    +0.000 A 
ATOM      5  C   UNL     1     -66.825 -70.948  26.876  0.00  0.00    +0.000 A 
ATOM      6  C   UNL     1     -65.453 -71.864  30.184  0.00  0.00    +0.000 A 
ATOM      7  C   UNL     1     -64.648 -70.364  28.491  0.00  0.00    +0.000 A 
ATOM      8  C   UNL     1     -66.396 -72.766  30.659  0.00  0.00    +0.000 A 
ATOM      9  C   UNL     1     -67.510 -73.072  29.884  0.00  0.00    +0.000 A 
ATOM     10  C   UNL     1     -64.774 -69.749  27.249  0.00  0.00    +0.000 A 
ATOM     11  C   UNL     1     -65.863 -70.042  26.439  0.00  0.00    +0.000 A 
BRANCH   9  12
ATOM     12  O   UNL     1     -68.402 -73.962  30.423  0.00  0.00    +0.000 OA
ATOM     13  H   UNL     1     -68.594 -74.636  29.746  0.00  0.00    +0.000 HD
ENDBRANCH   9  12
ENDBRANCH   1   2
BRANCH   1  14
ATOM     14  S   UNL     1     -68.611 -74.675  26.788  0.00  0.00    +0.000 S 
BRANCH  14  15
ATOM     15  C   UNL     1     -67.460 -74.116  25.525  0.00  0.00    +0.000 A 
ATOM     16  C   UNL     1     -66.062 -74.156  25.740  0.00  0.00    +0.000 A 
ATOM     17  C   UNL     1     -65.196 -73.731  24.704  0.00  0.00    +0.000 A 
ATOM     18  C   UNL     1     -65.471 -74.611  26.933  0.00  0.00    +0.000 A 
ATOM     19  C   UNL     1     -65.713 -73.265  23.499  0.00  0.00    +0.000 A 
ATOM     20  C   UNL     1     -63.813 -73.778  24.872  0.00  0.00    +0.000 A 
ATOM     21  C   UNL     1     -67.087 -73.211  23.295  0.00  0.00    +0.000 A 
ATOM     22  C   UNL     1     -67.949 -73.634  24.299  0.00  0.00    +0.000 A 
ATOM     23  C   UNL     1     -63.259 -74.243  26.062  0.00  0.00    +0.000 A 
ATOM     24  C   UNL     1     -64.089 -74.658  27.096  0.00  0.00    +0.000 A 
BRANCH  22  25
ATOM     25  O   UNL     1     -69.289 -73.561  24.022  0.00  0.00    +0.000 OA
ATOM     26  H   UNL     1     -69.656 -74.462  24.098  0.00  0.00    +0.000 HD
ENDBRANCH  22  25
ENDBRANCH  14  15
ENDBRANCH   1  14
TORSDOF 5
ENDMDL
