MODEL 1
REMARK VINA RESULT:      -5.7      0.000      0.000
REMARK  Name = 
REMARK  4 active torsions:
REMARK  status: ('A' for Active; 'I' for Inactive)
REMARK    1  A    between atoms: C_1  and  C_6
REMARK    2  A    between atoms: C_1  and  C_7
REMARK    3  A    between atoms: C_9  and  C_14
REMARK    4  A    between atoms: C_11  and  C_15
REMARK                            x       y       z     vdW  Elec       q    Type
REMARK                         _______ _______ _______ _____ _____    ______ ____
ROOT
ATOM      1  C   UNL     1     -62.323 -64.382  40.401  0.00  0.00    +0.000 C 
ATOM      2  C   UNL     1     -61.453 -65.347  39.601  0.00  0.00    +0.000 C 
ATOM      3  C   UNL     1     -62.491 -64.512  38.896  0.00  0.00    +0.000 C 
ATOM      4  C   UNL     1     -61.593 -66.790  39.789  0.00  0.00    +0.000 C 
ATOM      5  C   UNL     1     -63.668 -65.144  38.222  0.00  0.00    +0.000 C 
ATOM      6  C   UNL     1     -63.403 -64.890  41.328  0.00  0.00    +0.000 C 
ATOM      7  C   UNL     1     -61.662 -63.124  40.909  0.00  0.00    +0.000 C 
ATOM      8  C   UNL     1     -62.226 -67.719  39.048  0.00  0.00    +0.000 C 
ATOM      9  C   UNL     1     -60.937 -67.417  41.004  0.00  0.00    +0.000 C 
ATOM     10  C   UNL     1     -63.200 -66.169  37.189  0.00  0.00    +0.000 C 
ATOM     11  C   UNL     1     -63.017 -67.587  37.766  0.00  0.00    +0.000 C 
ATOM     12  C   UNL     1     -62.116 -69.079  39.689  0.00  0.00    +0.000 C 
ATOM     13  C   UNL     1     -61.665 -68.757  41.108  0.00  0.00    +0.000 C 
ATOM     14  C   UNL     1     -59.431 -67.591  40.823  0.00  0.00    +0.000 C 
ATOM     15  C   UNL     1     -62.427 -68.485  36.669  0.00  0.00    +0.000 C 
ENDROOT
TORSDOF 0
ENDMDL
MODEL 2
REMARK VINA RESULT:      -5.5     17.463     18.801
REMARK  Name = 
REMARK  4 active torsions:
REMARK  status: ('A' for Active; 'I' for Inactive)
REMARK    1  A    between atoms: C_1  and  C_6
REMARK    2  A    between atoms: C_1  and  C_7
REMARK    3  A    between atoms: C_9  and  C_14
REMARK    4  A    between atoms: C_11  and  C_15
REMARK                            x       y       z     vdW  Elec       q    Type
REMARK                         _______ _______ _______ _____ _____    ______ ____
ROOT
ATOM      1  C   UNL     1     -46.512 -64.237  28.783  0.00  0.00    +0.000 C 
ATOM      2  C   UNL     1     -47.318 -65.482  28.421  0.00  0.00    +0.000 C 
ATOM      3  C   UNL     1     -47.648 -64.711  29.674  0.00  0.00    +0.000 C 
ATOM      4  C   UNL     1     -46.685 -66.799  28.448  0.00  0.00    +0.000 C 
ATOM      5  C   UNL     1     -47.471 -65.319  31.029  0.00  0.00    +0.000 C 
ATOM      6  C   UNL     1     -45.083 -64.344  29.260  0.00  0.00    +0.000 C 
ATOM      7  C   UNL     1     -46.761 -62.997  27.958  0.00  0.00    +0.000 C 
ATOM      8  C   UNL     1     -46.738 -67.785  29.364  0.00  0.00    +0.000 C 
ATOM      9  C   UNL     1     -45.807 -67.191  27.275  0.00  0.00    +0.000 C 
ATOM     10  C   UNL     1     -48.262 -66.623  31.133  0.00  0.00    +0.000 C 
ATOM     11  C   UNL     1     -47.466 -67.865  30.686  0.00  0.00    +0.000 C 
ATOM     12  C   UNL     1     -45.870 -68.945  28.949  0.00  0.00    +0.000 C 
ATOM     13  C   UNL     1     -44.994 -68.349  27.854  0.00  0.00    +0.000 C 
ATOM     14  C   UNL     1     -46.625 -67.613  26.057  0.00  0.00    +0.000 C 
ATOM     15  C   UNL     1     -48.405 -69.080  30.716  0.00  0.00    +0.000 C 
ENDROOT
TORSDOF 0
ENDMDL
MODEL 3
REMARK VINA RESULT:      -5.5     25.521     27.475
REMARK  Name = 
REMARK  4 active torsions:
REMARK  status: ('A' for Active; 'I' for Inactive)
REMARK    1  A    between atoms: C_1  and  C_6
REMARK    2  A    between atoms: C_1  and  C_7
REMARK    3  A    between atoms: C_9  and  C_14
REMARK    4  A    between atoms: C_11  and  C_15
REMARK                            x       y       z     vdW  Elec       q    Type
REMARK                         _______ _______ _______ _____ _____    ______ ____
ROOT
ATOM      1  C   UNL     1     -49.069 -41.020  39.955  0.00  0.00    +0.000 C 
ATOM      2  C   UNL     1     -50.410 -40.495  39.451  0.00  0.00    +0.000 C 
ATOM      3  C   UNL     1     -50.182 -40.677  40.930  0.00  0.00    +0.000 C 
ATOM      4  C   UNL     1     -51.293 -41.362  38.674  0.00  0.00    +0.000 C 
ATOM      5  C   UNL     1     -50.964 -41.681  41.717  0.00  0.00    +0.000 C 
ATOM      6  C   UNL     1     -48.666 -42.461  39.745  0.00  0.00    +0.000 C 
ATOM      7  C   UNL     1     -47.895 -40.072  39.895  0.00  0.00    +0.000 C 
ATOM      8  C   UNL     1     -52.396 -42.048  39.033  0.00  0.00    +0.000 C 
ATOM      9  C   UNL     1     -50.975 -41.571  37.206  0.00  0.00    +0.000 C 
ATOM     10  C   UNL     1     -52.463 -41.424  41.565  0.00  0.00    +0.000 C 
ATOM     11  C   UNL     1     -53.097 -42.160  40.367  0.00  0.00    +0.000 C 
ATOM     12  C   UNL     1     -52.935 -42.838  37.868  0.00  0.00    +0.000 C 
ATOM     13  C   UNL     1     -51.776 -42.832  36.879  0.00  0.00    +0.000 C 
ATOM     14  C   UNL     1     -51.398 -40.381  36.349  0.00  0.00    +0.000 C 
ATOM     15  C   UNL     1     -54.564 -41.721  40.249  0.00  0.00    +0.000 C 
ENDROOT
TORSDOF 0
ENDMDL
MODEL 4
REMARK VINA RESULT:      -5.4     24.921     28.199
REMARK  Name = 
REMARK  4 active torsions:
REMARK  status: ('A' for Active; 'I' for Inactive)
REMARK    1  A    between atoms: C_1  and  C_6
REMARK    2  A    between atoms: C_1  and  C_7
REMARK    3  A    between atoms: C_9  and  C_14
REMARK    4  A    between atoms: C_11  and  C_15
REMARK                            x       y       z     vdW  Elec       q    Type
REMARK                         _______ _______ _______ _____ _____    ______ ____
ROOT
ATOM      1  C   UNL     1     -64.249 -39.606  52.636  0.00  0.00    +0.000 C 
ATOM      2  C   UNL     1     -64.026 -41.108  52.787  0.00  0.00    +0.000 C 
ATOM      3  C   UNL     1     -63.875 -40.458  51.435  0.00  0.00    +0.000 C 
ATOM      4  C   UNL     1     -65.145 -41.986  53.121  0.00  0.00    +0.000 C 
ATOM      5  C   UNL     1     -64.799 -40.791  50.307  0.00  0.00    +0.000 C 
ATOM      6  C   UNL     1     -65.633 -39.008  52.737  0.00  0.00    +0.000 C 
ATOM      7  C   UNL     1     -63.179 -38.695  53.189  0.00  0.00    +0.000 C 
ATOM      8  C   UNL     1     -65.891 -42.799  52.348  0.00  0.00    +0.000 C 
ATOM      9  C   UNL     1     -65.598 -42.044  54.568  0.00  0.00    +0.000 C 
ATOM     10  C   UNL     1     -64.788 -42.296  50.039  0.00  0.00    +0.000 C 
ATOM     11  C   UNL     1     -65.829 -43.078  50.864  0.00  0.00    +0.000 C 
ATOM     12  C   UNL     1     -66.965 -43.472  53.163  0.00  0.00    +0.000 C 
ATOM     13  C   UNL     1     -66.997 -42.648  54.444  0.00  0.00    +0.000 C 
ATOM     14  C   UNL     1     -64.674 -42.902  55.428  0.00  0.00    +0.000 C 
ATOM     15  C   UNL     1     -65.630 -44.578  50.601  0.00  0.00    +0.000 C 
ENDROOT
TORSDOF 0
ENDMDL
MODEL 5
REMARK VINA RESULT:      -5.3     25.382     28.118
REMARK  Name = 
REMARK  4 active torsions:
REMARK  status: ('A' for Active; 'I' for Inactive)
REMARK    1  A    between atoms: C_1  and  C_6
REMARK    2  A    between atoms: C_1  and  C_7
REMARK    3  A    between atoms: C_9  and  C_14
REMARK    4  A    between atoms: C_11  and  C_15
REMARK                            x       y       z     vdW  Elec       q    Type
REMARK                         _______ _______ _______ _____ _____    ______ ____
ROOT
ATOM      1  C   UNL     1     -66.703 -43.008  50.779  0.00  0.00    +0.000 C 
ATOM      2  C   UNL     1     -66.546 -41.836  51.742  0.00  0.00    +0.000 C 
ATOM      3  C   UNL     1     -66.065 -41.708  50.319  0.00  0.00    +0.000 C 
ATOM      4  C   UNL     1     -65.633 -41.937  52.879  0.00  0.00    +0.000 C 
ATOM      5  C   UNL     1     -64.613 -41.537  50.003  0.00  0.00    +0.000 C 
ATOM      6  C   UNL     1     -65.860 -44.254  50.921  0.00  0.00    +0.000 C 
ATOM      7  C   UNL     1     -68.097 -43.301  50.277  0.00  0.00    +0.000 C 
ATOM      8  C   UNL     1     -64.390 -41.451  53.058  0.00  0.00    +0.000 C 
ATOM      9  C   UNL     1     -66.099 -42.704  54.101  0.00  0.00    +0.000 C 
ATOM     10  C   UNL     1     -64.051 -40.318  50.733  0.00  0.00    +0.000 C 
ATOM     11  C   UNL     1     -63.507 -40.637  52.140  0.00  0.00    +0.000 C 
ATOM     12  C   UNL     1     -63.844 -41.864  54.401  0.00  0.00    +0.000 C 
ATOM     13  C   UNL     1     -64.784 -42.986  54.827  0.00  0.00    +0.000 C 
ATOM     14  C   UNL     1     -67.068 -41.893  54.957  0.00  0.00    +0.000 C 
ATOM     15  C   UNL     1     -63.094 -39.319  52.811  0.00  0.00    +0.000 C 
ENDROOT
TORSDOF 0
ENDMDL
MODEL 6
REMARK VINA RESULT:      -5.3     30.780     32.569
REMARK  Name = 
REMARK  4 active torsions:
REMARK  status: ('A' for Active; 'I' for Inactive)
REMARK    1  A    between atoms: C_1  and  C_6
REMARK    2  A    between atoms: C_1  and  C_7
REMARK    3  A    between atoms: C_9  and  C_14
REMARK    4  A    between atoms: C_11  and  C_15
REMARK                            x       y       z     vdW  Elec       q    Type
REMARK                         _______ _______ _______ _____ _____    ______ ____
ROOT
ATOM      1  C   UNL     1     -40.817 -74.848  62.525  0.00  0.00    +0.000 C 
ATOM      2  C   UNL     1     -41.394 -75.802  63.568  0.00  0.00    +0.000 C 
ATOM      3  C   UNL     1     -41.617 -76.068  62.101  0.00  0.00    +0.000 C 
ATOM      4  C   UNL     1     -42.460 -75.355  64.461  0.00  0.00    +0.000 C 
ATOM      5  C   UNL     1     -42.988 -76.022  61.504  0.00  0.00    +0.000 C 
ATOM      6  C   UNL     1     -41.391 -73.464  62.332  0.00  0.00    +0.000 C 
ATOM      7  C   UNL     1     -39.324 -74.898  62.303  0.00  0.00    +0.000 C 
ATOM      8  C   UNL     1     -43.789 -75.572  64.427  0.00  0.00    +0.000 C 
ATOM      9  C   UNL     1     -42.079 -74.497  65.652  0.00  0.00    +0.000 C 
ATOM     10  C   UNL     1     -43.920 -76.985  62.239  0.00  0.00    +0.000 C 
ATOM     11  C   UNL     1     -44.637 -76.350  63.447  0.00  0.00    +0.000 C 
ATOM     12  C   UNL     1     -44.476 -74.855  65.562  0.00  0.00    +0.000 C 
ATOM     13  C   UNL     1     -43.418 -73.869  66.040  0.00  0.00    +0.000 C 
ATOM     14  C   UNL     1     -41.479 -75.322  66.789  0.00  0.00    +0.000 C 
ATOM     15  C   UNL     1     -45.435 -77.445  64.169  0.00  0.00    +0.000 C 
ENDROOT
TORSDOF 0
ENDMDL
MODEL 7
REMARK VINA RESULT:      -5.2     16.312     17.892
REMARK  Name = 
REMARK  4 active torsions:
REMARK  status: ('A' for Active; 'I' for Inactive)
REMARK    1  A    between atoms: C_1  and  C_6
REMARK    2  A    between atoms: C_1  and  C_7
REMARK    3  A    between atoms: C_9  and  C_14
REMARK    4  A    between atoms: C_11  and  C_15
REMARK                            x       y       z     vdW  Elec       q    Type
REMARK                         _______ _______ _______ _____ _____    ______ ____
ROOT
ATOM      1  C   UNL     1     -47.300 -67.567  31.426  0.00  0.00    +0.000 C 
ATOM      2  C   UNL     1     -47.944 -66.213  31.142  0.00  0.00    +0.000 C 
ATOM      3  C   UNL     1     -47.694 -67.178  30.011  0.00  0.00    +0.000 C 
ATOM      4  C   UNL     1     -47.175 -64.983  31.316  0.00  0.00    +0.000 C 
ATOM      5  C   UNL     1     -46.727 -66.856  28.916  0.00  0.00    +0.000 C 
ATOM      6  C   UNL     1     -45.841 -67.673  31.802  0.00  0.00    +0.000 C 
ATOM      7  C   UNL     1     -48.157 -68.602  32.115  0.00  0.00    +0.000 C 
ATOM      8  C   UNL     1     -46.565 -64.188  30.415  0.00  0.00    +0.000 C 
ATOM      9  C   UNL     1     -46.993 -64.449  32.724  0.00  0.00    +0.000 C 
ATOM     10  C   UNL     1     -47.104 -65.534  28.247  0.00  0.00    +0.000 C 
ATOM     11  C   UNL     1     -46.461 -64.301  28.911  0.00  0.00    +0.000 C 
ATOM     12  C   UNL     1     -45.859 -63.047  31.102  0.00  0.00    +0.000 C 
ATOM     13  C   UNL     1     -45.810 -63.495  32.557  0.00  0.00    +0.000 C 
ATOM     14  C   UNL     1     -48.242 -63.736  33.237  0.00  0.00    +0.000 C 
ATOM     15  C   UNL     1     -47.016 -63.040  28.233  0.00  0.00    +0.000 C 
ENDROOT
TORSDOF 0
ENDMDL
MODEL 8
REMARK VINA RESULT:      -5.1     21.890     24.741
REMARK  Name = 
REMARK  4 active torsions:
REMARK  status: ('A' for Active; 'I' for Inactive)
REMARK    1  A    between atoms: C_1  and  C_6
REMARK    2  A    between atoms: C_1  and  C_7
REMARK    3  A    between atoms: C_9  and  C_14
REMARK    4  A    between atoms: C_11  and  C_15
REMARK                            x       y       z     vdW  Elec       q    Type
REMARK                         _______ _______ _______ _____ _____    ______ ____
ROOT
ATOM      1  C   UNL     1     -65.664 -41.273  37.735  0.00  0.00    +0.000 C 
ATOM      2  C   UNL     1     -65.049 -41.366  39.129  0.00  0.00    +0.000 C 
ATOM      3  C   UNL     1     -64.646 -40.247  38.203  0.00  0.00    +0.000 C 
ATOM      4  C   UNL     1     -64.157 -42.473  39.466  0.00  0.00    +0.000 C 
ATOM      5  C   UNL     1     -63.247 -40.136  37.683  0.00  0.00    +0.000 C 
ATOM      6  C   UNL     1     -65.297 -42.262  36.654  0.00  0.00    +0.000 C 
ATOM      7  C   UNL     1     -67.102 -40.821  37.649  0.00  0.00    +0.000 C 
ATOM      8  C   UNL     1     -62.814 -42.533  39.543  0.00  0.00    +0.000 C 
ATOM      9  C   UNL     1     -64.781 -43.815  39.799  0.00  0.00    +0.000 C 
ATOM     10  C   UNL     1     -62.252 -40.084  38.842  0.00  0.00    +0.000 C 
ATOM     11  C   UNL     1     -61.764 -41.472  39.300  0.00  0.00    +0.000 C 
ATOM     12  C   UNL     1     -62.361 -43.927  39.893  0.00  0.00    +0.000 C 
ATOM     13  C   UNL     1     -63.601 -44.771  39.629  0.00  0.00    +0.000 C 
ATOM     14  C   UNL     1     -65.353 -43.850  41.214  0.00  0.00    +0.000 C 
ATOM     15  C   UNL     1     -60.879 -41.290  40.541  0.00  0.00    +0.000 C 
ENDROOT
TORSDOF 0
ENDMDL
MODEL 9
REMARK VINA RESULT:      -5.1     16.789     18.368
REMARK  Name = 
REMARK  4 active torsions:
REMARK  status: ('A' for Active; 'I' for Inactive)
REMARK    1  A    between atoms: C_1  and  C_6
REMARK    2  A    between atoms: C_1  and  C_7
REMARK    3  A    between atoms: C_9  and  C_14
REMARK    4  A    between atoms: C_11  and  C_15
REMARK                            x       y       z     vdW  Elec       q    Type
REMARK                         _______ _______ _______ _____ _____    ______ ____
ROOT
ATOM      1  C   UNL     1     -46.399 -66.401  28.006  0.00  0.00    +0.000 C 
ATOM      2  C   UNL     1     -47.435 -65.964  29.037  0.00  0.00    +0.000 C 
ATOM      3  C   UNL     1     -46.673 -64.927  28.252  0.00  0.00    +0.000 C 
ATOM      4  C   UNL     1     -47.203 -66.207  30.460  0.00  0.00    +0.000 C 
ATOM      5  C   UNL     1     -45.725 -63.985  28.927  0.00  0.00    +0.000 C 
ATOM      6  C   UNL     1     -45.081 -67.005  28.431  0.00  0.00    +0.000 C 
ATOM      7  C   UNL     1     -46.921 -66.987  26.716  0.00  0.00    +0.000 C 
ATOM      8  C   UNL     1     -46.785 -65.383  31.439  0.00  0.00    +0.000 C 
ATOM      9  C   UNL     1     -47.456 -67.603  30.994  0.00  0.00    +0.000 C 
ATOM     10  C   UNL     1     -46.442 -63.212  30.033  0.00  0.00    +0.000 C 
ATOM     11  C   UNL     1     -46.407 -63.920  31.403  0.00  0.00    +0.000 C 
ATOM     12  C   UNL     1     -46.662 -66.125  32.745  0.00  0.00    +0.000 C 
ATOM     13  C   UNL     1     -46.689 -67.587  32.317  0.00  0.00    +0.000 C 
ATOM     14  C   UNL     1     -48.943 -67.884  31.194  0.00  0.00    +0.000 C 
ATOM     15  C   UNL     1     -47.263 -63.112  32.388  0.00  0.00    +0.000 C 
ENDROOT
TORSDOF 0
ENDMDL
