MODEL 1
REMARK VINA RESULT:      -7.2      0.000      0.000
REMARK  Name = JAK3_Inhibitor.pdbqt.pdb
REMARK  1 active torsions:
REMARK  status: ('A' for Active; 'I' for Inactive)
REMARK    1  A    between atoms: C_7  and  C_20
REMARK                            x       y       z     vdW  Elec       q    Type
REMARK                         _______ _______ _______ _____ _____    ______ ____
ROOT
ATOM      1  O   UNL     1     -38.531 -43.754  46.128  0.00  0.00    +0.000 OA
ATOM      2  N   UNL     1     -40.279 -42.222  46.420  0.00  0.00    +0.000 N 
ATOM      3  C   UNL     1     -40.301 -42.040  48.707  0.00  0.00    +0.000 A 
ATOM      4  C   UNL     1     -40.893 -41.614  47.516  0.00  0.00    +0.000 A 
ATOM      5  C   UNL     1     -39.256 -42.971  48.317  0.00  0.00    +0.000 C 
ATOM      6  C   UNL     1     -40.744 -41.572  49.928  0.00  0.00    +0.000 A 
ATOM      7  C   UNL     1     -41.806 -40.651  49.960  0.00  0.00    +0.000 A 
ATOM      8  C   UNL     1     -39.259 -43.075  46.826  0.00  0.00    +0.000 C 
ATOM      9  C   UNL     1     -41.935 -40.714  47.495  0.00  0.00    +0.000 A 
ATOM     10  C   UNL     1     -38.443 -43.620  49.088  0.00  0.00    +0.000 C 
ATOM     11  C   UNL     1     -42.379 -40.242  48.732  0.00  0.00    +0.000 A 
ATOM     12  H   UNL     1     -40.524 -42.079  45.451  0.00  0.00    +0.000 HD
ATOM     13  N   UNL     1     -36.585 -45.207  49.382  0.00  0.00    +0.000 N 
ATOM     14  C   UNL     1     -37.530 -44.353  49.888  0.00  0.00    +0.000 C 
ATOM     15  C   UNL     1     -37.411 -44.355  51.259  0.00  0.00    +0.000 C 
ATOM     16  C   UNL     1     -35.868 -45.754  50.412  0.00  0.00    +0.000 C 
ATOM     17  C   UNL     1     -36.360 -45.242  51.590  0.00  0.00    +0.000 C 
ATOM     18  H   UNL     1     -36.442 -45.402  48.400  0.00  0.00    +0.000 HD
ENDROOT
BRANCH   7  20
ATOM     19  N   UNL     1     -41.855 -39.116  53.407  0.00  0.00    +0.000 NA
ATOM     20  C   UNL     1     -42.308 -40.127  51.235  0.00  0.00    +0.000 A 
ATOM     21  C   UNL     1     -43.669 -40.108  51.546  0.00  0.00    +0.000 A 
ATOM     22  C   UNL     1     -41.461 -39.614  52.213  0.00  0.00    +0.000 A 
ATOM     23  C   UNL     1     -44.126 -39.606  52.760  0.00  0.00    +0.000 A 
ATOM     24  C   UNL     1     -43.182 -39.125  53.649  0.00  0.00    +0.000 A 
ENDBRANCH   7  20
TORSDOF 1
ENDMDL
MODEL 2
REMARK VINA RESULT:      -7.2      7.707     11.303
REMARK  Name = JAK3_Inhibitor.pdbqt.pdb
REMARK  1 active torsions:
REMARK  status: ('A' for Active; 'I' for Inactive)
REMARK    1  A    between atoms: C_7  and  C_20
REMARK                            x       y       z     vdW  Elec       q    Type
REMARK                         _______ _______ _______ _____ _____    ______ ____
ROOT
ATOM      1  O   UNL     1     -31.552 -53.603  51.868  0.00  0.00    +0.000 OA
ATOM      2  N   UNL     1     -33.295 -52.418  52.889  0.00  0.00    +0.000 N 
ATOM      3  C   UNL     1     -32.819 -50.285  52.191  0.00  0.00    +0.000 A 
ATOM      4  C   UNL     1     -33.690 -51.080  52.938  0.00  0.00    +0.000 A 
ATOM      5  C   UNL     1     -31.823 -51.193  51.647  0.00  0.00    +0.000 C 
ATOM      6  C   UNL     1     -33.008 -48.921  52.092  0.00  0.00    +0.000 A 
ATOM      7  C   UNL     1     -34.099 -48.336  52.757  0.00  0.00    +0.000 A 
ATOM      8  C   UNL     1     -32.152 -52.575  52.114  0.00  0.00    +0.000 C 
ATOM      9  C   UNL     1     -34.772 -50.554  53.607  0.00  0.00    +0.000 A 
ATOM     10  C   UNL     1     -30.813 -50.905  50.890  0.00  0.00    +0.000 C 
ATOM     11  C   UNL     1     -34.961 -49.174  53.504  0.00  0.00    +0.000 A 
ATOM     12  H   UNL     1     -33.760 -53.188  53.346  0.00  0.00    +0.000 HD
ATOM     13  N   UNL     1     -28.826 -51.605  49.619  0.00  0.00    +0.000 N 
ATOM     14  C   UNL     1     -29.694 -50.640  50.061  0.00  0.00    +0.000 C 
ATOM     15  C   UNL     1     -29.275 -49.431  49.557  0.00  0.00    +0.000 C 
ATOM     16  C   UNL     1     -27.859 -51.025  48.841  0.00  0.00    +0.000 C 
ATOM     17  C   UNL     1     -28.114 -49.674  48.787  0.00  0.00    +0.000 C 
ATOM     18  H   UNL     1     -28.892 -52.591  49.834  0.00  0.00    +0.000 HD
ENDROOT
BRANCH   7  20
ATOM     19  N   UNL     1     -35.852 -45.044  52.179  0.00  0.00    +0.000 NA
ATOM     20  C   UNL     1     -34.340 -46.890  52.680  0.00  0.00    +0.000 A 
ATOM     21  C   UNL     1     -33.358 -45.954  53.011  0.00  0.00    +0.000 A 
ATOM     22  C   UNL     1     -35.561 -46.361  52.273  0.00  0.00    +0.000 A 
ATOM     23  C   UNL     1     -33.606 -44.588  52.931  0.00  0.00    +0.000 A 
ATOM     24  C   UNL     1     -34.862 -44.190  52.512  0.00  0.00    +0.000 A 
ENDBRANCH   7  20
TORSDOF 1
ENDMDL
MODEL 3
REMARK VINA RESULT:      -6.9     31.603     34.196
REMARK  Name = JAK3_Inhibitor.pdbqt.pdb
REMARK  1 active torsions:
REMARK  status: ('A' for Active; 'I' for Inactive)
REMARK    1  A    between atoms: C_7  and  C_20
REMARK                            x       y       z     vdW  Elec       q    Type
REMARK                         _______ _______ _______ _____ _____    ______ ____
ROOT
ATOM      1  O   UNL     1     -44.244 -63.269  23.951  0.00  0.00    +0.000 OA
ATOM      2  N   UNL     1     -45.140 -62.950  26.091  0.00  0.00    +0.000 N 
ATOM      3  C   UNL     1     -45.769 -65.095  26.608  0.00  0.00    +0.000 A 
ATOM      4  C   UNL     1     -45.723 -63.773  27.056  0.00  0.00    +0.000 A 
ATOM      5  C   UNL     1     -45.176 -65.083  25.282  0.00  0.00    +0.000 C 
ATOM      6  C   UNL     1     -46.308 -66.094  27.394  0.00  0.00    +0.000 A 
ATOM      7  C   UNL     1     -46.812 -65.763  28.664  0.00  0.00    +0.000 A 
ATOM      8  C   UNL     1     -44.773 -63.678  24.966  0.00  0.00    +0.000 C 
ATOM      9  C   UNL     1     -46.204 -63.399  28.291  0.00  0.00    +0.000 A 
ATOM     10  C   UNL     1     -45.005 -66.084  24.478  0.00  0.00    +0.000 C 
ATOM     11  C   UNL     1     -46.747 -64.413  29.084  0.00  0.00    +0.000 A 
ATOM     12  H   UNL     1     -44.991 -61.955  26.176  0.00  0.00    +0.000 HD
ATOM     13  N   UNL     1     -44.219 -66.991  22.331  0.00  0.00    +0.000 N 
ATOM     14  C   UNL     1     -44.796 -67.147  23.564  0.00  0.00    +0.000 C 
ATOM     15  C   UNL     1     -45.111 -68.477  23.718  0.00  0.00    +0.000 C 
ATOM     16  C   UNL     1     -44.163 -68.205  21.698  0.00  0.00    +0.000 C 
ATOM     17  C   UNL     1     -44.711 -69.146  22.538  0.00  0.00    +0.000 C 
ATOM     18  H   UNL     1     -43.887 -66.115  21.949  0.00  0.00    +0.000 HD
ENDROOT
BRANCH   7  20
ATOM     19  N   UNL     1     -47.670 -69.150  30.090  0.00  0.00    +0.000 NA
ATOM     20  C   UNL     1     -47.392 -66.792  29.534  0.00  0.00    +0.000 A 
ATOM     21  C   UNL     1     -48.206 -66.473  30.623  0.00  0.00    +0.000 A 
ATOM     22  C   UNL     1     -47.168 -68.151  29.330  0.00  0.00    +0.000 A 
ATOM     23  C   UNL     1     -48.747 -67.463  31.436  0.00  0.00    +0.000 A 
ATOM     24  C   UNL     1     -48.448 -68.778  31.127  0.00  0.00    +0.000 A 
ENDBRANCH   7  20
TORSDOF 1
ENDMDL
MODEL 4
REMARK VINA RESULT:      -6.6     26.600     28.763
REMARK  Name = JAK3_Inhibitor.pdbqt.pdb
REMARK  1 active torsions:
REMARK  status: ('A' for Active; 'I' for Inactive)
REMARK    1  A    between atoms: C_7  and  C_20
REMARK                            x       y       z     vdW  Elec       q    Type
REMARK                         _______ _______ _______ _____ _____    ______ ____
ROOT
ATOM      1  O   UNL     1     -45.887 -64.219  28.390  0.00  0.00    +0.000 OA
ATOM      2  N   UNL     1     -45.906 -62.287  29.715  0.00  0.00    +0.000 N 
ATOM      3  C   UNL     1     -46.887 -63.095  31.625  0.00  0.00    +0.000 A 
ATOM      4  C   UNL     1     -46.339 -61.971  31.003  0.00  0.00    +0.000 A 
ATOM      5  C   UNL     1     -46.783 -64.172  30.654  0.00  0.00    +0.000 C 
ATOM      6  C   UNL     1     -47.386 -63.025  32.910  0.00  0.00    +0.000 A 
ATOM      7  C   UNL     1     -47.334 -61.798  33.594  0.00  0.00    +0.000 A 
ATOM      8  C   UNL     1     -46.143 -63.624  29.420  0.00  0.00    +0.000 C 
ATOM      9  C   UNL     1     -46.266 -60.747  31.631  0.00  0.00    +0.000 A 
ATOM     10  C   UNL     1     -47.165 -65.402  30.789  0.00  0.00    +0.000 C 
ATOM     11  C   UNL     1     -46.771 -60.681  32.932  0.00  0.00    +0.000 A 
ATOM     12  H   UNL     1     -45.474 -61.647  29.063  0.00  0.00    +0.000 HD
ATOM     13  N   UNL     1     -47.407 -67.676  29.880  0.00  0.00    +0.000 N 
ATOM     14  C   UNL     1     -47.565 -66.758  30.886  0.00  0.00    +0.000 C 
ATOM     15  C   UNL     1     -48.160 -67.396  31.951  0.00  0.00    +0.000 C 
ATOM     16  C   UNL     1     -47.894 -68.889  30.290  0.00  0.00    +0.000 C 
ATOM     17  C   UNL     1     -48.368 -68.743  31.573  0.00  0.00    +0.000 C 
ATOM     18  H   UNL     1     -46.995 -67.485  28.977  0.00  0.00    +0.000 HD
ENDROOT
BRANCH   7  20
ATOM     19  N   UNL     1     -49.285 -60.526  36.563  0.00  0.00    +0.000 NA
ATOM     20  C   UNL     1     -47.852 -61.677  34.962  0.00  0.00    +0.000 A 
ATOM     21  C   UNL     1     -47.456 -62.541  35.985  0.00  0.00    +0.000 A 
ATOM     22  C   UNL     1     -48.768 -60.695  35.325  0.00  0.00    +0.000 A 
ATOM     23  C   UNL     1     -47.958 -62.410  37.275  0.00  0.00    +0.000 A 
ATOM     24  C   UNL     1     -48.865 -61.392  37.509  0.00  0.00    +0.000 A 
ENDBRANCH   7  20
TORSDOF 1
ENDMDL
MODEL 5
REMARK VINA RESULT:      -6.5      6.699     10.017
REMARK  Name = JAK3_Inhibitor.pdbqt.pdb
REMARK  1 active torsions:
REMARK  status: ('A' for Active; 'I' for Inactive)
REMARK    1  A    between atoms: C_7  and  C_20
REMARK                            x       y       z     vdW  Elec       q    Type
REMARK                         _______ _______ _______ _____ _____    ______ ____
ROOT
ATOM      1  O   UNL     1     -34.077 -40.846  52.868  0.00  0.00    +0.000 OA
ATOM      2  N   UNL     1     -35.463 -42.661  52.352  0.00  0.00    +0.000 N 
ATOM      3  C   UNL     1     -34.039 -44.411  52.767  0.00  0.00    +0.000 A 
ATOM      4  C   UNL     1     -35.323 -44.050  52.354  0.00  0.00    +0.000 A 
ATOM      5  C   UNL     1     -33.345 -43.163  53.036  0.00  0.00    +0.000 C 
ATOM      6  C   UNL     1     -33.664 -45.738  52.847  0.00  0.00    +0.000 A 
ATOM      7  C   UNL     1     -34.599 -46.730  52.507  0.00  0.00    +0.000 A 
ATOM      8  C   UNL     1     -34.290 -42.038  52.759  0.00  0.00    +0.000 C 
ATOM      9  C   UNL     1     -36.274 -44.985  52.011  0.00  0.00    +0.000 A 
ATOM     10  C   UNL     1     -32.126 -43.003  53.442  0.00  0.00    +0.000 C 
ATOM     11  C   UNL     1     -35.891 -46.326  52.094  0.00  0.00    +0.000 A 
ATOM     12  H   UNL     1     -36.297 -42.153  52.094  0.00  0.00    +0.000 HD
ATOM     13  N   UNL     1     -30.269 -41.529  54.100  0.00  0.00    +0.000 N 
ATOM     14  C   UNL     1     -30.799 -42.774  53.887  0.00  0.00    +0.000 C 
ATOM     15  C   UNL     1     -29.828 -43.704  54.179  0.00  0.00    +0.000 C 
ATOM     16  C   UNL     1     -28.972 -41.653  54.523  0.00  0.00    +0.000 C 
ATOM     17  C   UNL     1     -28.672 -42.994  54.582  0.00  0.00    +0.000 C 
ATOM     18  H   UNL     1     -30.760 -40.655  53.964  0.00  0.00    +0.000 HD
ENDROOT
BRANCH   7  20
ATOM     19  N   UNL     1     -32.874 -50.010  51.793  0.00  0.00    +0.000 NA
ATOM     20  C   UNL     1     -34.245 -48.153  52.578  0.00  0.00    +0.000 A 
ATOM     21  C   UNL     1     -34.883 -49.035  53.452  0.00  0.00    +0.000 A 
ATOM     22  C   UNL     1     -33.251 -48.712  51.780  0.00  0.00    +0.000 A 
ATOM     23  C   UNL     1     -34.534 -50.380  53.505  0.00  0.00    +0.000 A 
ATOM     24  C   UNL     1     -33.528 -50.812  52.659  0.00  0.00    +0.000 A 
ENDBRANCH   7  20
TORSDOF 1
ENDMDL
MODEL 6
REMARK VINA RESULT:      -6.3     29.491     32.135
REMARK  Name = JAK3_Inhibitor.pdbqt.pdb
REMARK  1 active torsions:
REMARK  status: ('A' for Active; 'I' for Inactive)
REMARK    1  A    between atoms: C_7  and  C_20
REMARK                            x       y       z     vdW  Elec       q    Type
REMARK                         _______ _______ _______ _____ _____    ______ ____
ROOT
ATOM      1  O   UNL     1     -38.036 -73.462  51.223  0.00  0.00    +0.000 OA
ATOM      2  N   UNL     1     -40.104 -74.529  51.491  0.00  0.00    +0.000 N 
ATOM      3  C   UNL     1     -41.110 -74.007  49.496  0.00  0.00    +0.000 A 
ATOM      4  C   UNL     1     -41.256 -74.671  50.716  0.00  0.00    +0.000 A 
ATOM      5  C   UNL     1     -39.781 -73.419  49.524  0.00  0.00    +0.000 C 
ATOM      6  C   UNL     1     -42.125 -74.006  48.560  0.00  0.00    +0.000 A 
ATOM      7  C   UNL     1     -43.318 -74.689  48.851  0.00  0.00    +0.000 A 
ATOM      8  C   UNL     1     -39.145 -73.771  50.830  0.00  0.00    +0.000 C 
ATOM      9  C   UNL     1     -42.405 -75.353  51.047  0.00  0.00    +0.000 A 
ATOM     10  C   UNL     1     -39.208 -72.708  48.606  0.00  0.00    +0.000 C 
ATOM     11  C   UNL     1     -43.429 -75.351  50.097  0.00  0.00    +0.000 A 
ATOM     12  H   UNL     1     -39.961 -74.917  52.413  0.00  0.00    +0.000 HD
ATOM     13  N   UNL     1     -37.269 -71.430  47.793  0.00  0.00    +0.000 N 
ATOM     14  C   UNL     1     -38.536 -71.927  47.632  0.00  0.00    +0.000 C 
ATOM     15  C   UNL     1     -38.993 -71.530  46.397  0.00  0.00    +0.000 C 
ATOM     16  C   UNL     1     -36.913 -70.721  46.676  0.00  0.00    +0.000 C 
ATOM     17  C   UNL     1     -37.967 -70.767  45.792  0.00  0.00    +0.000 C 
ATOM     18  H   UNL     1     -36.689 -71.566  48.610  0.00  0.00    +0.000 HD
ENDROOT
BRANCH   7  20
ATOM     19  N   UNL     1     -45.548 -75.813  46.022  0.00  0.00    +0.000 NA
ATOM     20  C   UNL     1     -44.424 -74.716  47.886  0.00  0.00    +0.000 A 
ATOM     21  C   UNL     1     -45.411 -73.729  47.859  0.00  0.00    +0.000 A 
ATOM     22  C   UNL     1     -44.558 -75.726  46.938  0.00  0.00    +0.000 A 
ATOM     23  C   UNL     1     -46.451 -73.772  46.937  0.00  0.00    +0.000 A 
ATOM     24  C   UNL     1     -46.472 -74.830  46.046  0.00  0.00    +0.000 A 
ENDBRANCH   7  20
TORSDOF 1
ENDMDL
MODEL 7
REMARK VINA RESULT:      -6.3     20.382     23.304
REMARK  Name = JAK3_Inhibitor.pdbqt.pdb
REMARK  1 active torsions:
REMARK  status: ('A' for Active; 'I' for Inactive)
REMARK    1  A    between atoms: C_7  and  C_20
REMARK                            x       y       z     vdW  Elec       q    Type
REMARK                         _______ _______ _______ _____ _____    ______ ____
ROOT
ATOM      1  O   UNL     1     -59.052 -40.060  30.673  0.00  0.00    +0.000 OA
ATOM      2  N   UNL     1     -58.930 -39.983  33.011  0.00  0.00    +0.000 N 
ATOM      3  C   UNL     1     -56.880 -40.955  33.358  0.00  0.00    +0.000 A 
ATOM      4  C   UNL     1     -57.996 -40.379  33.969  0.00  0.00    +0.000 A 
ATOM      5  C   UNL     1     -57.146 -40.909  31.930  0.00  0.00    +0.000 C 
ATOM      6  C   UNL     1     -55.821 -41.425  34.108  0.00  0.00    +0.000 A 
ATOM      7  C   UNL     1     -55.877 -41.316  35.508  0.00  0.00    +0.000 A 
ATOM      8  C   UNL     1     -58.484 -40.273  31.726  0.00  0.00    +0.000 C 
ATOM      9  C   UNL     1     -58.098 -40.250  35.337  0.00  0.00    +0.000 A 
ATOM     10  C   UNL     1     -56.391 -41.332  30.967  0.00  0.00    +0.000 C 
ATOM     11  C   UNL     1     -57.024 -40.726  36.092  0.00  0.00    +0.000 A 
ATOM     12  H   UNL     1     -59.818 -39.541  33.199  0.00  0.00    +0.000 HD
ATOM     13  N   UNL     1     -55.980 -41.674  28.565  0.00  0.00    +0.000 N 
ATOM     14  C   UNL     1     -55.601 -41.779  29.878  0.00  0.00    +0.000 C 
ATOM     15  C   UNL     1     -54.361 -42.375  29.914  0.00  0.00    +0.000 C 
ATOM     16  C   UNL     1     -54.999 -42.196  27.764  0.00  0.00    +0.000 C 
ATOM     17  C   UNL     1     -53.981 -42.639  28.577  0.00  0.00    +0.000 C 
ATOM     18  H   UNL     1     -56.850 -41.273  28.240  0.00  0.00    +0.000 HD
ENDROOT
BRANCH   7  20
ATOM     19  N   UNL     1     -52.442 -42.480  36.546  0.00  0.00    +0.000 NA
ATOM     20  C   UNL     1     -54.774 -41.801  36.345  0.00  0.00    +0.000 A 
ATOM     21  C   UNL     1     -54.934 -42.060  37.708  0.00  0.00    +0.000 A 
ATOM     22  C   UNL     1     -53.501 -42.034  35.834  0.00  0.00    +0.000 A 
ATOM     23  C   UNL     1     -53.876 -42.520  38.485  0.00  0.00    +0.000 A 
ATOM     24  C   UNL     1     -52.658 -42.711  37.858  0.00  0.00    +0.000 A 
ENDBRANCH   7  20
TORSDOF 1
ENDMDL
MODEL 8
REMARK VINA RESULT:      -6.3     30.696     33.269
REMARK  Name = JAK3_Inhibitor.pdbqt.pdb
REMARK  1 active torsions:
REMARK  status: ('A' for Active; 'I' for Inactive)
REMARK    1  A    between atoms: C_7  and  C_20
REMARK                            x       y       z     vdW  Elec       q    Type
REMARK                         _______ _______ _______ _____ _____    ______ ____
ROOT
ATOM      1  O   UNL     1     -45.671 -69.980  27.200  0.00  0.00    +0.000 OA
ATOM      2  N   UNL     1     -46.246 -68.604  29.005  0.00  0.00    +0.000 N 
ATOM      3  C   UNL     1     -46.083 -66.535  28.026  0.00  0.00    +0.000 A 
ATOM      4  C   UNL     1     -46.374 -67.228  29.203  0.00  0.00    +0.000 A 
ATOM      5  C   UNL     1     -45.755 -67.552  27.041  0.00  0.00    +0.000 C 
ATOM      6  C   UNL     1     -46.142 -65.156  27.979  0.00  0.00    +0.000 A 
ATOM      7  C   UNL     1     -46.503 -64.451  29.140  0.00  0.00    +0.000 A 
ATOM      8  C   UNL     1     -45.867 -68.889  27.699  0.00  0.00    +0.000 C 
ATOM      9  C   UNL     1     -46.733 -66.582  30.366  0.00  0.00    +0.000 A 
ATOM     10  C   UNL     1     -45.418 -67.378  25.803  0.00  0.00    +0.000 C 
ATOM     11  C   UNL     1     -46.792 -65.188  30.313  0.00  0.00    +0.000 A 
ATOM     12  H   UNL     1     -46.404 -69.317  29.702  0.00  0.00    +0.000 HD
ATOM     13  N   UNL     1     -44.758 -68.299  23.618  0.00  0.00    +0.000 N 
ATOM     14  C   UNL     1     -45.046 -67.242  24.442  0.00  0.00    +0.000 C 
ATOM     15  C   UNL     1     -44.905 -66.086  23.710  0.00  0.00    +0.000 C 
ATOM     16  C   UNL     1     -44.436 -67.832  22.372  0.00  0.00    +0.000 C 
ATOM     17  C   UNL     1     -44.518 -66.459  22.401  0.00  0.00    +0.000 C 
ATOM     18  H   UNL     1     -44.782 -69.273  23.891  0.00  0.00    +0.000 HD
ENDROOT
BRANCH   7  20
ATOM     19  N   UNL     1     -46.170 -60.866  30.269  0.00  0.00    +0.000 NA
ATOM     20  C   UNL     1     -46.579 -62.985  29.136  0.00  0.00    +0.000 A 
ATOM     21  C   UNL     1     -47.107 -62.271  28.059  0.00  0.00    +0.000 A 
ATOM     22  C   UNL     1     -46.130 -62.216  30.205  0.00  0.00    +0.000 A 
ATOM     23  C   UNL     1     -47.171 -60.882  28.074  0.00  0.00    +0.000 A 
ATOM     24  C   UNL     1     -46.691 -60.233  29.197  0.00  0.00    +0.000 A 
ENDBRANCH   7  20
TORSDOF 1
ENDMDL
MODEL 9
REMARK VINA RESULT:      -6.1      2.616      6.902
REMARK  Name = JAK3_Inhibitor.pdbqt.pdb
REMARK  1 active torsions:
REMARK  status: ('A' for Active; 'I' for Inactive)
REMARK    1  A    between atoms: C_7  and  C_20
REMARK                            x       y       z     vdW  Elec       q    Type
REMARK                         _______ _______ _______ _____ _____    ______ ____
ROOT
ATOM      1  O   UNL     1     -45.123 -39.384  49.900  0.00  0.00    +0.000 OA
ATOM      2  N   UNL     1     -43.633 -40.640  48.602  0.00  0.00    +0.000 N 
ATOM      3  C   UNL     1     -41.797 -40.672  49.978  0.00  0.00    +0.000 A 
ATOM      4  C   UNL     1     -42.320 -41.088  48.751  0.00  0.00    +0.000 A 
ATOM      5  C   UNL     1     -42.860 -39.919  50.623  0.00  0.00    +0.000 C 
ATOM      6  C   UNL     1     -40.508 -40.996  50.349  0.00  0.00    +0.000 A 
ATOM      7  C   UNL     1     -39.719 -41.759  49.471  0.00  0.00    +0.000 A 
ATOM      8  C   UNL     1     -44.044 -39.911  49.711  0.00  0.00    +0.000 C 
ATOM      9  C   UNL     1     -41.586 -41.837  47.858  0.00  0.00    +0.000 A 
ATOM     10  C   UNL     1     -42.832 -39.338  51.780  0.00  0.00    +0.000 C 
ATOM     11  C   UNL     1     -40.282 -42.163  48.238  0.00  0.00    +0.000 A 
ATOM     12  H   UNL     1     -44.227 -40.811  47.803  0.00  0.00    +0.000 HD
ATOM     13  N   UNL     1     -43.935 -38.004  53.529  0.00  0.00    +0.000 N 
ATOM     14  C   UNL     1     -42.853 -38.688  53.040  0.00  0.00    +0.000 C 
ATOM     15  C   UNL     1     -41.848 -38.614  53.976  0.00  0.00    +0.000 C 
ATOM     16  C   UNL     1     -43.632 -37.495  54.764  0.00  0.00    +0.000 C 
ATOM     17  C   UNL     1     -42.340 -37.859  55.066  0.00  0.00    +0.000 C 
ATOM     18  H   UNL     1     -44.820 -37.894  53.050  0.00  0.00    +0.000 HD
ENDROOT
BRANCH   7  20
ATOM     19  N   UNL     1     -36.638 -43.851  50.079  0.00  0.00    +0.000 NA
ATOM     20  C   UNL     1     -38.343 -42.127  49.825  0.00  0.00    +0.000 A 
ATOM     21  C   UNL     1     -37.403 -41.182  50.239  0.00  0.00    +0.000 A 
ATOM     22  C   UNL     1     -37.888 -43.441  49.769  0.00  0.00    +0.000 A 
ATOM     23  C   UNL     1     -36.104 -41.551  50.570  0.00  0.00    +0.000 A 
ATOM     24  C   UNL     1     -35.775 -42.891  50.472  0.00  0.00    +0.000 A 
ENDBRANCH   7  20
TORSDOF 1
ENDMDL
