MODEL 1
REMARK VINA RESULT:      -5.6      0.000      0.000
REMARK  Name = Leptomycin.pdbqt.pdb
REMARK  12 active torsions:
REMARK  status: ('A' for Active; 'I' for Inactive)
REMARK    1  A    between atoms: C_2  and  C_4
REMARK    2  A    between atoms: C_5  and  C_6
REMARK    3  A    between atoms: C_6  and  C_7
REMARK    4  A    between atoms: C_10  and  C_11
REMARK    5  A    between atoms: C_10  and  C_21
REMARK    6  A    between atoms: C_12  and  C_13
REMARK    7  A    between atoms: C_23  and  C_25
REMARK    8  A    between atoms: C_25  and  C_27
REMARK    9  A    between atoms: C_27  and  C_29
REMARK   10  A    between atoms: C_29  and  O_30
REMARK   11  A    between atoms: C_29  and  C_32
REMARK   12  A    between atoms: C_38  and  O_40
REMARK                            x       y       z     vdW  Elec       q    Type
REMARK                         _______ _______ _______ _____ _____    ______ ____
ROOT
ATOM      1  C   UNL     1     -57.000 -38.297  39.224  0.00  0.00    +0.000 C 
ATOM      2  C   UNL     1     -56.982 -39.589  39.279  0.00  0.00    +0.000 C 
ATOM      3  C   UNL     1     -57.953 -40.286  40.187  0.00  0.00    +0.000 C 
ATOM      4  C   UNL     1     -57.010 -36.886  39.088  0.00  0.00    +0.000 C 
ATOM      5  C   UNL     1     -56.273 -36.125  40.179  0.00  0.00    +0.000 C 
ENDROOT
BRANCH   2   6
ATOM      6  C   UNL     1     -56.438 -40.310  38.187  0.00  0.00    +0.000 C 
ATOM      7  C   UNL     1     -55.936 -40.872  37.251  0.00  0.00    +0.000 C 
BRANCH   7   8
ATOM      8  C   UNL     1     -55.223 -41.488  36.044  0.00  0.00    +0.000 C 
BRANCH   8   9
ATOM      9  C   UNL     1     -54.518 -41.868  34.876  0.00  0.00    +0.000 C 
ATOM     10  C   UNL     1     -55.250 -41.979  33.574  0.00  0.00    +0.000 C 
ATOM     11  C   UNL     1     -53.156 -42.252  34.933  0.00  0.00    +0.000 C 
ATOM     12  C   UNL     1     -51.925 -42.583  35.180  0.00  0.00    +0.000 C 
BRANCH  12  13
ATOM     13  C   UNL     1     -51.555 -42.592  36.552  0.00  0.00    +0.000 C 
ATOM     14  C   UNL     1     -51.310 -42.480  37.723  0.00  0.00    +0.000 C 
BRANCH  14  15
ATOM     15  C   UNL     1     -51.099 -42.234  39.104  0.00  0.00    +0.000 A 
ATOM     16  O   UNL     1     -49.710 -42.146  39.544  0.00  0.00    +0.000 OA
ATOM     17  C   UNL     1     -49.368 -41.875  40.866  0.00  0.00    +0.000 A 
ATOM     18  O   UNL     1     -48.224 -41.755  41.278  0.00  0.00    +0.000 OA
ATOM     19  C   UNL     1     -50.528 -41.727  41.695  0.00  0.00    +0.000 A 
ATOM     20  C   UNL     1     -51.679 -41.796  41.385  0.00  0.00    +0.000 A 
ATOM     21  C   UNL     1     -52.173 -42.050  40.086  0.00  0.00    +0.000 A 
ATOM     22  C   UNL     1     -53.642 -42.066  39.808  0.00  0.00    +0.000 C 
ENDBRANCH  14  15
ENDBRANCH  12  13
BRANCH  12  23
ATOM     23  C   UNL     1     -51.069 -42.923  34.104  0.00  0.00    +0.000 C 
ATOM     24  C   UNL     1     -50.137 -43.287  32.942  0.00  0.00    +0.000 C 
ENDBRANCH  12  23
ENDBRANCH   8   9
ENDBRANCH   7   8
ENDBRANCH   2   6
BRANCH   4  25
ATOM     25  C   UNL     1     -57.207 -36.290  37.729  0.00  0.00    +0.000 C 
ATOM     26  O   UNL     1     -58.308 -35.888  37.338  0.00  0.00    +0.000 OA
BRANCH  25  27
ATOM     27  C   UNL     1     -56.018 -36.251  36.826  0.00  0.00    +0.000 C 
ATOM     28  C   UNL     1     -55.758 -37.415  35.873  0.00  0.00    +0.000 C 
BRANCH  27  29
ATOM     29  C   UNL     1     -54.981 -35.256  37.079  0.00  0.00    +0.000 C 
BRANCH  29  30
ATOM     30  C   UNL     1     -53.649 -35.454  37.622  0.00  0.00    +0.000 C 
ATOM     31  C   UNL     1     -52.796 -34.264  38.007  0.00  0.00    +0.000 C 
ATOM     32  C   UNL     1     -53.132 -36.716  37.992  0.00  0.00    +0.000 C 
ATOM     33  C   UNL     1     -52.555 -37.948  38.367  0.00  0.00    +0.000 C 
ATOM     34  C   UNL     1     -52.764 -39.140  37.484  0.00  0.00    +0.000 C 
ATOM     35  C   UNL     1     -51.962 -38.069  39.504  0.00  0.00    +0.000 C 
ATOM     36  C   UNL     1     -51.325 -38.186  40.770  0.00  0.00    +0.000 C 
ATOM     37  O   UNL     1     -51.905 -37.987  41.822  0.00  0.00    +0.000 OA
BRANCH  36  38
ATOM     38  O   UNL     1     -50.026 -38.514  40.703  0.00  0.00    +0.000 OA
ATOM     39  H   UNL     1     -49.603 -37.988  41.413  0.00  0.00    +0.000 HD
ENDBRANCH  36  38
ENDBRANCH  29  30
BRANCH  29  40
ATOM     40  O   UNL     1     -55.299 -33.945  36.716  0.00  0.00    +0.000 OA
ATOM     41  H   UNL     1     -55.204 -33.798  35.752  0.00  0.00    +0.000 HD
ENDBRANCH  29  40
ENDBRANCH  27  29
ENDBRANCH  25  27
ENDBRANCH   4  25
TORSDOF 12
ENDMDL
MODEL 2
REMARK VINA RESULT:      -5.2     38.618     42.624
REMARK  Name = Leptomycin.pdbqt.pdb
REMARK  12 active torsions:
REMARK  status: ('A' for Active; 'I' for Inactive)
REMARK    1  A    between atoms: C_2  and  C_4
REMARK    2  A    between atoms: C_5  and  C_6
REMARK    3  A    between atoms: C_6  and  C_7
REMARK    4  A    between atoms: C_10  and  C_11
REMARK    5  A    between atoms: C_10  and  C_21
REMARK    6  A    between atoms: C_12  and  C_13
REMARK    7  A    between atoms: C_23  and  C_25
REMARK    8  A    between atoms: C_25  and  C_27
REMARK    9  A    between atoms: C_27  and  C_29
REMARK   10  A    between atoms: C_29  and  O_30
REMARK   11  A    between atoms: C_29  and  C_32
REMARK   12  A    between atoms: C_38  and  O_40
REMARK                            x       y       z     vdW  Elec       q    Type
REMARK                         _______ _______ _______ _____ _____    ______ ____
ROOT
ATOM      1  C   UNL     1     -31.169 -66.229  61.903  0.00  0.00    +0.000 C 
ATOM      2  C   UNL     1     -30.266 -65.693  62.657  0.00  0.00    +0.000 C 
ATOM      3  C   UNL     1     -29.295 -64.726  62.045  0.00  0.00    +0.000 C 
ATOM      4  C   UNL     1     -32.209 -66.808  61.133  0.00  0.00    +0.000 C 
ATOM      5  C   UNL     1     -31.802 -68.010  60.296  0.00  0.00    +0.000 C 
ENDROOT
BRANCH   2   6
ATOM      6  C   UNL     1     -30.494 -65.630  64.054  0.00  0.00    +0.000 C 
ATOM      7  C   UNL     1     -30.752 -65.574  65.227  0.00  0.00    +0.000 C 
BRANCH   7   8
ATOM      8  C   UNL     1     -31.203 -65.498  66.688  0.00  0.00    +0.000 C 
BRANCH   8   9
ATOM      9  C   UNL     1     -31.456 -65.537  68.081  0.00  0.00    +0.000 C 
ATOM     10  C   UNL     1     -31.486 -66.856  68.790  0.00  0.00    +0.000 C 
ATOM     11  C   UNL     1     -31.790 -64.363  68.800  0.00  0.00    +0.000 C 
ATOM     12  C   UNL     1     -32.093 -63.197  69.283  0.00  0.00    +0.000 C 
BRANCH  12  13
ATOM     13  C   UNL     1     -32.202 -62.147  68.332  0.00  0.00    +0.000 C 
ATOM     14  C   UNL     1     -32.408 -61.221  67.595  0.00  0.00    +0.000 C 
BRANCH  14  15
ATOM     15  C   UNL     1     -32.757 -60.094  66.808  0.00  0.00    +0.000 A 
ATOM     16  O   UNL     1     -32.876 -60.317  65.370  0.00  0.00    +0.000 OA
ATOM     17  C   UNL     1     -33.245 -59.302  64.492  0.00  0.00    +0.000 A 
ATOM     18  O   UNL     1     -33.394 -59.444  63.288  0.00  0.00    +0.000 OA
ATOM     19  C   UNL     1     -33.457 -58.059  65.174  0.00  0.00    +0.000 A 
ATOM     20  C   UNL     1     -33.366 -57.826  66.341  0.00  0.00    +0.000 A 
ATOM     21  C   UNL     1     -33.015 -58.754  67.347  0.00  0.00    +0.000 A 
ATOM     22  C   UNL     1     -32.980 -58.356  68.788  0.00  0.00    +0.000 C 
ENDBRANCH  14  15
ENDBRANCH  12  13
BRANCH  12  23
ATOM     23  C   UNL     1     -32.308 -63.059  70.677  0.00  0.00    +0.000 C 
ATOM     24  C   UNL     1     -32.535 -62.915  72.186  0.00  0.00    +0.000 C 
ENDBRANCH  12  23
ENDBRANCH   8   9
ENDBRANCH   7   8
ENDBRANCH   2   6
BRANCH   4  25
ATOM     25  C   UNL     1     -33.627 -66.615  61.569  0.00  0.00    +0.000 C 
ATOM     26  O   UNL     1     -34.558 -66.508  60.763  0.00  0.00    +0.000 OA
BRANCH  25  27
ATOM     27  C   UNL     1     -33.876 -66.497  63.038  0.00  0.00    +0.000 C 
ATOM     28  C   UNL     1     -33.659 -67.710  63.940  0.00  0.00    +0.000 C 
BRANCH  27  29
ATOM     29  C   UNL     1     -34.595 -65.326  63.531  0.00  0.00    +0.000 C 
BRANCH  29  30
ATOM     30  C   UNL     1     -34.241 -64.442  64.627  0.00  0.00    +0.000 C 
ATOM     31  C   UNL     1     -33.510 -63.144  64.357  0.00  0.00    +0.000 C 
ATOM     32  C   UNL     1     -34.690 -64.620  65.956  0.00  0.00    +0.000 C 
ATOM     33  C   UNL     1     -35.092 -64.751  67.302  0.00  0.00    +0.000 C 
ATOM     34  C   UNL     1     -35.092 -66.113  67.925  0.00  0.00    +0.000 C 
ATOM     35  C   UNL     1     -35.563 -63.737  67.942  0.00  0.00    +0.000 C 
ATOM     36  C   UNL     1     -36.095 -62.608  68.625  0.00  0.00    +0.000 C 
ATOM     37  O   UNL     1     -37.088 -62.015  68.247  0.00  0.00    +0.000 OA
BRANCH  36  38
ATOM     38  O   UNL     1     -35.393 -62.244  69.709  0.00  0.00    +0.000 OA
ATOM     39  H   UNL     1     -35.410 -61.264  69.694  0.00  0.00    +0.000 HD
ENDBRANCH  36  38
ENDBRANCH  29  30
BRANCH  29  40
ATOM     40  O   UNL     1     -35.757 -64.991  62.833  0.00  0.00    +0.000 OA
ATOM     41  H   UNL     1     -36.499 -65.595  63.044  0.00  0.00    +0.000 HD
ENDBRANCH  29  40
ENDBRANCH  27  29
ENDBRANCH  25  27
ENDBRANCH   4  25
TORSDOF 12
ENDMDL
MODEL 3
REMARK VINA RESULT:      -5.2     33.311     36.212
REMARK  Name = Leptomycin.pdbqt.pdb
REMARK  12 active torsions:
REMARK  status: ('A' for Active; 'I' for Inactive)
REMARK    1  A    between atoms: C_2  and  C_4
REMARK    2  A    between atoms: C_5  and  C_6
REMARK    3  A    between atoms: C_6  and  C_7
REMARK    4  A    between atoms: C_10  and  C_11
REMARK    5  A    between atoms: C_10  and  C_21
REMARK    6  A    between atoms: C_12  and  C_13
REMARK    7  A    between atoms: C_23  and  C_25
REMARK    8  A    between atoms: C_25  and  C_27
REMARK    9  A    between atoms: C_27  and  C_29
REMARK   10  A    between atoms: C_29  and  O_30
REMARK   11  A    between atoms: C_29  and  C_32
REMARK   12  A    between atoms: C_38  and  O_40
REMARK                            x       y       z     vdW  Elec       q    Type
REMARK                         _______ _______ _______ _____ _____    ______ ____
ROOT
ATOM      1  C   UNL     1     -63.172 -73.471  44.926  0.00  0.00    +0.000 C 
ATOM      2  C   UNL     1     -64.215 -74.046  45.432  0.00  0.00    +0.000 C 
ATOM      3  C   UNL     1     -64.985 -75.016  44.584  0.00  0.00    +0.000 C 
ATOM      4  C   UNL     1     -61.993 -72.851  44.441  0.00  0.00    +0.000 C 
ATOM      5  C   UNL     1     -62.220 -71.635  43.556  0.00  0.00    +0.000 C 
ENDROOT
BRANCH   2   6
ATOM      6  C   UNL     1     -64.324 -74.143  46.841  0.00  0.00    +0.000 C 
ATOM      7  C   UNL     1     -64.353 -74.215  48.040  0.00  0.00    +0.000 C 
BRANCH   7   8
ATOM      8  C   UNL     1     -64.264 -74.291  49.567  0.00  0.00    +0.000 C 
BRANCH   8   9
ATOM      9  C   UNL     1     -64.378 -74.312  50.979  0.00  0.00    +0.000 C 
ATOM     10  C   UNL     1     -65.621 -73.787  51.628  0.00  0.00    +0.000 C 
ATOM     11  C   UNL     1     -63.295 -74.719  51.796  0.00  0.00    +0.000 C 
ATOM     12  C   UNL     1     -62.200 -75.105  52.377  0.00  0.00    +0.000 C 
BRANCH  12  13
ATOM     13  C   UNL     1     -61.095 -75.337  51.514  0.00  0.00    +0.000 C 
ATOM     14  C   UNL     1     -60.133 -75.399  50.797  0.00  0.00    +0.000 C 
BRANCH  14  15
ATOM     15  C   UNL     1     -58.976 -75.339  49.980  0.00  0.00    +0.000 A 
ATOM     16  O   UNL     1     -59.178 -75.543  48.549  0.00  0.00    +0.000 OA
ATOM     17  C   UNL     1     -58.130 -75.475  47.635  0.00  0.00    +0.000 A 
ATOM     18  O   UNL     1     -58.251 -75.602  46.427  0.00  0.00    +0.000 OA
ATOM     19  C   UNL     1     -56.878 -75.213  48.283  0.00  0.00    +0.000 A 
ATOM     20  C   UNL     1     -56.660 -75.046  49.444  0.00  0.00    +0.000 A 
ATOM     21  C   UNL     1     -57.622 -75.073  50.479  0.00  0.00    +0.000 A 
ATOM     22  C   UNL     1     -57.237 -74.801  51.899  0.00  0.00    +0.000 C 
ENDBRANCH  14  15
ENDBRANCH  12  13
BRANCH  12  23
ATOM     23  C   UNL     1     -62.175 -75.243  53.787  0.00  0.00    +0.000 C 
ATOM     24  C   UNL     1     -62.151 -75.385  55.313  0.00  0.00    +0.000 C 
ENDBRANCH  12  23
ENDBRANCH   8   9
ENDBRANCH   7   8
ENDBRANCH   2   6
BRANCH   4  25
ATOM     25  C   UNL     1     -60.716 -73.027  45.199  0.00  0.00    +0.000 C 
ATOM     26  O   UNL     1     -60.679 -73.051  46.434  0.00  0.00    +0.000 OA
BRANCH  25  27
ATOM     27  C   UNL     1     -59.457 -73.115  44.398  0.00  0.00    +0.000 C 
ATOM     28  C   UNL     1     -59.268 -74.269  43.416  0.00  0.00    +0.000 C 
BRANCH  27  29
ATOM     29  C   UNL     1     -58.327 -72.275  44.781  0.00  0.00    +0.000 C 
BRANCH  29  30
ATOM     30  C   UNL     1     -57.699 -71.204  44.029  0.00  0.00    +0.000 C 
ATOM     31  C   UNL     1     -56.568 -70.402  44.638  0.00  0.00    +0.000 C 
ATOM     32  C   UNL     1     -57.952 -70.952  42.661  0.00  0.00    +0.000 C 
ATOM     33  C   UNL     1     -58.173 -70.641  41.303  0.00  0.00    +0.000 C 
ATOM     34  C   UNL     1     -59.574 -70.678  40.773  0.00  0.00    +0.000 C 
ATOM     35  C   UNL     1     -57.177 -70.445  40.509  0.00  0.00    +0.000 C 
ATOM     36  C   UNL     1     -56.063 -70.249  39.648  0.00  0.00    +0.000 C 
ATOM     37  O   UNL     1     -55.221 -71.105  39.452  0.00  0.00    +0.000 OA
BRANCH  36  38
ATOM     38  O   UNL     1     -56.012 -69.031  39.087  0.00  0.00    +0.000 OA
ATOM     39  H   UNL     1     -55.793 -69.203  38.148  0.00  0.00    +0.000 HD
ENDBRANCH  36  38
ENDBRANCH  29  30
BRANCH  29  40
ATOM     40  O   UNL     1     -57.804 -72.509  46.055  0.00  0.00    +0.000 OA
ATOM     41  H   UNL     1     -58.509 -72.659  46.719  0.00  0.00    +0.000 HD
ENDBRANCH  29  40
ENDBRANCH  27  29
ENDBRANCH  25  27
ENDBRANCH   4  25
TORSDOF 12
ENDMDL
MODEL 4
REMARK VINA RESULT:      -5.1     17.979     21.963
REMARK  Name = Leptomycin.pdbqt.pdb
REMARK  12 active torsions:
REMARK  status: ('A' for Active; 'I' for Inactive)
REMARK    1  A    between atoms: C_2  and  C_4
REMARK    2  A    between atoms: C_5  and  C_6
REMARK    3  A    between atoms: C_6  and  C_7
REMARK    4  A    between atoms: C_10  and  C_11
REMARK    5  A    between atoms: C_10  and  C_21
REMARK    6  A    between atoms: C_12  and  C_13
REMARK    7  A    between atoms: C_23  and  C_25
REMARK    8  A    between atoms: C_25  and  C_27
REMARK    9  A    between atoms: C_27  and  C_29
REMARK   10  A    between atoms: C_29  and  O_30
REMARK   11  A    between atoms: C_29  and  C_32
REMARK   12  A    between atoms: C_38  and  O_40
REMARK                            x       y       z     vdW  Elec       q    Type
REMARK                         _______ _______ _______ _____ _____    ______ ____
ROOT
ATOM      1  C   UNL     1     -41.015 -55.769  35.149  0.00  0.00    +0.000 C 
ATOM      2  C   UNL     1     -41.888 -56.720  35.076  0.00  0.00    +0.000 C 
ATOM      3  C   UNL     1     -42.598 -57.144  36.329  0.00  0.00    +0.000 C 
ATOM      4  C   UNL     1     -40.085 -54.698  35.161  0.00  0.00    +0.000 C 
ATOM      5  C   UNL     1     -38.685 -55.063  35.627  0.00  0.00    +0.000 C 
ENDROOT
BRANCH   2   6
ATOM      6  C   UNL     1     -42.499 -56.991  33.827  0.00  0.00    +0.000 C 
ATOM      7  C   UNL     1     -42.993 -57.281  32.771  0.00  0.00    +0.000 C 
BRANCH   7   8
ATOM      8  C   UNL     1     -43.565 -57.764  31.435  0.00  0.00    +0.000 C 
BRANCH   8   9
ATOM      9  C   UNL     1     -44.262 -58.110  30.251  0.00  0.00    +0.000 C 
ATOM     10  C   UNL     1     -44.211 -57.193  29.069  0.00  0.00    +0.000 C 
ATOM     11  C   UNL     1     -45.098 -59.252  30.200  0.00  0.00    +0.000 C 
ATOM     12  C   UNL     1     -45.823 -60.319  30.344  0.00  0.00    +0.000 C 
BRANCH  12  13
ATOM     13  C   UNL     1     -45.853 -60.870  31.653  0.00  0.00    +0.000 C 
ATOM     14  C   UNL     1     -45.872 -61.206  32.806  0.00  0.00    +0.000 C 
BRANCH  14  15
ATOM     15  C   UNL     1     -45.899 -61.468  34.200  0.00  0.00    +0.000 A 
ATOM     16  O   UNL     1     -46.051 -62.864  34.596  0.00  0.00    +0.000 OA
ATOM     17  C   UNL     1     -46.058 -63.259  35.932  0.00  0.00    +0.000 A 
ATOM     18  O   UNL     1     -46.146 -64.415  36.315  0.00  0.00    +0.000 OA
ATOM     19  C   UNL     1     -45.925 -62.139  36.816  0.00  0.00    +0.000 A 
ATOM     20  C   UNL     1     -45.805 -60.983  36.543  0.00  0.00    +0.000 A 
ATOM     21  C   UNL     1     -45.768 -60.440  35.239  0.00  0.00    +0.000 A 
ATOM     22  C   UNL     1     -45.565 -58.975  35.018  0.00  0.00    +0.000 C 
ENDBRANCH  14  15
ENDBRANCH  12  13
BRANCH  12  23
ATOM     23  C   UNL     1     -46.529 -60.833  29.228  0.00  0.00    +0.000 C 
ATOM     24  C   UNL     1     -47.293 -61.396  28.023  0.00  0.00    +0.000 C 
ENDBRANCH  12  23
ENDBRANCH   8   9
ENDBRANCH   7   8
ENDBRANCH   2   6
BRANCH   4  25
ATOM     25  C   UNL     1     -40.319 -53.524  34.263  0.00  0.00    +0.000 C 
ATOM     26  O   UNL     1     -39.415 -53.015  33.593  0.00  0.00    +0.000 OA
BRANCH  25  27
ATOM     27  C   UNL     1     -41.696 -52.943  34.251  0.00  0.00    +0.000 C 
ATOM     28  C   UNL     1     -42.527 -52.946  35.531  0.00  0.00    +0.000 C 
BRANCH  27  29
ATOM     29  C   UNL     1     -42.320 -52.657  32.963  0.00  0.00    +0.000 C 
BRANCH  29  30
ATOM     30  C   UNL     1     -42.676 -53.584  31.904  0.00  0.00    +0.000 C 
ATOM     31  C   UNL     1     -44.075 -53.582  31.324  0.00  0.00    +0.000 C 
ATOM     32  C   UNL     1     -41.741 -54.402  31.229  0.00  0.00    +0.000 C 
ATOM     33  C   UNL     1     -40.859 -55.253  30.529  0.00  0.00    +0.000 C 
ATOM     34  C   UNL     1     -39.794 -55.974  31.295  0.00  0.00    +0.000 C 
ATOM     35  C   UNL     1     -40.898 -55.313  29.243  0.00  0.00    +0.000 C 
ATOM     36  C   UNL     1     -40.946 -55.352  27.822  0.00  0.00    +0.000 C 
ATOM     37  O   UNL     1     -40.762 -54.370  27.127  0.00  0.00    +0.000 OA
BRANCH  36  38
ATOM     38  O   UNL     1     -41.234 -56.561  27.317  0.00  0.00    +0.000 OA
ATOM     39  H   UNL     1     -40.360 -56.969  27.144  0.00  0.00    +0.000 HD
ENDBRANCH  36  38
ENDBRANCH  29  30
BRANCH  29  40
ATOM     40  O   UNL     1     -42.654 -51.320  32.735  0.00  0.00    +0.000 OA
ATOM     41  H   UNL     1     -43.256 -50.970  33.424  0.00  0.00    +0.000 HD
ENDBRANCH  29  40
ENDBRANCH  27  29
ENDBRANCH  25  27
ENDBRANCH   4  25
TORSDOF 12
ENDMDL
MODEL 5
REMARK VINA RESULT:      -4.9     35.039     37.742
REMARK  Name = Leptomycin.pdbqt.pdb
REMARK  12 active torsions:
REMARK  status: ('A' for Active; 'I' for Inactive)
REMARK    1  A    between atoms: C_2  and  C_4
REMARK    2  A    between atoms: C_5  and  C_6
REMARK    3  A    between atoms: C_6  and  C_7
REMARK    4  A    between atoms: C_10  and  C_11
REMARK    5  A    between atoms: C_10  and  C_21
REMARK    6  A    between atoms: C_12  and  C_13
REMARK    7  A    between atoms: C_23  and  C_25
REMARK    8  A    between atoms: C_25  and  C_27
REMARK    9  A    between atoms: C_27  and  C_29
REMARK   10  A    between atoms: C_29  and  O_30
REMARK   11  A    between atoms: C_29  and  C_32
REMARK   12  A    between atoms: C_38  and  O_40
REMARK                            x       y       z     vdW  Elec       q    Type
REMARK                         _______ _______ _______ _____ _____    ______ ____
ROOT
ATOM      1  C   UNL     1     -61.260 -73.567  42.904  0.00  0.00    +0.000 C 
ATOM      2  C   UNL     1     -60.698 -74.708  42.667  0.00  0.00    +0.000 C 
ATOM      3  C   UNL     1     -59.678 -74.794  41.569  0.00  0.00    +0.000 C 
ATOM      4  C   UNL     1     -61.870 -72.332  43.240  0.00  0.00    +0.000 C 
ATOM      5  C   UNL     1     -63.038 -71.927  42.355  0.00  0.00    +0.000 C 
ENDROOT
BRANCH   2   6
ATOM      6  C   UNL     1     -60.668 -75.681  43.697  0.00  0.00    +0.000 C 
ATOM      7  C   UNL     1     -60.603 -76.467  44.603  0.00  0.00    +0.000 C 
BRANCH   7   8
ATOM      8  C   UNL     1     -60.440 -77.389  45.814  0.00  0.00    +0.000 C 
BRANCH   8   9
ATOM      9  C   UNL     1     -60.091 -78.231  46.899  0.00  0.00    +0.000 C 
ATOM     10  C   UNL     1     -61.016 -78.347  48.071  0.00  0.00    +0.000 C 
ATOM     11  C   UNL     1     -58.833 -78.880  46.949  0.00  0.00    +0.000 C 
ATOM     12  C   UNL     1     -57.639 -79.376  46.829  0.00  0.00    +0.000 C 
BRANCH  12  13
ATOM     13  C   UNL     1     -56.893 -78.919  45.710  0.00  0.00    +0.000 C 
ATOM     14  C   UNL     1     -56.223 -78.427  44.843  0.00  0.00    +0.000 C 
BRANCH  14  15
ATOM     15  C   UNL     1     -55.394 -77.751  43.912  0.00  0.00    +0.000 A 
ATOM     16  O   UNL     1     -54.169 -78.437  43.514  0.00  0.00    +0.000 OA
ATOM     17  C   UNL     1     -53.286 -77.897  42.583  0.00  0.00    +0.000 A 
ATOM     18  O   UNL     1     -52.268 -78.445  42.190  0.00  0.00    +0.000 OA
ATOM     19  C   UNL     1     -53.727 -76.617  42.114  0.00  0.00    +0.000 A 
ATOM     20  C   UNL     1     -54.713 -76.013  42.411  0.00  0.00    +0.000 A 
ATOM     21  C   UNL     1     -55.701 -76.440  43.327  0.00  0.00    +0.000 A 
ATOM     22  C   UNL     1     -56.923 -75.618  43.586  0.00  0.00    +0.000 C 
ENDBRANCH  14  15
ENDBRANCH  12  13
BRANCH  12  23
ATOM     23  C   UNL     1     -57.169 -80.292  47.803  0.00  0.00    +0.000 C 
ATOM     24  C   UNL     1     -56.662 -81.290  48.851  0.00  0.00    +0.000 C 
ENDBRANCH  12  23
ENDBRANCH   8   9
ENDBRANCH   7   8
ENDBRANCH   2   6
BRANCH   4  25
ATOM     25  C   UNL     1     -61.747 -71.819  44.640  0.00  0.00    +0.000 C 
ATOM     26  O   UNL     1     -61.819 -70.616  44.911  0.00  0.00    +0.000 OA
BRANCH  25  27
ATOM     27  C   UNL     1     -61.471 -72.825  45.710  0.00  0.00    +0.000 C 
ATOM     28  C   UNL     1     -62.627 -73.622  46.311  0.00  0.00    +0.000 C 
BRANCH  27  29
ATOM     29  C   UNL     1     -60.164 -72.814  46.357  0.00  0.00    +0.000 C 
BRANCH  29  30
ATOM     30  C   UNL     1     -59.449 -73.918  46.974  0.00  0.00    +0.000 C 
ATOM     31  C   UNL     1     -58.147 -74.412  46.382  0.00  0.00    +0.000 C 
ATOM     32  C   UNL     1     -59.797 -74.476  48.226  0.00  0.00    +0.000 C 
ATOM     33  C   UNL     1     -60.103 -75.084  49.462  0.00  0.00    +0.000 C 
ATOM     34  C   UNL     1     -61.537 -75.352  49.798  0.00  0.00    +0.000 C 
ATOM     35  C   UNL     1     -59.174 -75.296  50.330  0.00  0.00    +0.000 C 
ATOM     36  C   UNL     1     -58.137 -75.505  51.280  0.00  0.00    +0.000 C 
ATOM     37  O   UNL     1     -57.470 -74.598  51.741  0.00  0.00    +0.000 OA
BRANCH  36  38
ATOM     38  O   UNL     1     -57.945 -76.793  51.606  0.00  0.00    +0.000 OA
ATOM     39  H   UNL     1     -56.972 -76.890  51.658  0.00  0.00    +0.000 HD
ENDBRANCH  36  38
ENDBRANCH  29  30
BRANCH  29  40
ATOM     40  O   UNL     1     -59.494 -71.588  46.349  0.00  0.00    +0.000 OA
ATOM     41  H   UNL     1     -60.112 -70.834  46.254  0.00  0.00    +0.000 HD
ENDBRANCH  29  40
ENDBRANCH  27  29
ENDBRANCH  25  27
ENDBRANCH   4  25
TORSDOF 12
ENDMDL
MODEL 6
REMARK VINA RESULT:      -4.9      2.984      6.825
REMARK  Name = Leptomycin.pdbqt.pdb
REMARK  12 active torsions:
REMARK  status: ('A' for Active; 'I' for Inactive)
REMARK    1  A    between atoms: C_2  and  C_4
REMARK    2  A    between atoms: C_5  and  C_6
REMARK    3  A    between atoms: C_6  and  C_7
REMARK    4  A    between atoms: C_10  and  C_11
REMARK    5  A    between atoms: C_10  and  C_21
REMARK    6  A    between atoms: C_12  and  C_13
REMARK    7  A    between atoms: C_23  and  C_25
REMARK    8  A    between atoms: C_25  and  C_27
REMARK    9  A    between atoms: C_27  and  C_29
REMARK   10  A    between atoms: C_29  and  O_30
REMARK   11  A    between atoms: C_29  and  C_32
REMARK   12  A    between atoms: C_38  and  O_40
REMARK                            x       y       z     vdW  Elec       q    Type
REMARK                         _______ _______ _______ _____ _____    ______ ____
ROOT
ATOM      1  C   UNL     1     -53.972 -38.988  38.524  0.00  0.00    +0.000 C 
ATOM      2  C   UNL     1     -52.895 -38.681  37.876  0.00  0.00    +0.000 C 
ATOM      3  C   UNL     1     -51.707 -38.182  38.647  0.00  0.00    +0.000 C 
ATOM      4  C   UNL     1     -55.160 -39.386  39.187  0.00  0.00    +0.000 C 
ATOM      5  C   UNL     1     -56.098 -38.252  39.568  0.00  0.00    +0.000 C 
ENDROOT
BRANCH   2   6
ATOM      6  C   UNL     1     -52.680 -39.256  36.599  0.00  0.00    +0.000 C 
ATOM      7  C   UNL     1     -52.530 -39.797  35.537  0.00  0.00    +0.000 C 
BRANCH   7   8
ATOM      8  C   UNL     1     -52.397 -40.587  34.231  0.00  0.00    +0.000 C 
BRANCH   8   9
ATOM      9  C   UNL     1     -52.167 -41.160  32.957  0.00  0.00    +0.000 C 
ATOM     10  C   UNL     1     -50.765 -41.454  32.521  0.00  0.00    +0.000 C 
ATOM     11  C   UNL     1     -53.227 -41.360  32.039  0.00  0.00    +0.000 C 
ATOM     12  C   UNL     1     -54.313 -41.453  31.333  0.00  0.00    +0.000 C 
BRANCH  12  13
ATOM     13  C   UNL     1     -55.478 -40.891  31.920  0.00  0.00    +0.000 C 
ATOM     14  C   UNL     1     -56.399 -40.429  32.537  0.00  0.00    +0.000 C 
BRANCH  14  15
ATOM     15  C   UNL     1     -57.407 -39.893  33.379  0.00  0.00    +0.000 A 
ATOM     16  O   UNL     1     -57.796 -40.706  34.526  0.00  0.00    +0.000 OA
ATOM     17  C   UNL     1     -58.750 -40.279  35.447  0.00  0.00    +0.000 A 
ATOM     18  O   UNL     1     -59.084 -40.904  36.442  0.00  0.00    +0.000 OA
ATOM     19  C   UNL     1     -59.283 -38.994  35.102  0.00  0.00    +0.000 A 
ATOM     20  C   UNL     1     -59.004 -38.296  34.175  0.00  0.00    +0.000 A 
ATOM     21  C   UNL     1     -58.052 -38.591  33.174  0.00  0.00    +0.000 A 
ATOM     22  C   UNL     1     -57.750 -37.613  32.083  0.00  0.00    +0.000 C 
ENDBRANCH  14  15
ENDBRANCH  12  13
BRANCH  12  23
ATOM     23  C   UNL     1     -54.258 -42.068  30.058  0.00  0.00    +0.000 C 
ATOM     24  C   UNL     1     -54.207 -42.735  28.678  0.00  0.00    +0.000 C 
ENDBRANCH  12  23
ENDBRANCH   8   9
ENDBRANCH   7   8
ENDBRANCH   2   6
BRANCH   4  25
ATOM     25  C   UNL     1     -55.671 -40.778  38.987  0.00  0.00    +0.000 C 
ATOM     26  O   UNL     1     -56.624 -41.230  39.631  0.00  0.00    +0.000 OA
BRANCH  25  27
ATOM     27  C   UNL     1     -54.940 -41.635  38.006  0.00  0.00    +0.000 C 
ATOM     28  C   UNL     1     -55.516 -41.840  36.607  0.00  0.00    +0.000 C 
BRANCH  27  29
ATOM     29  C   UNL     1     -53.859 -42.487  38.494  0.00  0.00    +0.000 C 
BRANCH  29  30
ATOM     30  C   UNL     1     -52.549 -42.711  37.910  0.00  0.00    +0.000 C 
ATOM     31  C   UNL     1     -52.413 -43.454  36.598  0.00  0.00    +0.000 C 
ATOM     32  C   UNL     1     -51.360 -42.121  38.399  0.00  0.00    +0.000 C 
ATOM     33  C   UNL     1     -50.139 -41.576  38.847  0.00  0.00    +0.000 C 
ATOM     34  C   UNL     1     -49.872 -41.521  40.320  0.00  0.00    +0.000 C 
ATOM     35  C   UNL     1     -49.326 -41.028  38.012  0.00  0.00    +0.000 C 
ATOM     36  C   UNL     1     -48.449 -40.415  37.075  0.00  0.00    +0.000 C 
ATOM     37  O   UNL     1     -48.775 -39.463  36.390  0.00  0.00    +0.000 OA
BRANCH  36  38
ATOM     38  O   UNL     1     -47.240 -40.990  36.998  0.00  0.00    +0.000 OA
ATOM     39  H   UNL     1     -46.906 -40.742  36.111  0.00  0.00    +0.000 HD
ENDBRANCH  36  38
ENDBRANCH  29  30
BRANCH  29  40
ATOM     40  O   UNL     1     -54.105 -43.144  39.702  0.00  0.00    +0.000 OA
ATOM     41  H   UNL     1     -54.431 -42.531  40.393  0.00  0.00    +0.000 HD
ENDBRANCH  29  40
ENDBRANCH  27  29
ENDBRANCH  25  27
ENDBRANCH   4  25
TORSDOF 12
ENDMDL
MODEL 7
REMARK VINA RESULT:      -4.9      4.081      7.733
REMARK  Name = Leptomycin.pdbqt.pdb
REMARK  12 active torsions:
REMARK  status: ('A' for Active; 'I' for Inactive)
REMARK    1  A    between atoms: C_2  and  C_4
REMARK    2  A    between atoms: C_5  and  C_6
REMARK    3  A    between atoms: C_6  and  C_7
REMARK    4  A    between atoms: C_10  and  C_11
REMARK    5  A    between atoms: C_10  and  C_21
REMARK    6  A    between atoms: C_12  and  C_13
REMARK    7  A    between atoms: C_23  and  C_25
REMARK    8  A    between atoms: C_25  and  C_27
REMARK    9  A    between atoms: C_27  and  C_29
REMARK   10  A    between atoms: C_29  and  O_30
REMARK   11  A    between atoms: C_29  and  C_32
REMARK   12  A    between atoms: C_38  and  O_40
REMARK                            x       y       z     vdW  Elec       q    Type
REMARK                         _______ _______ _______ _____ _____    ______ ____
ROOT
ATOM      1  C   UNL     1     -56.154 -41.016  33.346  0.00  0.00    +0.000 C 
ATOM      2  C   UNL     1     -56.957 -41.130  34.353  0.00  0.00    +0.000 C 
ATOM      3  C   UNL     1     -58.389 -41.499  34.095  0.00  0.00    +0.000 C 
ATOM      4  C   UNL     1     -55.218 -40.926  32.284  0.00  0.00    +0.000 C 
ATOM      5  C   UNL     1     -55.239 -39.615  31.514  0.00  0.00    +0.000 C 
ENDROOT
BRANCH   2   6
ATOM      6  C   UNL     1     -56.412 -41.390  35.635  0.00  0.00    +0.000 C 
ATOM      7  C   UNL     1     -55.916 -41.554  36.717  0.00  0.00    +0.000 C 
BRANCH   7   8
ATOM      8  C   UNL     1     -55.221 -41.656  38.078  0.00  0.00    +0.000 C 
BRANCH   8   9
ATOM      9  C   UNL     1     -54.763 -41.777  39.413  0.00  0.00    +0.000 C 
ATOM     10  C   UNL     1     -55.755 -41.808  40.534  0.00  0.00    +0.000 C 
ATOM     11  C   UNL     1     -53.381 -41.759  39.719  0.00  0.00    +0.000 C 
ATOM     12  C   UNL     1     -52.086 -41.708  39.807  0.00  0.00    +0.000 C 
BRANCH  12  13
ATOM     13  C   UNL     1     -51.397 -41.454  38.590  0.00  0.00    +0.000 C 
ATOM     14  C   UNL     1     -50.938 -41.217  37.506  0.00  0.00    +0.000 C 
BRANCH  14  15
ATOM     15  C   UNL     1     -50.525 -40.908  36.185  0.00  0.00    +0.000 A 
ATOM     16  O   UNL     1     -49.216 -41.409  35.779  0.00  0.00    +0.000 OA
ATOM     17  C   UNL     1     -48.708 -41.203  34.499  0.00  0.00    +0.000 A 
ATOM     18  O   UNL     1     -47.636 -41.631  34.098  0.00  0.00    +0.000 OA
ATOM     19  C   UNL     1     -49.611 -40.443  33.686  0.00  0.00    +0.000 A 
ATOM     20  C   UNL     1     -50.685 -40.007  33.972  0.00  0.00    +0.000 A 
ATOM     21  C   UNL     1     -51.329 -40.148  35.222  0.00  0.00    +0.000 A 
ATOM     22  C   UNL     1     -52.701 -39.598  35.450  0.00  0.00    +0.000 C 
ENDBRANCH  14  15
ENDBRANCH  12  13
BRANCH  12  23
ATOM     23  C   UNL     1     -51.471 -41.883  41.071  0.00  0.00    +0.000 C 
ATOM     24  C   UNL     1     -50.810 -42.076  42.441  0.00  0.00    +0.000 C 
ENDBRANCH  12  23
ENDBRANCH   8   9
ENDBRANCH   7   8
ENDBRANCH   2   6
BRANCH   4  25
ATOM     25  C   UNL     1     -53.989 -41.777  32.327  0.00  0.00    +0.000 C 
ATOM     26  O   UNL     1     -53.528 -42.220  33.384  0.00  0.00    +0.000 OA
BRANCH  25  27
ATOM     27  C   UNL     1     -53.292 -42.029  31.029  0.00  0.00    +0.000 C 
ATOM     28  C   UNL     1     -54.094 -42.516  29.825  0.00  0.00    +0.000 C 
BRANCH  27  29
ATOM     29  C   UNL     1     -51.834 -42.089  31.021  0.00  0.00    +0.000 C 
BRANCH  29  30
ATOM     30  C   UNL     1     -50.899 -41.281  30.258  0.00  0.00    +0.000 C 
ATOM     31  C   UNL     1     -51.392 -40.103  29.445  0.00  0.00    +0.000 C 
ATOM     32  C   UNL     1     -49.494 -41.408  30.351  0.00  0.00    +0.000 C 
ATOM     33  C   UNL     1     -48.086 -41.495  30.389  0.00  0.00    +0.000 C 
ATOM     34  C   UNL     1     -47.449 -42.850  30.419  0.00  0.00    +0.000 C 
ATOM     35  C   UNL     1     -47.371 -40.431  30.515  0.00  0.00    +0.000 C 
ATOM     36  C   UNL     1     -46.602 -39.245  30.671  0.00  0.00    +0.000 C 
ATOM     37  O   UNL     1     -46.714 -38.506  31.631  0.00  0.00    +0.000 OA
BRANCH  36  38
ATOM     38  O   UNL     1     -45.758 -39.003  29.656  0.00  0.00    +0.000 OA
ATOM     39  H   UNL     1     -45.662 -39.867  29.205  0.00  0.00    +0.000 HD
ENDBRANCH  36  38
ENDBRANCH  29  30
BRANCH  29  40
ATOM     40  O   UNL     1     -51.261 -43.021  31.889  0.00  0.00    +0.000 OA
ATOM     41  H   UNL     1     -50.641 -43.621  31.426  0.00  0.00    +0.000 HD
ENDBRANCH  29  40
ENDBRANCH  27  29
ENDBRANCH  25  27
ENDBRANCH   4  25
TORSDOF 12
ENDMDL
MODEL 8
REMARK VINA RESULT:      -4.7      2.523      6.289
REMARK  Name = Leptomycin.pdbqt.pdb
REMARK  12 active torsions:
REMARK  status: ('A' for Active; 'I' for Inactive)
REMARK    1  A    between atoms: C_2  and  C_4
REMARK    2  A    between atoms: C_5  and  C_6
REMARK    3  A    between atoms: C_6  and  C_7
REMARK    4  A    between atoms: C_10  and  C_11
REMARK    5  A    between atoms: C_10  and  C_21
REMARK    6  A    between atoms: C_12  and  C_13
REMARK    7  A    between atoms: C_23  and  C_25
REMARK    8  A    between atoms: C_25  and  C_27
REMARK    9  A    between atoms: C_27  and  C_29
REMARK   10  A    between atoms: C_29  and  O_30
REMARK   11  A    between atoms: C_29  and  C_32
REMARK   12  A    between atoms: C_38  and  O_40
REMARK                            x       y       z     vdW  Elec       q    Type
REMARK                         _______ _______ _______ _____ _____    ______ ____
ROOT
ATOM      1  C   UNL     1     -54.611 -38.688  39.448  0.00  0.00    +0.000 C 
ATOM      2  C   UNL     1     -53.676 -37.875  39.076  0.00  0.00    +0.000 C 
ATOM      3  C   UNL     1     -53.151 -36.879  40.068  0.00  0.00    +0.000 C 
ATOM      4  C   UNL     1     -55.600 -39.635  39.816  0.00  0.00    +0.000 C 
ATOM      5  C   UNL     1     -57.030 -39.118  39.797  0.00  0.00    +0.000 C 
ENDROOT
BRANCH   2   6
ATOM      6  C   UNL     1     -52.855 -38.237  37.979  0.00  0.00    +0.000 C 
ATOM      7  C   UNL     1     -52.149 -38.600  37.078  0.00  0.00    +0.000 C 
BRANCH   7   8
ATOM      8  C   UNL     1     -51.231 -39.172  35.993  0.00  0.00    +0.000 C 
BRANCH   8   9
ATOM      9  C   UNL     1     -50.397 -39.519  34.902  0.00  0.00    +0.000 C 
ATOM     10  C   UNL     1     -48.981 -39.033  34.872  0.00  0.00    +0.000 C 
ATOM     11  C   UNL     1     -50.905 -40.224  33.785  0.00  0.00    +0.000 C 
ATOM     12  C   UNL     1     -51.547 -40.855  32.849  0.00  0.00    +0.000 C 
BRANCH  12  13
ATOM     13  C   UNL     1     -52.947 -40.992  33.048  0.00  0.00    +0.000 C 
ATOM     14  C   UNL     1     -54.138 -40.971  33.200  0.00  0.00    +0.000 C 
BRANCH  14  15
ATOM     15  C   UNL     1     -55.539 -40.811  33.352  0.00  0.00    +0.000 A 
ATOM     16  O   UNL     1     -55.983 -39.629  34.083  0.00  0.00    +0.000 OA
ATOM     17  C   UNL     1     -57.332 -39.338  34.273  0.00  0.00    +0.000 A 
ATOM     18  O   UNL     1     -57.756 -38.345  34.844  0.00  0.00    +0.000 OA
ATOM     19  C   UNL     1     -58.177 -40.339  33.691  0.00  0.00    +0.000 A 
ATOM     20  C   UNL     1     -57.864 -41.323  33.092  0.00  0.00    +0.000 A 
ATOM     21  C   UNL     1     -56.542 -41.737  32.814  0.00  0.00    +0.000 A 
ATOM     22  C   UNL     1     -56.272 -42.969  32.010  0.00  0.00    +0.000 C 
ENDBRANCH  14  15
ENDBRANCH  12  13
BRANCH  12  23
ATOM     23  C   UNL     1     -50.835 -41.330  31.720  0.00  0.00    +0.000 C 
ATOM     24  C   UNL     1     -50.057 -41.841  30.501  0.00  0.00    +0.000 C 
ENDBRANCH  12  23
ENDBRANCH   8   9
ENDBRANCH   7   8
ENDBRANCH   2   6
BRANCH   4  25
ATOM     25  C   UNL     1     -55.304 -41.093  39.655  0.00  0.00    +0.000 C 
ATOM     26  O   UNL     1     -55.455 -41.903  40.576  0.00  0.00    +0.000 OA
BRANCH  25  27
ATOM     27  C   UNL     1     -54.754 -41.533  38.337  0.00  0.00    +0.000 C 
ATOM     28  C   UNL     1     -55.564 -41.295  37.065  0.00  0.00    +0.000 C 
BRANCH  27  29
ATOM     29  C   UNL     1     -53.605 -42.433  38.326  0.00  0.00    +0.000 C 
BRANCH  29  30
ATOM     30  C   UNL     1     -52.197 -42.106  38.460  0.00  0.00    +0.000 C 
ATOM     31  C   UNL     1     -51.217 -42.482  37.370  0.00  0.00    +0.000 C 
ATOM     32  C   UNL     1     -51.676 -41.284  39.487  0.00  0.00    +0.000 C 
ATOM     33  C   UNL     1     -51.095 -40.485  40.493  0.00  0.00    +0.000 C 
ATOM     34  C   UNL     1     -51.561 -40.652  41.906  0.00  0.00    +0.000 C 
ATOM     35  C   UNL     1     -50.266 -39.549  40.182  0.00  0.00    +0.000 C 
ATOM     36  C   UNL     1     -49.365 -38.511  39.815  0.00  0.00    +0.000 C 
ATOM     37  O   UNL     1     -49.680 -37.592  39.082  0.00  0.00    +0.000 OA
BRANCH  36  38
ATOM     38  O   UNL     1     -48.134 -38.645  40.332  0.00  0.00    +0.000 OA
ATOM     39  H   UNL     1     -48.005 -39.613  40.409  0.00  0.00    +0.000 HD
ENDBRANCH  36  38
ENDBRANCH  29  30
BRANCH  29  40
ATOM     40  O   UNL     1     -53.903 -43.793  38.208  0.00  0.00    +0.000 OA
ATOM     41  H   UNL     1     -53.801 -44.111  37.288  0.00  0.00    +0.000 HD
ENDBRANCH  29  40
ENDBRANCH  27  29
ENDBRANCH  25  27
ENDBRANCH   4  25
TORSDOF 12
ENDMDL
MODEL 9
REMARK VINA RESULT:      -4.7     29.177     33.200
REMARK  Name = Leptomycin.pdbqt.pdb
REMARK  12 active torsions:
REMARK  status: ('A' for Active; 'I' for Inactive)
REMARK    1  A    between atoms: C_2  and  C_4
REMARK    2  A    between atoms: C_5  and  C_6
REMARK    3  A    between atoms: C_6  and  C_7
REMARK    4  A    between atoms: C_10  and  C_11
REMARK    5  A    between atoms: C_10  and  C_21
REMARK    6  A    between atoms: C_12  and  C_13
REMARK    7  A    between atoms: C_23  and  C_25
REMARK    8  A    between atoms: C_25  and  C_27
REMARK    9  A    between atoms: C_27  and  C_29
REMARK   10  A    between atoms: C_29  and  O_30
REMARK   11  A    between atoms: C_29  and  C_32
REMARK   12  A    between atoms: C_38  and  O_40
REMARK                            x       y       z     vdW  Elec       q    Type
REMARK                         _______ _______ _______ _____ _____    ______ ____
ROOT
ATOM      1  C   UNL     1     -38.229 -38.455  64.678  0.00  0.00    +0.000 C 
ATOM      2  C   UNL     1     -38.607 -38.946  65.813  0.00  0.00    +0.000 C 
ATOM      3  C   UNL     1     -39.902 -38.474  66.408  0.00  0.00    +0.000 C 
ATOM      4  C   UNL     1     -37.792 -37.988  63.413  0.00  0.00    +0.000 C 
ATOM      5  C   UNL     1     -37.094 -36.637  63.429  0.00  0.00    +0.000 C 
ENDROOT
BRANCH   2   6
ATOM      6  C   UNL     1     -38.098 -40.206  66.215  0.00  0.00    +0.000 C 
ATOM      7  C   UNL     1     -37.634 -41.278  66.499  0.00  0.00    +0.000 C 
BRANCH   7   8
ATOM      8  C   UNL     1     -36.988 -42.644  66.747  0.00  0.00    +0.000 C 
BRANCH   8   9
ATOM      9  C   UNL     1     -36.330 -43.897  66.785  0.00  0.00    +0.000 C 
ATOM     10  C   UNL     1     -35.248 -44.194  65.793  0.00  0.00    +0.000 C 
ATOM     11  C   UNL     1     -36.748 -44.919  67.672  0.00  0.00    +0.000 C 
ATOM     12  C   UNL     1     -37.277 -45.732  68.535  0.00  0.00    +0.000 C 
BRANCH  12  13
ATOM     13  C   UNL     1     -38.443 -45.257  69.193  0.00  0.00    +0.000 C 
ATOM     14  C   UNL     1     -39.478 -44.827  69.624  0.00  0.00    +0.000 C 
BRANCH  14  15
ATOM     15  C   UNL     1     -40.742 -44.307  70.003  0.00  0.00    +0.000 A 
ATOM     16  O   UNL     1     -41.669 -45.242  70.631  0.00  0.00    +0.000 OA
ATOM     17  C   UNL     1     -42.928 -44.850  71.079  0.00  0.00    +0.000 A 
ATOM     18  O   UNL     1     -43.726 -45.583  71.643  0.00  0.00    +0.000 OA
ATOM     19  C   UNL     1     -43.174 -43.462  70.820  0.00  0.00    +0.000 A 
ATOM     20  C   UNL     1     -42.454 -42.660  70.305  0.00  0.00    +0.000 A 
ATOM     21  C   UNL     1     -41.152 -42.910  69.817  0.00  0.00    +0.000 A 
ATOM     22  C   UNL     1     -40.322 -41.812  69.232  0.00  0.00    +0.000 C 
ENDBRANCH  14  15
ENDBRANCH  12  13
BRANCH  12  23
ATOM     23  C   UNL     1     -36.688 -47.005  68.739  0.00  0.00    +0.000 C 
ATOM     24  C   UNL     1     -36.056 -48.385  68.955  0.00  0.00    +0.000 C 
ENDBRANCH  12  23
ENDBRANCH   8   9
ENDBRANCH   7   8
ENDBRANCH   2   6
BRANCH   4  25
ATOM     25  C   UNL     1     -37.529 -38.980  62.324  0.00  0.00    +0.000 C 
ATOM     26  O   UNL     1     -37.669 -38.701  61.129  0.00  0.00    +0.000 OA
BRANCH  25  27
ATOM     27  C   UNL     1     -37.142 -40.361  62.743  0.00  0.00    +0.000 C 
ATOM     28  C   UNL     1     -38.226 -41.413  62.965  0.00  0.00    +0.000 C 
BRANCH  27  29
ATOM     29  C   UNL     1     -35.780 -40.591  63.213  0.00  0.00    +0.000 C 
BRANCH  29  30
ATOM     30  C   UNL     1     -34.808 -39.621  63.685  0.00  0.00    +0.000 C 
ATOM     31  C   UNL     1     -33.980 -38.826  62.698  0.00  0.00    +0.000 C 
ATOM     32  C   UNL     1     -34.690 -39.221  65.036  0.00  0.00    +0.000 C 
ATOM     33  C   UNL     1     -34.514 -38.792  66.368  0.00  0.00    +0.000 C 
ATOM     34  C   UNL     1     -34.567 -39.810  67.466  0.00  0.00    +0.000 C 
ATOM     35  C   UNL     1     -34.428 -37.536  66.642  0.00  0.00    +0.000 C 
ATOM     36  C   UNL     1     -34.352 -36.144  66.923  0.00  0.00    +0.000 C 
ATOM     37  O   UNL     1     -35.246 -35.365  66.651  0.00  0.00    +0.000 OA
BRANCH  36  38
ATOM     38  O   UNL     1     -33.200 -35.764  67.495  0.00  0.00    +0.000 OA
ATOM     39  H   UNL     1     -33.412 -35.689  68.449  0.00  0.00    +0.000 HD
ENDBRANCH  36  38
ENDBRANCH  29  30
BRANCH  29  40
ATOM     40  O   UNL     1     -35.369 -41.926  63.248  0.00  0.00    +0.000 OA
ATOM     41  H   UNL     1     -35.771 -42.452  62.527  0.00  0.00    +0.000 HD
ENDBRANCH  29  40
ENDBRANCH  27  29
ENDBRANCH  25  27
ENDBRANCH   4  25
TORSDOF 12
ENDMDL
