MODEL 1
REMARK VINA RESULT:      -7.9      0.000      0.000
REMARK  Name = Lobelin.pdbqt.pdb
REMARK  3 active torsions:
REMARK  status: ('A' for Active; 'I' for Inactive)
REMARK    1  A    between atoms: C_9  and  O_10
REMARK    2  A    between atoms: C_9  and  C_12
REMARK    3  A    between atoms: C_19  and  C_21
REMARK                            x       y       z     vdW  Elec       q    Type
REMARK                         _______ _______ _______ _____ _____    ______ ____
ROOT
ATOM      1  N   UNL     1     -45.684 -62.608  40.040  0.00  0.00    +0.000 N 
ATOM      2  C   UNL     1     -45.790 -63.604  41.101  0.00  0.00    +0.000 C 
ATOM      3  C   UNL     1     -45.708 -63.023  38.640  0.00  0.00    +0.000 C 
ATOM      4  C   UNL     1     -45.955 -64.948  40.646  0.00  0.00    +0.000 C 
ATOM      5  C   UNL     1     -45.879 -64.426  38.435  0.00  0.00    +0.000 C 
ATOM      6  C   UNL     1     -46.035 -65.658  39.306  0.00  0.00    +0.000 C 
ATOM      7  C   UNL     1     -45.429 -61.223  40.371  0.00  0.00    +0.000 C 
ATOM      8  C   UNL     1     -45.746 -63.262  42.479  0.00  0.00    +0.000 C 
ATOM      9  C   UNL     1     -45.727 -62.909  43.854  0.00  0.00    +0.000 C 
ATOM     10  C   UNL     1     -45.582 -62.099  37.572  0.00  0.00    +0.000 C 
ATOM     11  C   UNL     1     -45.488 -61.156  36.488  0.00  0.00    +0.000 C 
ATOM     12  O   UNL     1     -46.338 -61.171  35.610  0.00  0.00    +0.000 OA
ENDROOT
BRANCH   9  13
ATOM     13  C   UNL     1     -46.729 -62.061  44.500  0.00  0.00    +0.000 A 
ATOM     14  C   UNL     1     -47.295 -62.428  45.724  0.00  0.00    +0.000 A 
ATOM     15  C   UNL     1     -48.249 -61.620  46.341  0.00  0.00    +0.000 A 
ATOM     16  C   UNL     1     -48.648 -60.432  45.738  0.00  0.00    +0.000 A 
ATOM     17  C   UNL     1     -48.095 -60.053  44.518  0.00  0.00    +0.000 A 
ATOM     18  C   UNL     1     -47.142 -60.865  43.906  0.00  0.00    +0.000 A 
ENDBRANCH   9  13
BRANCH  11  19
ATOM     19  C   UNL     1     -44.357 -60.213  36.473  0.00  0.00    +0.000 A 
ATOM     20  C   UNL     1     -43.072 -60.618  36.835  0.00  0.00    +0.000 A 
ATOM     21  C   UNL     1     -42.022 -59.704  36.803  0.00  0.00    +0.000 A 
ATOM     22  C   UNL     1     -42.254 -58.389  36.410  0.00  0.00    +0.000 A 
ATOM     23  C   UNL     1     -43.538 -57.985  36.045  0.00  0.00    +0.000 A 
ATOM     24  C   UNL     1     -44.590 -58.897  36.075  0.00  0.00    +0.000 A 
ENDBRANCH  11  19
BRANCH   9  25
ATOM     25  O   UNL     1     -44.713 -63.391  44.650  0.00  0.00    +0.000 OA
ATOM     26  H   UNL     1     -44.449 -64.291  44.396  0.00  0.00    +0.000 HD
ENDBRANCH   9  25
TORSDOF 3
ENDMDL
MODEL 2
REMARK VINA RESULT:      -7.8      0.451      7.998
REMARK  Name = Lobelin.pdbqt.pdb
REMARK  3 active torsions:
REMARK  status: ('A' for Active; 'I' for Inactive)
REMARK    1  A    between atoms: C_9  and  O_10
REMARK    2  A    between atoms: C_9  and  C_12
REMARK    3  A    between atoms: C_19  and  C_21
REMARK                            x       y       z     vdW  Elec       q    Type
REMARK                         _______ _______ _______ _____ _____    ______ ____
ROOT
ATOM      1  N   UNL     1     -45.418 -62.610  40.442  0.00  0.00    +0.000 N 
ATOM      2  C   UNL     1     -45.329 -63.038  39.050  0.00  0.00    +0.000 C 
ATOM      3  C   UNL     1     -45.410 -63.601  41.514  0.00  0.00    +0.000 C 
ATOM      4  C   UNL     1     -45.196 -64.448  38.863  0.00  0.00    +0.000 C 
ATOM      5  C   UNL     1     -45.271 -64.954  41.078  0.00  0.00    +0.000 C 
ATOM      6  C   UNL     1     -45.137 -65.678  39.751  0.00  0.00    +0.000 C 
ATOM      7  C   UNL     1     -45.642 -61.217  40.757  0.00  0.00    +0.000 C 
ATOM      8  C   UNL     1     -45.359 -62.121  37.964  0.00  0.00    +0.000 C 
ATOM      9  C   UNL     1     -45.364 -61.198  36.886  0.00  0.00    +0.000 C 
ATOM     10  C   UNL     1     -45.521 -63.241  42.881  0.00  0.00    +0.000 C 
ATOM     11  C   UNL     1     -45.600 -62.872  44.270  0.00  0.00    +0.000 C 
ATOM     12  O   UNL     1     -44.754 -63.291  45.047  0.00  0.00    +0.000 OA
ENDROOT
BRANCH   9  13
ATOM     13  C   UNL     1     -44.341 -60.173  36.675  0.00  0.00    +0.000 A 
ATOM     14  C   UNL     1     -44.676 -58.929  36.133  0.00  0.00    +0.000 A 
ATOM     15  C   UNL     1     -43.702 -57.952  35.932  0.00  0.00    +0.000 A 
ATOM     16  C   UNL     1     -42.378 -58.211  36.273  0.00  0.00    +0.000 A 
ATOM     17  C   UNL     1     -42.028 -59.445  36.812  0.00  0.00    +0.000 A 
ATOM     18  C   UNL     1     -43.006 -60.418  37.010  0.00  0.00    +0.000 A 
ENDBRANCH   9  13
BRANCH  11  19
ATOM     19  C   UNL     1     -46.710 -62.008  44.706  0.00  0.00    +0.000 A 
ATOM     20  C   UNL     1     -47.462 -62.314  45.841  0.00  0.00    +0.000 A 
ATOM     21  C   UNL     1     -48.501 -61.474  46.232  0.00  0.00    +0.000 A 
ATOM     22  C   UNL     1     -48.788 -60.329  45.492  0.00  0.00    +0.000 A 
ATOM     23  C   UNL     1     -48.034 -60.022  44.360  0.00  0.00    +0.000 A 
ATOM     24  C   UNL     1     -46.994 -60.860  43.967  0.00  0.00    +0.000 A 
ENDBRANCH  11  19
BRANCH   9  25
ATOM     25  O   UNL     1     -46.385 -61.256  35.965  0.00  0.00    +0.000 OA
ATOM     26  H   UNL     1     -46.783 -60.383  35.808  0.00  0.00    +0.000 HD
ENDBRANCH   9  25
TORSDOF 3
ENDMDL
MODEL 3
REMARK VINA RESULT:      -7.5     20.854     23.635
REMARK  Name = Lobelin.pdbqt.pdb
REMARK  3 active torsions:
REMARK  status: ('A' for Active; 'I' for Inactive)
REMARK    1  A    between atoms: C_9  and  O_10
REMARK    2  A    between atoms: C_9  and  C_12
REMARK    3  A    between atoms: C_19  and  C_21
REMARK                            x       y       z     vdW  Elec       q    Type
REMARK                         _______ _______ _______ _____ _____    ______ ____
ROOT
ATOM      1  N   UNL     1     -64.042 -70.615  30.276  0.00  0.00    +0.000 N 
ATOM      2  C   UNL     1     -64.555 -71.537  29.268  0.00  0.00    +0.000 C 
ATOM      3  C   UNL     1     -64.212 -70.912  31.695  0.00  0.00    +0.000 C 
ATOM      4  C   UNL     1     -65.168 -72.716  29.792  0.00  0.00    +0.000 C 
ATOM      5  C   UNL     1     -64.861 -72.154  31.973  0.00  0.00    +0.000 C 
ATOM      6  C   UNL     1     -65.461 -73.291  31.167  0.00  0.00    +0.000 C 
ATOM      7  C   UNL     1     -63.477 -69.346  29.873  0.00  0.00    +0.000 C 
ATOM      8  C   UNL     1     -64.443 -71.288  27.873  0.00  0.00    +0.000 C 
ATOM      9  C   UNL     1     -64.304 -71.043  26.483  0.00  0.00    +0.000 C 
ATOM     10  C   UNL     1     -63.756 -70.038  32.713  0.00  0.00    +0.000 C 
ATOM     11  C   UNL     1     -63.263 -69.165  33.746  0.00  0.00    +0.000 C 
ATOM     12  O   UNL     1     -62.543 -69.625  34.621  0.00  0.00    +0.000 OA
ENDROOT
BRANCH   9  13
ATOM     13  C   UNL     1     -63.020 -70.942  25.788  0.00  0.00    +0.000 A 
ATOM     14  C   UNL     1     -62.672 -71.857  24.790  0.00  0.00    +0.000 A 
ATOM     15  C   UNL     1     -61.449 -71.761  24.128  0.00  0.00    +0.000 A 
ATOM     16  C   UNL     1     -60.558 -70.745  24.459  0.00  0.00    +0.000 A 
ATOM     17  C   UNL     1     -60.888 -69.828  25.452  0.00  0.00    +0.000 A 
ATOM     18  C   UNL     1     -62.112 -69.929  26.111  0.00  0.00    +0.000 A 
ENDBRANCH   9  13
BRANCH  11  19
ATOM     19  C   UNL     1     -63.657 -67.746  33.717  0.00  0.00    +0.000 A 
ATOM     20  C   UNL     1     -63.916 -67.092  32.512  0.00  0.00    +0.000 A 
ATOM     21  C   UNL     1     -64.293 -65.752  32.517  0.00  0.00    +0.000 A 
ATOM     22  C   UNL     1     -64.414 -65.067  33.724  0.00  0.00    +0.000 A 
ATOM     23  C   UNL     1     -64.159 -65.722  34.928  0.00  0.00    +0.000 A 
ATOM     24  C   UNL     1     -63.782 -67.062  34.926  0.00  0.00    +0.000 A 
ENDBRANCH  11  19
BRANCH   9  25
ATOM     25  O   UNL     1     -65.438 -70.895  25.716  0.00  0.00    +0.000 OA
ATOM     26  H   UNL     1     -66.237 -71.174  26.194  0.00  0.00    +0.000 HD
ENDBRANCH   9  25
TORSDOF 3
ENDMDL
MODEL 4
REMARK VINA RESULT:      -7.0     14.254     16.659
REMARK  Name = Lobelin.pdbqt.pdb
REMARK  3 active torsions:
REMARK  status: ('A' for Active; 'I' for Inactive)
REMARK    1  A    between atoms: C_9  and  O_10
REMARK    2  A    between atoms: C_9  and  C_12
REMARK    3  A    between atoms: C_19  and  C_21
REMARK                            x       y       z     vdW  Elec       q    Type
REMARK                         _______ _______ _______ _____ _____    ______ ____
ROOT
ATOM      1  N   UNL     1     -60.866 -65.246  40.405  0.00  0.00    +0.000 N 
ATOM      2  C   UNL     1     -60.933 -63.789  40.402  0.00  0.00    +0.000 C 
ATOM      3  C   UNL     1     -61.879 -66.028  39.702  0.00  0.00    +0.000 C 
ATOM      4  C   UNL     1     -62.011 -63.241  39.642  0.00  0.00    +0.000 C 
ATOM      5  C   UNL     1     -62.862 -65.253  39.015  0.00  0.00    +0.000 C 
ATOM      6  C   UNL     1     -63.166 -63.780  38.817  0.00  0.00    +0.000 C 
ATOM      7  C   UNL     1     -59.871 -65.923  41.208  0.00  0.00    +0.000 C 
ATOM      8  C   UNL     1     -59.991 -62.978  41.091  0.00  0.00    +0.000 C 
ATOM      9  C   UNL     1     -59.032 -62.174  41.760  0.00  0.00    +0.000 C 
ATOM     10  C   UNL     1     -61.875 -67.446  39.696  0.00  0.00    +0.000 C 
ATOM     11  C   UNL     1     -61.850 -68.884  39.663  0.00  0.00    +0.000 C 
ATOM     12  O   UNL     1     -61.899 -69.457  38.583  0.00  0.00    +0.000 OA
ENDROOT
BRANCH   9  13
ATOM     13  C   UNL     1     -57.607 -62.145  41.429  0.00  0.00    +0.000 A 
ATOM     14  C   UNL     1     -56.824 -61.027  41.731  0.00  0.00    +0.000 A 
ATOM     15  C   UNL     1     -55.466 -60.999  41.416  0.00  0.00    +0.000 A 
ATOM     16  C   UNL     1     -54.875 -62.094  40.794  0.00  0.00    +0.000 A 
ATOM     17  C   UNL     1     -55.640 -63.214  40.486  0.00  0.00    +0.000 A 
ATOM     18  C   UNL     1     -56.998 -63.236  40.802  0.00  0.00    +0.000 A 
ENDBRANCH   9  13
BRANCH  11  19
ATOM     19  C   UNL     1     -61.780 -69.617  40.939  0.00  0.00    +0.000 A 
ATOM     20  C   UNL     1     -60.675 -70.406  41.260  0.00  0.00    +0.000 A 
ATOM     21  C   UNL     1     -60.635 -71.081  42.477  0.00  0.00    +0.000 A 
ATOM     22  C   UNL     1     -61.696 -70.966  43.373  0.00  0.00    +0.000 A 
ATOM     23  C   UNL     1     -62.797 -70.174  43.053  0.00  0.00    +0.000 A 
ATOM     24  C   UNL     1     -62.840 -69.498  41.837  0.00  0.00    +0.000 A 
ENDBRANCH  11  19
BRANCH   9  25
ATOM     25  O   UNL     1     -59.448 -61.356  42.785  0.00  0.00    +0.000 OA
ATOM     26  H   UNL     1     -60.290 -60.915  42.579  0.00  0.00    +0.000 HD
ENDBRANCH   9  25
TORSDOF 3
ENDMDL
MODEL 5
REMARK VINA RESULT:      -6.8      2.425      8.145
REMARK  Name = Lobelin.pdbqt.pdb
REMARK  3 active torsions:
REMARK  status: ('A' for Active; 'I' for Inactive)
REMARK    1  A    between atoms: C_9  and  O_10
REMARK    2  A    between atoms: C_9  and  C_12
REMARK    3  A    between atoms: C_19  and  C_21
REMARK                            x       y       z     vdW  Elec       q    Type
REMARK                         _______ _______ _______ _____ _____    ______ ____
ROOT
ATOM      1  N   UNL     1     -43.811 -63.458  39.885  0.00  0.00    +0.000 N 
ATOM      2  C   UNL     1     -43.467 -64.003  38.576  0.00  0.00    +0.000 C 
ATOM      3  C   UNL     1     -44.539 -64.275  40.851  0.00  0.00    +0.000 C 
ATOM      4  C   UNL     1     -43.861 -65.361  38.371  0.00  0.00    +0.000 C 
ATOM      5  C   UNL     1     -44.825 -65.605  40.415  0.00  0.00    +0.000 C 
ATOM      6  C   UNL     1     -44.584 -66.433  39.167  0.00  0.00    +0.000 C 
ATOM      7  C   UNL     1     -43.542 -62.068  40.183  0.00  0.00    +0.000 C 
ATOM      8  C   UNL     1     -42.783 -63.246  37.587  0.00  0.00    +0.000 C 
ATOM      9  C   UNL     1     -42.078 -62.492  36.614  0.00  0.00    +0.000 C 
ATOM     10  C   UNL     1     -44.920 -63.785  42.126  0.00  0.00    +0.000 C 
ATOM     11  C   UNL     1     -45.276 -63.298  43.432  0.00  0.00    +0.000 C 
ATOM     12  O   UNL     1     -44.962 -63.949  44.418  0.00  0.00    +0.000 OA
ENDROOT
BRANCH   9  13
ATOM     13  C   UNL     1     -40.720 -61.978  36.796  0.00  0.00    +0.000 A 
ATOM     14  C   UNL     1     -40.230 -60.948  35.987  0.00  0.00    +0.000 A 
ATOM     15  C   UNL     1     -38.937 -60.458  36.160  0.00  0.00    +0.000 A 
ATOM     16  C   UNL     1     -38.117 -60.994  37.148  0.00  0.00    +0.000 A 
ATOM     17  C   UNL     1     -38.589 -62.021  37.960  0.00  0.00    +0.000 A 
ATOM     18  C   UNL     1     -39.883 -62.508  37.782  0.00  0.00    +0.000 A 
ENDBRANCH   9  13
BRANCH  11  19
ATOM     19  C   UNL     1     -46.021 -62.031  43.532  0.00  0.00    +0.000 A 
ATOM     20  C   UNL     1     -46.543 -61.592  44.749  0.00  0.00    +0.000 A 
ATOM     21  C   UNL     1     -47.237 -60.386  44.812  0.00  0.00    +0.000 A 
ATOM     22  C   UNL     1     -47.408 -59.620  43.661  0.00  0.00    +0.000 A 
ATOM     23  C   UNL     1     -46.884 -60.058  42.446  0.00  0.00    +0.000 A 
ATOM     24  C   UNL     1     -46.189 -61.263  42.380  0.00  0.00    +0.000 A 
ENDBRANCH  11  19
BRANCH   9  25
ATOM     25  O   UNL     1     -42.689 -62.220  35.411  0.00  0.00    +0.000 OA
ATOM     26  H   UNL     1     -43.433 -62.822  35.237  0.00  0.00    +0.000 HD
ENDBRANCH   9  25
TORSDOF 3
ENDMDL
MODEL 6
REMARK VINA RESULT:      -6.8      4.489      8.836
REMARK  Name = Lobelin.pdbqt.pdb
REMARK  3 active torsions:
REMARK  status: ('A' for Active; 'I' for Inactive)
REMARK    1  A    between atoms: C_9  and  O_10
REMARK    2  A    between atoms: C_9  and  C_12
REMARK    3  A    between atoms: C_19  and  C_21
REMARK                            x       y       z     vdW  Elec       q    Type
REMARK                         _______ _______ _______ _____ _____    ______ ____
ROOT
ATOM      1  N   UNL     1     -43.913 -65.874  38.062  0.00  0.00    +0.000 N 
ATOM      2  C   UNL     1     -43.531 -67.127  37.420  0.00  0.00    +0.000 C 
ATOM      3  C   UNL     1     -42.996 -65.215  38.986  0.00  0.00    +0.000 C 
ATOM      4  C   UNL     1     -42.219 -67.589  37.743  0.00  0.00    +0.000 C 
ATOM      5  C   UNL     1     -41.738 -65.872  39.152  0.00  0.00    +0.000 C 
ATOM      6  C   UNL     1     -41.070 -67.126  38.621  0.00  0.00    +0.000 C 
ATOM      7  C   UNL     1     -45.248 -65.347  37.882  0.00  0.00    +0.000 C 
ATOM      8  C   UNL     1     -44.393 -67.827  36.532  0.00  0.00    +0.000 C 
ATOM      9  C   UNL     1     -45.249 -68.506  35.628  0.00  0.00    +0.000 C 
ATOM     10  C   UNL     1     -43.328 -64.010  39.656  0.00  0.00    +0.000 C 
ATOM     11  C   UNL     1     -43.654 -62.769  40.309  0.00  0.00    +0.000 C 
ATOM     12  O   UNL     1     -42.877 -61.829  40.226  0.00  0.00    +0.000 OA
ENDROOT
BRANCH   9  13
ATOM     13  C   UNL     1     -45.707 -67.952  34.353  0.00  0.00    +0.000 A 
ATOM     14  C   UNL     1     -46.527 -68.697  33.502  0.00  0.00    +0.000 A 
ATOM     15  C   UNL     1     -46.965 -68.170  32.288  0.00  0.00    +0.000 A 
ATOM     16  C   UNL     1     -46.585 -66.885  31.912  0.00  0.00    +0.000 A 
ATOM     17  C   UNL     1     -45.767 -66.131  32.748  0.00  0.00    +0.000 A 
ATOM     18  C   UNL     1     -45.333 -66.664  33.960  0.00  0.00    +0.000 A 
ENDBRANCH   9  13
BRANCH  11  19
ATOM     19  C   UNL     1     -44.913 -62.683  41.069  0.00  0.00    +0.000 A 
ATOM     20  C   UNL     1     -46.099 -62.275  40.459  0.00  0.00    +0.000 A 
ATOM     21  C   UNL     1     -47.275 -62.210  41.202  0.00  0.00    +0.000 A 
ATOM     22  C   UNL     1     -47.266 -62.555  42.551  0.00  0.00    +0.000 A 
ATOM     23  C   UNL     1     -46.082 -62.967  43.160  0.00  0.00    +0.000 A 
ATOM     24  C   UNL     1     -44.904 -63.032  42.419  0.00  0.00    +0.000 A 
ENDBRANCH  11  19
BRANCH   9  25
ATOM     25  O   UNL     1     -45.683 -69.773  35.946  0.00  0.00    +0.000 OA
ATOM     26  H   UNL     1     -46.079 -69.808  36.834  0.00  0.00    +0.000 HD
ENDBRANCH   9  25
TORSDOF 3
ENDMDL
MODEL 7
REMARK VINA RESULT:      -6.8      2.981      8.484
REMARK  Name = Lobelin.pdbqt.pdb
REMARK  3 active torsions:
REMARK  status: ('A' for Active; 'I' for Inactive)
REMARK    1  A    between atoms: C_9  and  O_10
REMARK    2  A    between atoms: C_9  and  C_12
REMARK    3  A    between atoms: C_19  and  C_21
REMARK                            x       y       z     vdW  Elec       q    Type
REMARK                         _______ _______ _______ _____ _____    ______ ____
ROOT
ATOM      1  N   UNL     1     -45.201 -60.558  36.686  0.00  0.00    +0.000 N 
ATOM      2  C   UNL     1     -45.431 -59.383  35.852  0.00  0.00    +0.000 C 
ATOM      3  C   UNL     1     -46.100 -61.706  36.599  0.00  0.00    +0.000 C 
ATOM      4  C   UNL     1     -46.543 -59.490  34.962  0.00  0.00    +0.000 C 
ATOM      5  C   UNL     1     -47.145 -61.576  35.634  0.00  0.00    +0.000 C 
ATOM      6  C   UNL     1     -47.606 -60.525  34.642  0.00  0.00    +0.000 C 
ATOM      7  C   UNL     1     -44.159 -60.540  37.689  0.00  0.00    +0.000 C 
ATOM      8  C   UNL     1     -44.606 -58.228  35.913  0.00  0.00    +0.000 C 
ATOM      9  C   UNL     1     -43.762 -57.088  35.961  0.00  0.00    +0.000 C 
ATOM     10  C   UNL     1     -45.936 -62.861  37.405  0.00  0.00    +0.000 C 
ATOM     11  C   UNL     1     -45.749 -64.046  38.200  0.00  0.00    +0.000 C 
ATOM     12  O   UNL     1     -45.703 -65.134  37.645  0.00  0.00    +0.000 OA
ENDROOT
BRANCH   9  13
ATOM     13  C   UNL     1     -42.341 -57.100  35.614  0.00  0.00    +0.000 A 
ATOM     14  C   UNL     1     -41.608 -58.290  35.642  0.00  0.00    +0.000 A 
ATOM     15  C   UNL     1     -40.254 -58.302  35.311  0.00  0.00    +0.000 A 
ATOM     16  C   UNL     1     -39.617 -57.120  34.947  0.00  0.00    +0.000 A 
ATOM     17  C   UNL     1     -40.332 -55.927  34.916  0.00  0.00    +0.000 A 
ATOM     18  C   UNL     1     -41.686 -55.921  35.248  0.00  0.00    +0.000 A 
ENDBRANCH   9  13
BRANCH  11  19
ATOM     19  C   UNL     1     -45.632 -63.902  39.661  0.00  0.00    +0.000 A 
ATOM     20  C   UNL     1     -44.583 -64.494  40.365  0.00  0.00    +0.000 A 
ATOM     21  C   UNL     1     -44.496 -64.334  41.745  0.00  0.00    +0.000 A 
ATOM     22  C   UNL     1     -45.455 -63.583  42.421  0.00  0.00    +0.000 A 
ATOM     23  C   UNL     1     -46.501 -62.989  41.718  0.00  0.00    +0.000 A 
ATOM     24  C   UNL     1     -46.591 -63.147  40.337  0.00  0.00    +0.000 A 
ENDBRANCH  11  19
BRANCH   9  25
ATOM     25  O   UNL     1     -44.297 -55.881  36.351  0.00  0.00    +0.000 OA
ATOM     26  H   UNL     1     -43.619 -55.186  36.408  0.00  0.00    +0.000 HD
ENDBRANCH   9  25
TORSDOF 3
ENDMDL
MODEL 8
REMARK VINA RESULT:      -6.8      5.808      9.582
REMARK  Name = Lobelin.pdbqt.pdb
REMARK  3 active torsions:
REMARK  status: ('A' for Active; 'I' for Inactive)
REMARK    1  A    between atoms: C_9  and  O_10
REMARK    2  A    between atoms: C_9  and  C_12
REMARK    3  A    between atoms: C_19  and  C_21
REMARK                            x       y       z     vdW  Elec       q    Type
REMARK                         _______ _______ _______ _____ _____    ______ ____
ROOT
ATOM      1  N   UNL     1     -46.272 -62.696  32.096  0.00  0.00    +0.000 N 
ATOM      2  C   UNL     1     -46.534 -61.272  32.272  0.00  0.00    +0.000 C 
ATOM      3  C   UNL     1     -46.261 -63.279  30.757  0.00  0.00    +0.000 C 
ATOM      4  C   UNL     1     -46.724 -60.544  31.058  0.00  0.00    +0.000 C 
ATOM      5  C   UNL     1     -46.481 -62.348  29.697  0.00  0.00    +0.000 C 
ATOM      6  C   UNL     1     -46.747 -60.860  29.573  0.00  0.00    +0.000 C 
ATOM      7  C   UNL     1     -46.148 -63.557  33.252  0.00  0.00    +0.000 C 
ATOM      8  C   UNL     1     -46.583 -60.655  33.551  0.00  0.00    +0.000 C 
ATOM      9  C   UNL     1     -46.606 -60.041  34.831  0.00  0.00    +0.000 C 
ATOM     10  C   UNL     1     -46.038 -64.662  30.534  0.00  0.00    +0.000 C 
ATOM     11  C   UNL     1     -45.778 -66.059  30.305  0.00  0.00    +0.000 C 
ATOM     12  O   UNL     1     -44.903 -66.381  29.515  0.00  0.00    +0.000 OA
ENDROOT
BRANCH   9  13
ATOM     13  C   UNL     1     -45.456 -59.978  35.734  0.00  0.00    +0.000 A 
ATOM     14  C   UNL     1     -45.188 -61.022  36.624  0.00  0.00    +0.000 A 
ATOM     15  C   UNL     1     -44.093 -60.963  37.485  0.00  0.00    +0.000 A 
ATOM     16  C   UNL     1     -43.251 -59.855  37.463  0.00  0.00    +0.000 A 
ATOM     17  C   UNL     1     -43.506 -58.807  36.584  0.00  0.00    +0.000 A 
ATOM     18  C   UNL     1     -44.602 -58.871  35.726  0.00  0.00    +0.000 A 
ENDBRANCH   9  13
BRANCH  11  19
ATOM     19  C   UNL     1     -46.591 -67.053  31.028  0.00  0.00    +0.000 A 
ATOM     20  C   UNL     1     -46.183 -67.560  32.262  0.00  0.00    +0.000 A 
ATOM     21  C   UNL     1     -46.976 -68.494  32.924  0.00  0.00    +0.000 A 
ATOM     22  C   UNL     1     -48.175 -68.919  32.355  0.00  0.00    +0.000 A 
ATOM     23  C   UNL     1     -48.583 -68.409  31.124  0.00  0.00    +0.000 A 
ATOM     24  C   UNL     1     -47.792 -67.474  30.459  0.00  0.00    +0.000 A 
ENDBRANCH  11  19
BRANCH   9  25
ATOM     25  O   UNL     1     -47.772 -59.455  35.267  0.00  0.00    +0.000 OA
ATOM     26  H   UNL     1     -48.430 -60.116  35.541  0.00  0.00    +0.000 HD
ENDBRANCH   9  25
TORSDOF 3
ENDMDL
MODEL 9
REMARK VINA RESULT:      -6.8     15.697     18.075
REMARK  Name = Lobelin.pdbqt.pdb
REMARK  3 active torsions:
REMARK  status: ('A' for Active; 'I' for Inactive)
REMARK    1  A    between atoms: C_9  and  O_10
REMARK    2  A    between atoms: C_9  and  C_12
REMARK    3  A    between atoms: C_19  and  C_21
REMARK                            x       y       z     vdW  Elec       q    Type
REMARK                         _______ _______ _______ _____ _____    ______ ____
ROOT
ATOM      1  N   UNL     1     -62.498 -66.775  40.720  0.00  0.00    +0.000 N 
ATOM      2  C   UNL     1     -63.014 -65.475  41.134  0.00  0.00    +0.000 C 
ATOM      3  C   UNL     1     -63.344 -67.691  39.960  0.00  0.00    +0.000 C 
ATOM      4  C   UNL     1     -64.347 -65.194  40.702  0.00  0.00    +0.000 C 
ATOM      5  C   UNL     1     -64.644 -67.186  39.649  0.00  0.00    +0.000 C 
ATOM      6  C   UNL     1     -65.425 -65.913  39.912  0.00  0.00    +0.000 C 
ATOM      7  C   UNL     1     -61.194 -67.211  41.167  0.00  0.00    +0.000 C 
ATOM      8  C   UNL     1     -62.246 -64.554  41.897  0.00  0.00    +0.000 C 
ATOM      9  C   UNL     1     -61.464 -63.630  42.637  0.00  0.00    +0.000 C 
ATOM     10  C   UNL     1     -62.901 -68.976  39.556  0.00  0.00    +0.000 C 
ATOM     11  C   UNL     1     -62.438 -70.266  39.118  0.00  0.00    +0.000 C 
ATOM     12  O   UNL     1     -62.537 -70.565  37.937  0.00  0.00    +0.000 OA
ENDROOT
BRANCH   9  13
ATOM     13  C   UNL     1     -60.225 -63.023  42.149  0.00  0.00    +0.000 A 
ATOM     14  C   UNL     1     -59.848 -61.740  42.556  0.00  0.00    +0.000 A 
ATOM     15  C   UNL     1     -58.667 -61.161  42.092  0.00  0.00    +0.000 A 
ATOM     16  C   UNL     1     -57.849 -61.864  41.213  0.00  0.00    +0.000 A 
ATOM     17  C   UNL     1     -58.211 -63.141  40.797  0.00  0.00    +0.000 A 
ATOM     18  C   UNL     1     -59.393 -63.714  41.264  0.00  0.00    +0.000 A 
ENDBRANCH   9  13
BRANCH  11  19
ATOM     19  C   UNL     1     -61.870 -71.187  40.118  0.00  0.00    +0.000 A 
ATOM     20  C   UNL     1     -61.870 -70.869  41.476  0.00  0.00    +0.000 A 
ATOM     21  C   UNL     1     -61.332 -71.763  42.398  0.00  0.00    +0.000 A 
ATOM     22  C   UNL     1     -60.797 -72.973  41.964  0.00  0.00    +0.000 A 
ATOM     23  C   UNL     1     -60.801 -73.292  40.607  0.00  0.00    +0.000 A 
ATOM     24  C   UNL     1     -61.338 -72.400  39.683  0.00  0.00    +0.000 A 
ENDBRANCH  11  19
BRANCH   9  25
ATOM     25  O   UNL     1     -61.883 -63.261  43.895  0.00  0.00    +0.000 OA
ATOM     26  H   UNL     1     -62.848 -63.335  43.993  0.00  0.00    +0.000 HD
ENDBRANCH   9  25
TORSDOF 3
ENDMDL
