MODEL 1
REMARK VINA RESULT:      -5.9      0.000      0.000
REMARK  Name = LUCANTHONE.pdbqt.pdb
REMARK  5 active torsions:
REMARK  status: ('A' for Active; 'I' for Inactive)
REMARK    1  A    between atoms: C_3  and  N_17
REMARK    2  A    between atoms: N_17  and  C_19
REMARK    3  A    between atoms: C_20  and  N_21
REMARK    4  A    between atoms: N_21  and  C_22
REMARK    5  A    between atoms: N_21  and  C_24
REMARK                            x       y       z     vdW  Elec       q    Type
REMARK                         _______ _______ _______ _____ _____    ______ ____
ROOT
ATOM      1  S   UNL     1     -63.608 -39.986  38.670  0.00  0.00    +0.000 S 
ATOM      2  O   UNL     1     -60.646 -42.265  40.868  0.00  0.00    +0.000 OA
ATOM      3  C   UNL     1     -59.646 -39.863  39.840  0.00  0.00    +0.000 A 
ATOM      4  C   UNL     1     -60.973 -40.315  39.590  0.00  0.00    +0.000 A 
ATOM      5  C   UNL     1     -61.913 -39.474  38.958  0.00  0.00    +0.000 A 
ATOM      6  C   UNL     1     -61.498 -38.177  38.572  0.00  0.00    +0.000 A 
ATOM      7  C   UNL     1     -61.344 -41.690  40.033  0.00  0.00    +0.000 A 
ATOM      8  C   UNL     1     -59.282 -38.582  39.412  0.00  0.00    +0.000 A 
ATOM      9  C   UNL     1     -62.505 -42.402  39.483  0.00  0.00    +0.000 A 
ATOM     10  C   UNL     1     -60.197 -37.742  38.799  0.00  0.00    +0.000 A 
ATOM     11  C   UNL     1     -63.538 -41.737  38.839  0.00  0.00    +0.000 A 
ATOM     12  C   UNL     1     -62.405 -37.178  37.887  0.00  0.00    +0.000 C 
ATOM     13  C   UNL     1     -62.549 -43.792  39.639  0.00  0.00    +0.000 A 
ATOM     14  C   UNL     1     -64.614 -42.478  38.345  0.00  0.00    +0.000 A 
ATOM     15  C   UNL     1     -63.622 -44.523  39.138  0.00  0.00    +0.000 A 
ATOM     16  C   UNL     1     -64.658 -43.864  38.486  0.00  0.00    +0.000 A 
ENDROOT
BRANCH   3  17
ATOM     17  N   UNL     1     -58.647 -40.727  40.358  0.00  0.00    +0.000 N 
ATOM     18  H   UNL     1     -58.821 -40.950  41.350  0.00  0.00    +0.000 HD
BRANCH  17  19
ATOM     19  C   UNL     1     -57.259 -40.529  39.974  0.00  0.00    +0.000 C 
ATOM     20  C   UNL     1     -55.797 -40.322  39.567  0.00  0.00    +0.000 C 
BRANCH  20  21
ATOM     21  N   UNL     1     -54.407 -40.137  39.182  0.00  0.00    +0.000 N 
BRANCH  21  22
ATOM     22  C   UNL     1     -54.173 -40.954  38.005  0.00  0.00    +0.000 C 
ATOM     23  C   UNL     1     -53.923 -41.827  36.772  0.00  0.00    +0.000 C 
ENDBRANCH  21  22
BRANCH  21  24
ATOM     24  C   UNL     1     -53.592 -40.699  40.241  0.00  0.00    +0.000 C 
ATOM     25  C   UNL     1     -52.730 -41.274  41.370  0.00  0.00    +0.000 C 
ENDBRANCH  21  24
ENDBRANCH  20  21
ENDBRANCH  17  19
ENDBRANCH   3  17
TORSDOF 5
ENDMDL
MODEL 2
REMARK VINA RESULT:      -5.8     29.851     33.070
REMARK  Name = LUCANTHONE.pdbqt.pdb
REMARK  5 active torsions:
REMARK  status: ('A' for Active; 'I' for Inactive)
REMARK    1  A    between atoms: C_3  and  N_17
REMARK    2  A    between atoms: N_17  and  C_19
REMARK    3  A    between atoms: C_20  and  N_21
REMARK    4  A    between atoms: N_21  and  C_22
REMARK    5  A    between atoms: N_21  and  C_24
REMARK                            x       y       z     vdW  Elec       q    Type
REMARK                         _______ _______ _______ _____ _____    ______ ____
ROOT
ATOM      1  S   UNL     1     -46.365 -65.006  29.390  0.00  0.00    +0.000 S 
ATOM      2  O   UNL     1     -46.227 -69.106  27.985  0.00  0.00    +0.000 OA
ATOM      3  C   UNL     1     -45.809 -67.231  25.952  0.00  0.00    +0.000 A 
ATOM      4  C   UNL     1     -46.114 -66.859  27.292  0.00  0.00    +0.000 A 
ATOM      5  C   UNL     1     -46.038 -65.511  27.700  0.00  0.00    +0.000 A 
ATOM      6  C   UNL     1     -45.660 -64.541  26.741  0.00  0.00    +0.000 A 
ATOM      7  C   UNL     1     -46.495 -67.935  28.252  0.00  0.00    +0.000 A 
ATOM      8  C   UNL     1     -45.468 -66.228  25.038  0.00  0.00    +0.000 A 
ATOM      9  C   UNL     1     -47.212 -67.649  29.502  0.00  0.00    +0.000 A 
ATOM     10  C   UNL     1     -45.380 -64.902  25.427  0.00  0.00    +0.000 A 
ATOM     11  C   UNL     1     -47.235 -66.381  30.063  0.00  0.00    +0.000 A 
ATOM     12  C   UNL     1     -45.540 -63.064  27.047  0.00  0.00    +0.000 C 
ATOM     13  C   UNL     1     -47.873 -68.711  30.129  0.00  0.00    +0.000 A 
ATOM     14  C   UNL     1     -47.933 -66.183  31.257  0.00  0.00    +0.000 A 
ATOM     15  C   UNL     1     -48.572 -68.503  31.315  0.00  0.00    +0.000 A 
ATOM     16  C   UNL     1     -48.604 -67.233  31.880  0.00  0.00    +0.000 A 
ENDROOT
BRANCH   3  17
ATOM     17  N   UNL     1     -45.998 -68.557  25.482  0.00  0.00    +0.000 N 
ATOM     18  H   UNL     1     -46.079 -69.224  26.265  0.00  0.00    +0.000 HD
BRANCH  17  19
ATOM     19  C   UNL     1     -45.264 -69.015  24.315  0.00  0.00    +0.000 C 
ATOM     20  C   UNL     1     -44.488 -69.498  23.085  0.00  0.00    +0.000 C 
BRANCH  20  21
ATOM     21  N   UNL     1     -43.743 -69.949  21.921  0.00  0.00    +0.000 N 
BRANCH  21  22
ATOM     22  C   UNL     1     -43.625 -68.818  21.019  0.00  0.00    +0.000 C 
ATOM     23  C   UNL     1     -43.488 -67.630  20.063  0.00  0.00    +0.000 C 
ENDBRANCH  21  22
BRANCH  21  24
ATOM     24  C   UNL     1     -44.565 -70.933  21.243  0.00  0.00    +0.000 C 
ATOM     25  C   UNL     1     -45.430 -71.962  20.508  0.00  0.00    +0.000 C 
ENDBRANCH  21  24
ENDBRANCH  20  21
ENDBRANCH  17  19
ENDBRANCH   3  17
TORSDOF 5
ENDMDL
MODEL 3
REMARK VINA RESULT:      -5.7      1.088      1.589
REMARK  Name = LUCANTHONE.pdbqt.pdb
REMARK  5 active torsions:
REMARK  status: ('A' for Active; 'I' for Inactive)
REMARK    1  A    between atoms: C_3  and  N_17
REMARK    2  A    between atoms: N_17  and  C_19
REMARK    3  A    between atoms: C_20  and  N_21
REMARK    4  A    between atoms: N_21  and  C_22
REMARK    5  A    between atoms: N_21  and  C_24
REMARK                            x       y       z     vdW  Elec       q    Type
REMARK                         _______ _______ _______ _____ _____    ______ ____
ROOT
ATOM      1  S   UNL     1     -64.166 -40.416  38.711  0.00  0.00    +0.000 S 
ATOM      2  O   UNL     1     -60.959 -42.492  40.760  0.00  0.00    +0.000 OA
ATOM      3  C   UNL     1     -60.193 -39.992  39.767  0.00  0.00    +0.000 A 
ATOM      4  C   UNL     1     -61.485 -40.546  39.544  0.00  0.00    +0.000 A 
ATOM      5  C   UNL     1     -62.511 -39.772  38.962  0.00  0.00    +0.000 A 
ATOM      6  C   UNL     1     -62.217 -38.436  38.598  0.00  0.00    +0.000 A 
ATOM      7  C   UNL     1     -61.727 -41.958  39.962  0.00  0.00    +0.000 A 
ATOM      8  C   UNL     1     -59.950 -38.675  39.362  0.00  0.00    +0.000 A 
ATOM      9  C   UNL     1     -62.843 -42.751  39.427  0.00  0.00    +0.000 A 
ATOM     10  C   UNL     1     -60.949 -37.900  38.798  0.00  0.00    +0.000 A 
ATOM     11  C   UNL     1     -63.947 -42.158  38.832  0.00  0.00    +0.000 A 
ATOM     12  C   UNL     1     -63.224 -37.500  37.966  0.00  0.00    +0.000 C 
ATOM     13  C   UNL     1     -62.768 -44.142  39.548  0.00  0.00    +0.000 A 
ATOM     14  C   UNL     1     -64.973 -42.975  38.351  0.00  0.00    +0.000 A 
ATOM     15  C   UNL     1     -63.792 -44.948  39.060  0.00  0.00    +0.000 A 
ATOM     16  C   UNL     1     -64.898 -44.362  38.456  0.00  0.00    +0.000 A 
ENDROOT
BRANCH   3  17
ATOM     17  N   UNL     1     -59.110 -40.782  40.232  0.00  0.00    +0.000 N 
ATOM     18  H   UNL     1     -59.284 -41.132  41.187  0.00  0.00    +0.000 HD
BRANCH  17  19
ATOM     19  C   UNL     1     -57.747 -40.379  39.930  0.00  0.00    +0.000 C 
ATOM     20  C   UNL     1     -56.310 -39.952  39.613  0.00  0.00    +0.000 C 
BRANCH  20  21
ATOM     21  N   UNL     1     -54.948 -39.537  39.317  0.00  0.00    +0.000 N 
BRANCH  21  22
ATOM     22  C   UNL     1     -54.059 -40.431  40.035  0.00  0.00    +0.000 C 
ATOM     23  C   UNL     1     -53.131 -41.386  40.791  0.00  0.00    +0.000 C 
ENDBRANCH  21  22
BRANCH  21  24
ATOM     24  C   UNL     1     -54.767 -38.221  39.900  0.00  0.00    +0.000 C 
ATOM     25  C   UNL     1     -54.595 -36.827  40.511  0.00  0.00    +0.000 C 
ENDBRANCH  21  24
ENDBRANCH  20  21
ENDBRANCH  17  19
ENDBRANCH   3  17
TORSDOF 5
ENDMDL
MODEL 4
REMARK VINA RESULT:      -5.5     44.888     45.937
REMARK  Name = LUCANTHONE.pdbqt.pdb
REMARK  5 active torsions:
REMARK  status: ('A' for Active; 'I' for Inactive)
REMARK    1  A    between atoms: C_3  and  N_17
REMARK    2  A    between atoms: N_17  and  C_19
REMARK    3  A    between atoms: C_20  and  N_21
REMARK    4  A    between atoms: N_21  and  C_22
REMARK    5  A    between atoms: N_21  and  C_24
REMARK                            x       y       z     vdW  Elec       q    Type
REMARK                         _______ _______ _______ _____ _____    ______ ____
ROOT
ATOM      1  S   UNL     1     -43.880 -76.962  61.723  0.00  0.00    +0.000 S 
ATOM      2  O   UNL     1     -42.352 -74.995  65.271  0.00  0.00    +0.000 OA
ATOM      3  C   UNL     1     -45.115 -75.421  65.353  0.00  0.00    +0.000 A 
ATOM      4  C   UNL     1     -44.318 -75.750  64.220  0.00  0.00    +0.000 A 
ATOM      5  C   UNL     1     -44.863 -76.484  63.145  0.00  0.00    +0.000 A 
ATOM      6  C   UNL     1     -46.222 -76.873  63.220  0.00  0.00    +0.000 A 
ATOM      7  C   UNL     1     -42.891 -75.316  64.213  0.00  0.00    +0.000 A 
ATOM      8  C   UNL     1     -46.460 -75.807  65.362  0.00  0.00    +0.000 A 
ATOM      9  C   UNL     1     -42.107 -75.228  62.973  0.00  0.00    +0.000 A 
ATOM     10  C   UNL     1     -47.006 -76.535  64.318  0.00  0.00    +0.000 A 
ATOM     11  C   UNL     1     -42.483 -75.896  61.817  0.00  0.00    +0.000 A 
ATOM     12  C   UNL     1     -46.927 -77.661  62.138  0.00  0.00    +0.000 C 
ATOM     13  C   UNL     1     -40.945 -74.450  62.993  0.00  0.00    +0.000 A 
ATOM     14  C   UNL     1     -41.686 -75.772  60.677  0.00  0.00    +0.000 A 
ATOM     15  C   UNL     1     -40.161 -74.326  61.850  0.00  0.00    +0.000 A 
ATOM     16  C   UNL     1     -40.534 -74.987  60.686  0.00  0.00    +0.000 A 
ENDROOT
BRANCH   3  17
ATOM     17  N   UNL     1     -44.632 -74.578  66.388  0.00  0.00    +0.000 N 
ATOM     18  H   UNL     1     -43.639 -74.769  66.594  0.00  0.00    +0.000 HD
BRANCH  17  19
ATOM     19  C   UNL     1     -45.484 -74.284  67.528  0.00  0.00    +0.000 C 
ATOM     20  C   UNL     1     -46.381 -73.976  68.731  0.00  0.00    +0.000 C 
BRANCH  20  21
ATOM     21  N   UNL     1     -47.239 -73.694  69.871  0.00  0.00    +0.000 N 
BRANCH  21  22
ATOM     22  C   UNL     1     -48.570 -74.164  69.536  0.00  0.00    +0.000 C 
ATOM     23  C   UNL     1     -49.969 -74.669  69.172  0.00  0.00    +0.000 C 
ENDBRANCH  21  22
BRANCH  21  24
ATOM     24  C   UNL     1     -47.330 -72.251  69.990  0.00  0.00    +0.000 C 
ATOM     25  C   UNL     1     -47.416 -70.729  70.133  0.00  0.00    +0.000 C 
ENDBRANCH  21  24
ENDBRANCH  20  21
ENDBRANCH  17  19
ENDBRANCH   3  17
TORSDOF 5
ENDMDL
MODEL 5
REMARK VINA RESULT:      -5.2     28.176     31.806
REMARK  Name = LUCANTHONE.pdbqt.pdb
REMARK  5 active torsions:
REMARK  status: ('A' for Active; 'I' for Inactive)
REMARK    1  A    between atoms: C_3  and  N_17
REMARK    2  A    between atoms: N_17  and  C_19
REMARK    3  A    between atoms: C_20  and  N_21
REMARK    4  A    between atoms: N_21  and  C_22
REMARK    5  A    between atoms: N_21  and  C_24
REMARK                            x       y       z     vdW  Elec       q    Type
REMARK                         _______ _______ _______ _____ _____    ______ ____
ROOT
ATOM      1  S   UNL     1     -44.924 -63.859  22.598  0.00  0.00    +0.000 S 
ATOM      2  O   UNL     1     -45.839 -67.150  25.268  0.00  0.00    +0.000 OA
ATOM      3  C   UNL     1     -45.347 -64.747  26.612  0.00  0.00    +0.000 A 
ATOM      4  C   UNL     1     -45.227 -64.878  25.199  0.00  0.00    +0.000 A 
ATOM      5  C   UNL     1     -45.030 -63.743  24.385  0.00  0.00    +0.000 A 
ATOM      6  C   UNL     1     -44.947 -62.477  25.010  0.00  0.00    +0.000 A 
ATOM      7  C   UNL     1     -45.334 -66.243  24.607  0.00  0.00    +0.000 A 
ATOM      8  C   UNL     1     -45.229 -63.474  27.180  0.00  0.00    +0.000 A 
ATOM      9  C   UNL     1     -44.829 -66.554  23.263  0.00  0.00    +0.000 A 
ATOM     10  C   UNL     1     -45.045 -62.350  26.392  0.00  0.00    +0.000 A 
ATOM     11  C   UNL     1     -44.590 -65.565  22.320  0.00  0.00    +0.000 A 
ATOM     12  C   UNL     1     -44.738 -61.182  24.254  0.00  0.00    +0.000 C 
ATOM     13  C   UNL     1     -44.603 -67.899  22.949  0.00  0.00    +0.000 A 
ATOM     14  C   UNL     1     -44.115 -65.935  21.060  0.00  0.00    +0.000 A 
ATOM     15  C   UNL     1     -44.122 -68.257  21.693  0.00  0.00    +0.000 A 
ATOM     16  C   UNL     1     -43.875 -67.271  20.745  0.00  0.00    +0.000 A 
ENDROOT
BRANCH   3  17
ATOM     17  N   UNL     1     -45.418 -65.880  27.465  0.00  0.00    +0.000 N 
ATOM     18  H   UNL     1     -45.269 -66.755  26.940  0.00  0.00    +0.000 HD
BRANCH  17  19
ATOM     19  C   UNL     1     -46.418 -65.920  28.519  0.00  0.00    +0.000 C 
ATOM     20  C   UNL     1     -47.472 -65.961  29.630  0.00  0.00    +0.000 C 
BRANCH  20  21
ATOM     21  N   UNL     1     -48.467 -65.991  30.689  0.00  0.00    +0.000 N 
BRANCH  21  22
ATOM     22  C   UNL     1     -48.050 -65.036  31.700  0.00  0.00    +0.000 C 
ATOM     23  C   UNL     1     -47.610 -64.040  32.776  0.00  0.00    +0.000 C 
ENDBRANCH  21  22
BRANCH  21  24
ATOM     24  C   UNL     1     -48.394 -67.301  31.307  0.00  0.00    +0.000 C 
ATOM     25  C   UNL     1     -48.298 -68.689  31.949  0.00  0.00    +0.000 C 
ENDBRANCH  21  24
ENDBRANCH  20  21
ENDBRANCH  17  19
ENDBRANCH   3  17
TORSDOF 5
ENDMDL
MODEL 6
REMARK VINA RESULT:      -5.2     27.881     31.042
REMARK  Name = LUCANTHONE.pdbqt.pdb
REMARK  5 active torsions:
REMARK  status: ('A' for Active; 'I' for Inactive)
REMARK    1  A    between atoms: C_3  and  N_17
REMARK    2  A    between atoms: N_17  and  C_19
REMARK    3  A    between atoms: C_20  and  N_21
REMARK    4  A    between atoms: N_21  and  C_22
REMARK    5  A    between atoms: N_21  and  C_24
REMARK                            x       y       z     vdW  Elec       q    Type
REMARK                         _______ _______ _______ _____ _____    ______ ____
ROOT
ATOM      1  S   UNL     1     -46.534 -64.453  28.118  0.00  0.00    +0.000 S 
ATOM      2  O   UNL     1     -47.532 -68.486  29.358  0.00  0.00    +0.000 OA
ATOM      3  C   UNL     1     -47.114 -66.745  31.507  0.00  0.00    +0.000 A 
ATOM      4  C   UNL     1     -46.935 -66.351  30.151  0.00  0.00    +0.000 A 
ATOM      5  C   UNL     1     -46.714 -64.998  29.818  0.00  0.00    +0.000 A 
ATOM      6  C   UNL     1     -46.666 -64.049  30.866  0.00  0.00    +0.000 A 
ATOM      7  C   UNL     1     -47.008 -67.403  29.097  0.00  0.00    +0.000 A 
ATOM      8  C   UNL     1     -47.030 -65.769  32.506  0.00  0.00    +0.000 A 
ATOM      9  C   UNL     1     -46.445 -67.205  27.754  0.00  0.00    +0.000 A 
ATOM     10  C   UNL     1     -46.823 -64.436  32.193  0.00  0.00    +0.000 A 
ATOM     11  C   UNL     1     -46.175 -65.941  27.249  0.00  0.00    +0.000 A 
ATOM     12  C   UNL     1     -46.437 -62.570  30.646  0.00  0.00    +0.000 C 
ATOM     13  C   UNL     1     -46.196 -68.343  26.979  0.00  0.00    +0.000 A 
ATOM     14  C   UNL     1     -45.646 -65.827  25.962  0.00  0.00    +0.000 A 
ATOM     15  C   UNL     1     -45.661 -68.220  25.700  0.00  0.00    +0.000 A 
ATOM     16  C   UNL     1     -45.382 -66.957  25.190  0.00  0.00    +0.000 A 
ENDROOT
BRANCH   3  17
ATOM     17  N   UNL     1     -47.212 -68.111  31.883  0.00  0.00    +0.000 N 
ATOM     18  H   UNL     1     -48.144 -68.494  31.664  0.00  0.00    +0.000 HD
BRANCH  17  19
ATOM     19  C   UNL     1     -46.604 -68.557  33.125  0.00  0.00    +0.000 C 
ATOM     20  C   UNL     1     -45.961 -69.027  34.434  0.00  0.00    +0.000 C 
BRANCH  20  21
ATOM     21  N   UNL     1     -45.344 -69.480  35.670  0.00  0.00    +0.000 N 
BRANCH  21  22
ATOM     22  C   UNL     1     -45.673 -68.509  36.698  0.00  0.00    +0.000 C 
ATOM     23  C   UNL     1     -46.018 -67.495  37.792  0.00  0.00    +0.000 C 
ENDBRANCH  21  22
BRANCH  21  24
ATOM     24  C   UNL     1     -43.908 -69.409  35.482  0.00  0.00    +0.000 C 
ATOM     25  C   UNL     1     -42.393 -69.314  35.277  0.00  0.00    +0.000 C 
ENDBRANCH  21  24
ENDBRANCH  20  21
ENDBRANCH  17  19
ENDBRANCH   3  17
TORSDOF 5
ENDMDL
MODEL 7
REMARK VINA RESULT:      -5.0     24.429     27.997
REMARK  Name = LUCANTHONE.pdbqt.pdb
REMARK  5 active torsions:
REMARK  status: ('A' for Active; 'I' for Inactive)
REMARK    1  A    between atoms: C_3  and  N_17
REMARK    2  A    between atoms: N_17  and  C_19
REMARK    3  A    between atoms: C_20  and  N_21
REMARK    4  A    between atoms: N_21  and  C_22
REMARK    5  A    between atoms: N_21  and  C_24
REMARK                            x       y       z     vdW  Elec       q    Type
REMARK                         _______ _______ _______ _____ _____    ______ ____
ROOT
ATOM      1  S   UNL     1     -44.989 -63.228  26.467  0.00  0.00    +0.000 S 
ATOM      2  O   UNL     1     -47.641 -64.507  29.649  0.00  0.00    +0.000 OA
ATOM      3  C   UNL     1     -45.962 -62.399  30.397  0.00  0.00    +0.000 A 
ATOM      4  C   UNL     1     -45.886 -63.029  29.123  0.00  0.00    +0.000 A 
ATOM      5  C   UNL     1     -45.074 -62.493  28.102  0.00  0.00    +0.000 A 
ATOM      6  C   UNL     1     -44.333 -61.321  28.381  0.00  0.00    +0.000 A 
ATOM      7  C   UNL     1     -46.702 -64.257  28.895  0.00  0.00    +0.000 A 
ATOM      8  C   UNL     1     -45.187 -61.257  30.628  0.00  0.00    +0.000 A 
ATOM      9  C   UNL     1     -46.403 -65.204  27.812  0.00  0.00    +0.000 A 
ATOM     10  C   UNL     1     -44.393 -60.714  29.632  0.00  0.00    +0.000 A 
ATOM     11  C   UNL     1     -45.632 -64.848  26.716  0.00  0.00    +0.000 A 
ATOM     12  C   UNL     1     -43.426 -60.644  27.376  0.00  0.00    +0.000 C 
ATOM     13  C   UNL     1     -46.938 -66.493  27.910  0.00  0.00    +0.000 A 
ATOM     14  C   UNL     1     -45.393 -65.799  25.721  0.00  0.00    +0.000 A 
ATOM     15  C   UNL     1     -46.690 -67.436  26.917  0.00  0.00    +0.000 A 
ATOM     16  C   UNL     1     -45.912 -67.088  25.819  0.00  0.00    +0.000 A 
ENDROOT
BRANCH   3  17
ATOM     17  N   UNL     1     -46.669 -62.984  31.480  0.00  0.00    +0.000 N 
ATOM     18  H   UNL     1     -47.347 -63.687  31.150  0.00  0.00    +0.000 HD
BRANCH  17  19
ATOM     19  C   UNL     1     -47.092 -62.150  32.592  0.00  0.00    +0.000 C 
ATOM     20  C   UNL     1     -47.540 -61.270  33.764  0.00  0.00    +0.000 C 
BRANCH  20  21
ATOM     21  N   UNL     1     -47.968 -60.427  34.869  0.00  0.00    +0.000 N 
BRANCH  21  22
ATOM     22  C   UNL     1     -46.836 -59.599  35.243  0.00  0.00    +0.000 C 
ATOM     23  C   UNL     1     -45.635 -58.737  35.644  0.00  0.00    +0.000 C 
ENDBRANCH  21  22
BRANCH  21  24
ATOM     24  C   UNL     1     -48.229 -61.300  35.997  0.00  0.00    +0.000 C 
ATOM     25  C   UNL     1     -48.509 -62.206  37.200  0.00  0.00    +0.000 C 
ENDBRANCH  21  24
ENDBRANCH  20  21
ENDBRANCH  17  19
ENDBRANCH   3  17
TORSDOF 5
ENDMDL
MODEL 8
REMARK VINA RESULT:      -4.9     28.783     32.187
REMARK  Name = LUCANTHONE.pdbqt.pdb
REMARK  5 active torsions:
REMARK  status: ('A' for Active; 'I' for Inactive)
REMARK    1  A    between atoms: C_3  and  N_17
REMARK    2  A    between atoms: N_17  and  C_19
REMARK    3  A    between atoms: C_20  and  N_21
REMARK    4  A    between atoms: N_21  and  C_22
REMARK    5  A    between atoms: N_21  and  C_24
REMARK                            x       y       z     vdW  Elec       q    Type
REMARK                         _______ _______ _______ _____ _____    ______ ____
ROOT
ATOM      1  S   UNL     1     -40.349 -70.230  39.509  0.00  0.00    +0.000 S 
ATOM      2  O   UNL     1     -43.301 -67.614  37.710  0.00  0.00    +0.000 OA
ATOM      3  C   UNL     1     -43.476 -67.716  40.499  0.00  0.00    +0.000 A 
ATOM      4  C   UNL     1     -42.558 -68.510  39.756  0.00  0.00    +0.000 A 
ATOM      5  C   UNL     1     -41.557 -69.257  40.411  0.00  0.00    +0.000 A 
ATOM      6  C   UNL     1     -41.498 -69.204  41.824  0.00  0.00    +0.000 A 
ATOM      7  C   UNL     1     -42.673 -68.511  38.269  0.00  0.00    +0.000 A 
ATOM      8  C   UNL     1     -43.390 -67.721  41.896  0.00  0.00    +0.000 A 
ATOM      9  C   UNL     1     -42.082 -69.572  37.440  0.00  0.00    +0.000 A 
ATOM     10  C   UNL     1     -42.407 -68.443  42.552  0.00  0.00    +0.000 A 
ATOM     11  C   UNL     1     -41.073 -70.398  37.913  0.00  0.00    +0.000 A 
ATOM     12  C   UNL     1     -40.476 -69.956  42.648  0.00  0.00    +0.000 C 
ATOM     13  C   UNL     1     -42.563 -69.721  36.135  0.00  0.00    +0.000 A 
ATOM     14  C   UNL     1     -40.555 -71.382  37.068  0.00  0.00    +0.000 A 
ATOM     15  C   UNL     1     -42.045 -70.708  35.303  0.00  0.00    +0.000 A 
ATOM     16  C   UNL     1     -41.039 -71.544  35.771  0.00  0.00    +0.000 A 
ENDROOT
BRANCH   3  17
ATOM     17  N   UNL     1     -44.569 -67.055  39.878  0.00  0.00    +0.000 N 
ATOM     18  H   UNL     1     -44.569 -67.209  38.858  0.00  0.00    +0.000 HD
BRANCH  17  19
ATOM     19  C   UNL     1     -44.957 -65.731  40.333  0.00  0.00    +0.000 C 
ATOM     20  C   UNL     1     -45.366 -64.335  40.814  0.00  0.00    +0.000 C 
BRANCH  20  21
ATOM     21  N   UNL     1     -45.763 -63.016  41.278  0.00  0.00    +0.000 N 
BRANCH  21  22
ATOM     22  C   UNL     1     -44.816 -62.063  40.729  0.00  0.00    +0.000 C 
ATOM     23  C   UNL     1     -43.805 -61.066  40.156  0.00  0.00    +0.000 C 
ENDBRANCH  21  22
BRANCH  21  24
ATOM     24  C   UNL     1     -45.578 -62.996  42.717  0.00  0.00    +0.000 C 
ATOM     25  C   UNL     1     -45.370 -62.959  44.234  0.00  0.00    +0.000 C 
ENDBRANCH  21  24
ENDBRANCH  20  21
ENDBRANCH  17  19
ENDBRANCH   3  17
TORSDOF 5
ENDMDL
MODEL 9
REMARK VINA RESULT:      -4.8     23.515     24.520
REMARK  Name = LUCANTHONE.pdbqt.pdb
REMARK  5 active torsions:
REMARK  status: ('A' for Active; 'I' for Inactive)
REMARK    1  A    between atoms: C_3  and  N_17
REMARK    2  A    between atoms: N_17  and  C_19
REMARK    3  A    between atoms: C_20  and  N_21
REMARK    4  A    between atoms: N_21  and  C_22
REMARK    5  A    between atoms: N_21  and  C_24
REMARK                            x       y       z     vdW  Elec       q    Type
REMARK                         _______ _______ _______ _____ _____    ______ ____
ROOT
ATOM      1  S   UNL     1     -45.898 -60.437  32.872  0.00  0.00    +0.000 S 
ATOM      2  O   UNL     1     -43.096 -57.988  30.648  0.00  0.00    +0.000 OA
ATOM      3  C   UNL     1     -43.544 -57.062  33.249  0.00  0.00    +0.000 A 
ATOM      4  C   UNL     1     -44.234 -58.179  32.700  0.00  0.00    +0.000 A 
ATOM      5  C   UNL     1     -45.051 -58.991  33.513  0.00  0.00    +0.000 A 
ATOM      6  C   UNL     1     -45.173 -58.660  34.883  0.00  0.00    +0.000 A 
ATOM      7  C   UNL     1     -44.052 -58.475  31.249  0.00  0.00    +0.000 A 
ATOM      8  C   UNL     1     -43.722 -56.763  34.604  0.00  0.00    +0.000 A 
ATOM      9  C   UNL     1     -44.998 -59.311  30.497  0.00  0.00    +0.000 A 
ATOM     10  C   UNL     1     -44.513 -57.557  35.417  0.00  0.00    +0.000 A 
ATOM     11  C   UNL     1     -45.871 -60.184  31.130  0.00  0.00    +0.000 A 
ATOM     12  C   UNL     1     -46.016 -59.447  35.863  0.00  0.00    +0.000 C 
ATOM     13  C   UNL     1     -44.987 -59.212  29.102  0.00  0.00    +0.000 A 
ATOM     14  C   UNL     1     -46.739 -60.953  30.351  0.00  0.00    +0.000 A 
ATOM     15  C   UNL     1     -45.861 -59.976  28.335  0.00  0.00    +0.000 A 
ATOM     16  C   UNL     1     -46.743 -60.848  28.961  0.00  0.00    +0.000 A 
ENDROOT
BRANCH   3  17
ATOM     17  N   UNL     1     -42.818 -56.155  32.432  0.00  0.00    +0.000 N 
ATOM     18  H   UNL     1     -42.537 -56.595  31.542  0.00  0.00    +0.000 HD
BRANCH  17  19
ATOM     19  C   UNL     1     -41.852 -55.258  33.043  0.00  0.00    +0.000 C 
ATOM     20  C   UNL     1     -40.832 -54.312  33.686  0.00  0.00    +0.000 C 
BRANCH  20  21
ATOM     21  N   UNL     1     -39.859 -53.424  34.301  0.00  0.00    +0.000 N 
BRANCH  21  22
ATOM     22  C   UNL     1     -38.975 -52.958  33.249  0.00  0.00    +0.000 C 
ATOM     23  C   UNL     1     -38.038 -52.454  32.147  0.00  0.00    +0.000 C 
ENDBRANCH  21  22
BRANCH  21  24
ATOM     24  C   UNL     1     -39.048 -54.231  35.192  0.00  0.00    +0.000 C 
ATOM     25  C   UNL     1     -38.208 -55.088  36.145  0.00  0.00    +0.000 C 
ENDBRANCH  21  24
ENDBRANCH  20  21
ENDBRANCH  17  19
ENDBRANCH   3  17
TORSDOF 5
ENDMDL
