MODEL 1
REMARK VINA RESULT:      -6.7      0.000      0.000
REMARK  Name = MeIQx.pdbqt.pdb
REMARK  0 active torsions:
REMARK  status: ('A' for Active; 'I' for Inactive)
REMARK                            x       y       z     vdW  Elec       q    Type
REMARK                         _______ _______ _______ _____ _____    ______ ____
ROOT
ATOM      1  N   UNL     1     -50.858 -58.802  42.393  0.00  0.00    +0.000 N 
ATOM      2  N   UNL     1     -49.291 -59.888  41.267  0.00  0.00    +0.000 NA
ATOM      3  N   UNL     1     -47.199 -61.474  42.584  0.00  0.00    +0.000 NA
ATOM      4  N   UNL     1     -47.251 -61.574  45.428  0.00  0.00    +0.000 NA
ATOM      5  C   UNL     1     -50.094 -59.405  43.356  0.00  0.00    +0.000 A 
ATOM      6  C   UNL     1     -49.114 -60.081  42.629  0.00  0.00    +0.000 A 
ATOM      7  C   UNL     1     -48.135 -60.828  43.330  0.00  0.00    +0.000 A 
ATOM      8  C   UNL     1     -48.173 -60.869  44.745  0.00  0.00    +0.000 A 
ATOM      9  C   UNL     1     -50.343 -59.111  41.144  0.00  0.00    +0.000 A 
ATOM     10  C   UNL     1     -50.158 -59.429  44.751  0.00  0.00    +0.000 A 
ATOM     11  C   UNL     1     -49.175 -60.174  45.410  0.00  0.00    +0.000 A 
ATOM     12  C   UNL     1     -52.029 -58.013  42.646  0.00  0.00    +0.000 C 
ATOM     13  C   UNL     1     -46.285 -62.173  43.286  0.00  0.00    +0.000 A 
ATOM     14  C   UNL     1     -46.313 -62.220  44.677  0.00  0.00    +0.000 A 
ATOM     15  C   UNL     1     -45.218 -62.918  42.535  0.00  0.00    +0.000 C 
ATOM     16  N   UNL     1     -50.861 -58.670  39.976  0.00  0.00    +0.000 N 
ATOM     17  H   UNL     1     -50.544 -59.105  39.115  0.00  0.00    +0.000 HD
ATOM     18  H   UNL     1     -51.791 -58.259  39.939  0.00  0.00    +0.000 HD
ENDROOT
TORSDOF 0
ENDMDL
MODEL 2
REMARK VINA RESULT:      -6.6      1.527      5.640
REMARK  Name = MeIQx.pdbqt.pdb
REMARK  0 active torsions:
REMARK  status: ('A' for Active; 'I' for Inactive)
REMARK                            x       y       z     vdW  Elec       q    Type
REMARK                         _______ _______ _______ _____ _____    ______ ____
ROOT
ATOM      1  N   UNL     1     -47.851 -60.682  44.873  0.00  0.00    +0.000 N 
ATOM      2  N   UNL     1     -49.926 -60.078  45.354  0.00  0.00    +0.000 NA
ATOM      3  N   UNL     1     -51.828 -59.165  43.312  0.00  0.00    +0.000 NA
ATOM      4  N   UNL     1     -50.896 -59.075  40.624  0.00  0.00    +0.000 NA
ATOM      5  C   UNL     1     -48.397 -60.328  43.668  0.00  0.00    +0.000 A 
ATOM      6  C   UNL     1     -49.700 -59.952  43.992  0.00  0.00    +0.000 A 
ATOM      7  C   UNL     1     -50.565 -59.521  42.955  0.00  0.00    +0.000 A 
ATOM      8  C   UNL     1     -50.088 -59.482  41.622  0.00  0.00    +0.000 A 
ATOM      9  C   UNL     1     -48.799 -60.515  45.870  0.00  0.00    +0.000 A 
ATOM     10  C   UNL     1     -47.900 -60.302  42.363  0.00  0.00    +0.000 A 
ATOM     11  C   UNL     1     -48.780 -59.870  41.366  0.00  0.00    +0.000 A 
ATOM     12  C   UNL     1     -46.520 -61.183  45.057  0.00  0.00    +0.000 C 
ATOM     13  C   UNL     1     -52.621 -58.760  42.299  0.00  0.00    +0.000 A 
ATOM     14  C   UNL     1     -52.162 -58.717  40.986  0.00  0.00    +0.000 A 
ATOM     15  C   UNL     1     -54.033 -58.352  42.610  0.00  0.00    +0.000 C 
ATOM     16  N   UNL     1     -48.581 -60.769  47.179  0.00  0.00    +0.000 N 
ATOM     17  H   UNL     1     -49.384 -60.811  47.800  0.00  0.00    +0.000 HD
ATOM     18  H   UNL     1     -47.770 -61.306  47.479  0.00  0.00    +0.000 HD
ENDROOT
TORSDOF 0
ENDMDL
MODEL 3
REMARK VINA RESULT:      -6.5      2.227      3.983
REMARK  Name = MeIQx.pdbqt.pdb
REMARK  0 active torsions:
REMARK  status: ('A' for Active; 'I' for Inactive)
REMARK                            x       y       z     vdW  Elec       q    Type
REMARK                         _______ _______ _______ _____ _____    ______ ____
ROOT
ATOM      1  N   UNL     1     -48.384 -60.910  45.469  0.00  0.00    +0.000 N 
ATOM      2  N   UNL     1     -48.979 -60.698  43.347  0.00  0.00    +0.000 NA
ATOM      3  N   UNL     1     -47.469 -61.919  41.145  0.00  0.00    +0.000 NA
ATOM      4  N   UNL     1     -45.154 -63.422  41.841  0.00  0.00    +0.000 NA
ATOM      5  C   UNL     1     -47.437 -61.613  44.772  0.00  0.00    +0.000 A 
ATOM      6  C   UNL     1     -47.829 -61.467  43.442  0.00  0.00    +0.000 A 
ATOM      7  C   UNL     1     -47.052 -62.084  42.429  0.00  0.00    +0.000 A 
ATOM      8  C   UNL     1     -45.903 -62.829  42.790  0.00  0.00    +0.000 A 
ATOM      9  C   UNL     1     -49.296 -60.368  44.579  0.00  0.00    +0.000 A 
ATOM     10  C   UNL     1     -46.311 -62.343  45.158  0.00  0.00    +0.000 A 
ATOM     11  C   UNL     1     -45.568 -62.936  44.133  0.00  0.00    +0.000 A 
ATOM     12  C   UNL     1     -48.436 -60.796  46.898  0.00  0.00    +0.000 C 
ATOM     13  C   UNL     1     -46.705 -62.520  40.210  0.00  0.00    +0.000 A 
ATOM     14  C   UNL     1     -45.573 -63.254  40.554  0.00  0.00    +0.000 A 
ATOM     15  C   UNL     1     -47.099 -62.388  38.766  0.00  0.00    +0.000 C 
ATOM     16  N   UNL     1     -50.356 -59.610  44.940  0.00  0.00    +0.000 N 
ATOM     17  H   UNL     1     -51.075 -59.428  44.246  0.00  0.00    +0.000 HD
ATOM     18  H   UNL     1     -50.667 -59.575  45.909  0.00  0.00    +0.000 HD
ENDROOT
TORSDOF 0
ENDMDL
MODEL 4
REMARK VINA RESULT:      -5.5     20.546     21.258
REMARK  Name = MeIQx.pdbqt.pdb
REMARK  0 active torsions:
REMARK  status: ('A' for Active; 'I' for Inactive)
REMARK                            x       y       z     vdW  Elec       q    Type
REMARK                         _______ _______ _______ _____ _____    ______ ____
ROOT
ATOM      1  N   UNL     1     -32.375 -49.782  50.577  0.00  0.00    +0.000 N 
ATOM      2  N   UNL     1     -32.753 -49.594  52.751  0.00  0.00    +0.000 NA
ATOM      3  N   UNL     1     -32.477 -51.848  54.612  0.00  0.00    +0.000 NA
ATOM      4  N   UNL     1     -31.687 -54.349  53.505  0.00  0.00    +0.000 NA
ATOM      5  C   UNL     1     -32.141 -51.034  51.079  0.00  0.00    +0.000 A 
ATOM      6  C   UNL     1     -32.385 -50.895  52.445  0.00  0.00    +0.000 A 
ATOM      7  C   UNL     1     -32.231 -52.026  53.286  0.00  0.00    +0.000 A 
ATOM      8  C   UNL     1     -31.837 -53.264  52.722  0.00  0.00    +0.000 A 
ATOM      9  C   UNL     1     -32.747 -48.938  51.612  0.00  0.00    +0.000 A 
ATOM     10  C   UNL     1     -31.749 -52.241  50.495  0.00  0.00    +0.000 A 
ATOM     11  C   UNL     1     -31.610 -53.336  51.354  0.00  0.00    +0.000 A 
ATOM     12  C   UNL     1     -32.216 -49.404  49.202  0.00  0.00    +0.000 C 
ATOM     13  C   UNL     1     -32.321 -52.947  55.379  0.00  0.00    +0.000 A 
ATOM     14  C   UNL     1     -31.935 -54.168  54.834  0.00  0.00    +0.000 A 
ATOM     15  C   UNL     1     -32.571 -52.833  56.856  0.00  0.00    +0.000 C 
ATOM     16  N   UNL     1     -33.054 -47.631  51.456  0.00  0.00    +0.000 N 
ATOM     17  H   UNL     1     -33.118 -47.051  52.287  0.00  0.00    +0.000 HD
ATOM     18  H   UNL     1     -32.820 -47.138  50.598  0.00  0.00    +0.000 HD
ENDROOT
TORSDOF 0
ENDMDL
MODEL 5
REMARK VINA RESULT:      -5.1     19.494     21.422
REMARK  Name = MeIQx.pdbqt.pdb
REMARK  0 active torsions:
REMARK  status: ('A' for Active; 'I' for Inactive)
REMARK                            x       y       z     vdW  Elec       q    Type
REMARK                         _______ _______ _______ _____ _____    ______ ____
ROOT
ATOM      1  N   UNL     1     -63.786 -71.645  29.863  0.00  0.00    +0.000 N 
ATOM      2  N   UNL     1     -64.325 -69.508  29.653  0.00  0.00    +0.000 NA
ATOM      3  N   UNL     1     -64.117 -67.592  31.869  0.00  0.00    +0.000 NA
ATOM      4  N   UNL     1     -63.177 -68.595  34.361  0.00  0.00    +0.000 NA
ATOM      5  C   UNL     1     -63.552 -71.105  31.100  0.00  0.00    +0.000 A 
ATOM      6  C   UNL     1     -63.897 -69.763  30.947  0.00  0.00    +0.000 A 
ATOM      7  C   UNL     1     -63.771 -68.893  32.060  0.00  0.00    +0.000 A 
ATOM      8  C   UNL     1     -63.302 -69.406  33.294  0.00  0.00    +0.000 A 
ATOM      9  C   UNL     1     -64.255 -70.655  29.015  0.00  0.00    +0.000 A 
ATOM     10  C   UNL     1     -63.085 -71.639  32.303  0.00  0.00    +0.000 A 
ATOM     11  C   UNL     1     -62.975 -70.752  33.380  0.00  0.00    +0.000 A 
ATOM     12  C   UNL     1     -63.540 -73.011  29.503  0.00  0.00    +0.000 C 
ATOM     13  C   UNL     1     -63.984 -66.796  32.950  0.00  0.00    +0.000 A 
ATOM     14  C   UNL     1     -63.525 -67.290  34.167  0.00  0.00    +0.000 A 
ATOM     15  C   UNL     1     -64.342 -65.343  32.820  0.00  0.00    +0.000 C 
ATOM     16  N   UNL     1     -64.589 -70.855  27.721  0.00  0.00    +0.000 N 
ATOM     17  H   UNL     1     -64.729 -70.041  27.130  0.00  0.00    +0.000 HD
ATOM     18  H   UNL     1     -64.308 -71.703  27.234  0.00  0.00    +0.000 HD
ENDROOT
TORSDOF 0
ENDMDL
MODEL 6
REMARK VINA RESULT:      -5.1     20.385     21.531
REMARK  Name = MeIQx.pdbqt.pdb
REMARK  0 active torsions:
REMARK  status: ('A' for Active; 'I' for Inactive)
REMARK                            x       y       z     vdW  Elec       q    Type
REMARK                         _______ _______ _______ _____ _____    ______ ____
ROOT
ATOM      1  N   UNL     1     -30.141 -52.093  50.515  0.00  0.00    +0.000 N 
ATOM      2  N   UNL     1     -30.900 -50.026  50.288  0.00  0.00    +0.000 NA
ATOM      3  N   UNL     1     -33.195 -49.000  51.807  0.00  0.00    +0.000 NA
ATOM      4  N   UNL     1     -34.447 -50.795  53.626  0.00  0.00    +0.000 NA
ATOM      5  C   UNL     1     -31.199 -52.016  51.380  0.00  0.00    +0.000 A 
ATOM      6  C   UNL     1     -31.662 -50.710  51.222  0.00  0.00    +0.000 A 
ATOM      7  C   UNL     1     -32.775 -50.281  51.989  0.00  0.00    +0.000 A 
ATOM      8  C   UNL     1     -33.388 -51.185  52.891  0.00  0.00    +0.000 A 
ATOM      9  C   UNL     1     -29.991 -50.877  49.868  0.00  0.00    +0.000 A 
ATOM     10  C   UNL     1     -31.782 -52.928  52.263  0.00  0.00    +0.000 A 
ATOM     11  C   UNL     1     -32.879 -52.472  53.001  0.00  0.00    +0.000 A 
ATOM     12  C   UNL     1     -29.302 -53.244  50.343  0.00  0.00    +0.000 C 
ATOM     13  C   UNL     1     -34.255 -48.630  52.552  0.00  0.00    +0.000 A 
ATOM     14  C   UNL     1     -34.866 -49.510  53.441  0.00  0.00    +0.000 A 
ATOM     15  C   UNL     1     -34.778 -47.229  52.412  0.00  0.00    +0.000 C 
ATOM     16  N   UNL     1     -29.040 -50.618  48.943  0.00  0.00    +0.000 N 
ATOM     17  H   UNL     1     -28.882 -49.651  48.675  0.00  0.00    +0.000 HD
ATOM     18  H   UNL     1     -28.243 -51.239  48.826  0.00  0.00    +0.000 HD
ENDROOT
TORSDOF 0
ENDMDL
MODEL 7
REMARK VINA RESULT:      -4.9     24.673     26.614
REMARK  Name = MeIQx.pdbqt.pdb
REMARK  0 active torsions:
REMARK  status: ('A' for Active; 'I' for Inactive)
REMARK                            x       y       z     vdW  Elec       q    Type
REMARK                         _______ _______ _______ _____ _____    ______ ____
ROOT
ATOM      1  N   UNL     1     -69.237 -73.224  27.663  0.00  0.00    +0.000 N 
ATOM      2  N   UNL     1     -67.891 -72.773  29.362  0.00  0.00    +0.000 NA
ATOM      3  N   UNL     1     -65.572 -70.988  29.121  0.00  0.00    +0.000 NA
ATOM      4  N   UNL     1     -65.094 -69.827  26.566  0.00  0.00    +0.000 NA
ATOM      5  C   UNL     1     -68.300 -72.371  27.145  0.00  0.00    +0.000 A 
ATOM      6  C   UNL     1     -67.463 -72.100  28.228  0.00  0.00    +0.000 A 
ATOM      7  C   UNL     1     -66.362 -71.228  28.040  0.00  0.00    +0.000 A 
ATOM      8  C   UNL     1     -66.136 -70.657  26.763  0.00  0.00    +0.000 A 
ATOM      9  C   UNL     1     -68.959 -73.449  29.001  0.00  0.00    +0.000 A 
ATOM     10  C   UNL     1     -68.104 -71.821  25.876  0.00  0.00    +0.000 A 
ATOM     11  C   UNL     1     -67.006 -70.968  25.727  0.00  0.00    +0.000 A 
ATOM     12  C   UNL     1     -70.351 -73.761  26.936  0.00  0.00    +0.000 C 
ATOM     13  C   UNL     1     -64.534 -70.155  28.902  0.00  0.00    +0.000 A 
ATOM     14  C   UNL     1     -64.303 -69.589  27.652  0.00  0.00    +0.000 A 
ATOM     15  C   UNL     1     -63.615 -69.836  30.048  0.00  0.00    +0.000 C 
ATOM     16  N   UNL     1     -69.689 -74.251  29.808  0.00  0.00    +0.000 N 
ATOM     17  H   UNL     1     -69.532 -74.197  30.810  0.00  0.00    +0.000 HD
ATOM     18  H   UNL     1     -70.616 -74.567  29.529  0.00  0.00    +0.000 HD
ENDROOT
TORSDOF 0
ENDMDL
MODEL 8
REMARK VINA RESULT:      -4.8     23.702     25.696
REMARK  Name = MeIQx.pdbqt.pdb
REMARK  0 active torsions:
REMARK  status: ('A' for Active; 'I' for Inactive)
REMARK                            x       y       z     vdW  Elec       q    Type
REMARK                         _______ _______ _______ _____ _____    ______ ____
ROOT
ATOM      1  N   UNL     1     -31.207 -51.849  55.706  0.00  0.00    +0.000 N 
ATOM      2  N   UNL     1     -31.653 -52.530  57.765  0.00  0.00    +0.000 NA
ATOM      3  N   UNL     1     -29.633 -52.573  59.896  0.00  0.00    +0.000 NA
ATOM      4  N   UNL     1     -27.015 -51.689  59.214  0.00  0.00    +0.000 NA
ATOM      5  C   UNL     1     -30.022 -51.717  56.379  0.00  0.00    +0.000 A 
ATOM      6  C   UNL     1     -30.323 -52.151  57.670  0.00  0.00    +0.000 A 
ATOM      7  C   UNL     1     -29.299 -52.144  58.650  0.00  0.00    +0.000 A 
ATOM      8  C   UNL     1     -28.001 -51.702  58.296  0.00  0.00    +0.000 A 
ATOM      9  C   UNL     1     -32.169 -52.346  56.571  0.00  0.00    +0.000 A 
ATOM     10  C   UNL     1     -28.752 -51.273  56.002  0.00  0.00    +0.000 A 
ATOM     11  C   UNL     1     -27.766 -51.283  56.994  0.00  0.00    +0.000 A 
ATOM     12  C   UNL     1     -31.418 -51.487  54.334  0.00  0.00    +0.000 C 
ATOM     13  C   UNL     1     -28.633 -52.553  60.800  0.00  0.00    +0.000 A 
ATOM     14  C   UNL     1     -27.354 -52.121  60.463  0.00  0.00    +0.000 A 
ATOM     15  C   UNL     1     -28.922 -53.009  62.203  0.00  0.00    +0.000 C 
ATOM     16  N   UNL     1     -33.450 -52.599  56.221  0.00  0.00    +0.000 N 
ATOM     17  H   UNL     1     -34.125 -52.767  56.961  0.00  0.00    +0.000 HD
ATOM     18  H   UNL     1     -33.837 -52.233  55.354  0.00  0.00    +0.000 HD
ENDROOT
TORSDOF 0
ENDMDL
MODEL 9
REMARK VINA RESULT:      -4.8     14.560     15.641
REMARK  Name = MeIQx.pdbqt.pdb
REMARK  0 active torsions:
REMARK  status: ('A' for Active; 'I' for Inactive)
REMARK                            x       y       z     vdW  Elec       q    Type
REMARK                         _______ _______ _______ _____ _____    ______ ____
ROOT
ATOM      1  N   UNL     1     -33.159 -61.386  42.390  0.00  0.00    +0.000 N 
ATOM      2  N   UNL     1     -32.699 -59.531  43.508  0.00  0.00    +0.000 NA
ATOM      3  N   UNL     1     -33.590 -59.079  46.270  0.00  0.00    +0.000 NA
ATOM      4  N   UNL     1     -35.104 -61.154  47.496  0.00  0.00    +0.000 NA
ATOM      5  C   UNL     1     -33.743 -61.567  43.616  0.00  0.00    +0.000 A 
ATOM      6  C   UNL     1     -33.443 -60.391  44.303  0.00  0.00    +0.000 A 
ATOM      7  C   UNL     1     -33.905 -60.240  45.634  0.00  0.00    +0.000 A 
ATOM      8  C   UNL     1     -34.657 -61.280  46.232  0.00  0.00    +0.000 A 
ATOM      9  C   UNL     1     -32.542 -60.146  42.357  0.00  0.00    +0.000 A 
ATOM     10  C   UNL     1     -34.480 -62.610  44.180  0.00  0.00    +0.000 A 
ATOM     11  C   UNL     1     -34.921 -62.426  45.494  0.00  0.00    +0.000 A 
ATOM     12  C   UNL     1     -33.158 -62.352  41.330  0.00  0.00    +0.000 C 
ATOM     13  C   UNL     1     -34.047 -58.972  47.534  0.00  0.00    +0.000 A 
ATOM     14  C   UNL     1     -34.788 -59.989  48.130  0.00  0.00    +0.000 A 
ATOM     15  C   UNL     1     -33.739 -57.721  48.306  0.00  0.00    +0.000 C 
ATOM     16  N   UNL     1     -31.877 -59.654  41.289  0.00  0.00    +0.000 N 
ATOM     17  H   UNL     1     -31.292 -58.834  41.423  0.00  0.00    +0.000 HD
ATOM     18  H   UNL     1     -31.607 -60.260  40.518  0.00  0.00    +0.000 HD
ENDROOT
TORSDOF 0
ENDMDL
