MODEL 1
REMARK VINA RESULT:      -7.7      0.000      0.000
REMARK  Name = 
REMARK  21 active torsions:
REMARK  status: ('A' for Active; 'I' for Inactive)
REMARK    1  A    between atoms: O_3  and  C_27
REMARK    2  A    between atoms: O_3  and  C_28
REMARK    3  A    between atoms: N_6  and  CA_9
REMARK    4  A    between atoms: N_7  and  CA_15
REMARK    5  A    between atoms: N_8  and  CA_12
REMARK    6  A    between atoms: CA_9  and  CB_10
REMARK    7  A    between atoms: CA_9  and  C_16
REMARK    8  A    between atoms: CB_10  and  CG_11
REMARK    9  A    between atoms: CG_11  and  CD1_20
REMARK   10  A    between atoms: CG_11  and  CD2_21
REMARK   11  A    between atoms: CA_12  and  CB_13
REMARK   12  A    between atoms: CA_12  and  C_18
REMARK   13  A    between atoms: CB_13  and  CG_14
REMARK   14  A    between atoms: CG_14  and  CD1_22
REMARK   15  A    between atoms: CG_14  and  CD2_23
REMARK   16  A    between atoms: CA_15  and  CB_17
REMARK   17  A    between atoms: CA_15  and  C_26
REMARK   18  A    between atoms: CB_17  and  CG_19
REMARK   19  A    between atoms: CG_19  and  CD1_24
REMARK   20  A    between atoms: CG_19  and  CD2_25
REMARK   21  A    between atoms: C_28  and  C_29
REMARK                            x       y       z     vdW  Elec       q    Type
REMARK                         _______ _______ _______ _____ _____    ______ ____
ROOT
ATOM      1  O   UNL     1     -62.213 -66.762  41.814  0.00  0.00    +0.000 OA
ATOM      2  N   UNL     1     -60.973 -65.230  40.666  0.00  0.00    +0.000 N 
ATOM      3  C   UNL     1     -61.421 -66.517  40.909  0.00  0.00    +0.000 C 
ATOM      4  H   UNL     1     -60.764 -65.045  39.688  0.00  0.00    +0.000 HD
ENDROOT
BRANCH   2   5
ATOM      5  CA  UNL     1     -61.553 -64.111  41.410  0.00  0.00    +0.000 C 
BRANCH   5   8
ATOM      6  O   UNL     1     -62.277 -62.481  39.781  0.00  0.00    +0.000 OA
ATOM      7  N   UNL     1     -60.169 -62.222  40.445  0.00  0.00    +0.000 N 
ATOM      8  C   UNL     1     -61.358 -62.883  40.501  0.00  0.00    +0.000 C 
ATOM      9  H   UNL     1     -60.226 -61.424  39.821  0.00  0.00    +0.000 HD
BRANCH   7  10
ATOM     10  CA  UNL     1     -59.060 -62.231  41.398  0.00  0.00    +0.000 C 
BRANCH  10  12
ATOM     11  O   UNL     1     -59.900 -60.121  42.280  0.00  0.00    +0.000 OA
ATOM     12  C   UNL     1     -58.946 -60.871  42.085  0.00  0.00    +0.000 C 
ENDBRANCH  10  12
BRANCH  10  13
ATOM     13  CB  UNL     1     -57.748 -62.710  40.757  0.00  0.00    +0.000 C 
BRANCH  13  14
ATOM     14  CG  UNL     1     -56.465 -61.910  41.077  0.00  0.00    +0.000 C 
ATOM     15  CD1 UNL     1     -55.267 -62.790  41.428  0.00  0.00    +0.000 C 
ATOM     16  CD2 UNL     1     -56.111 -61.019  39.881  0.00  0.00    +0.000 C 
ENDBRANCH  13  14
ENDBRANCH  10  13
ENDBRANCH   7  10
ENDBRANCH   5   8
BRANCH   5  17
ATOM     17  CB  UNL     1     -60.800 -63.917  42.735  0.00  0.00    +0.000 C 
BRANCH  17  18
ATOM     18  CG  UNL     1     -61.702 -63.614  43.947  0.00  0.00    +0.000 C 
ATOM     19  CD1 UNL     1     -61.623 -62.149  44.379  0.00  0.00    +0.000 C 
ATOM     20  CD2 UNL     1     -63.155 -63.965  43.610  0.00  0.00    +0.000 C 
ENDBRANCH  17  18
ENDBRANCH   5  17
ENDBRANCH   2   5
BRANCH   3  21
ATOM     21  CA  UNL     1     -60.908 -67.580  39.907  0.00  0.00    +0.000 C 
BRANCH  21  23
ATOM     22  O   UNL     1     -58.407 -67.902  41.174  0.00  0.00    +0.000 OA
ATOM     23  N   UNL     1     -60.458 -68.774  40.635  0.00  0.00    +0.000 N 
ATOM     24  C   ACE A   0     -59.203 -68.828  41.180  0.00  0.00    +0.000 C 
ATOM     25  H   UNL     1     -60.875 -69.659  40.385  0.00  0.00    +0.000 HD
BRANCH  24  26
ATOM     26  O   UNL     1     -58.882 -70.062  41.637  0.00  0.00    +0.000 OA
BRANCH  26  27
ATOM     27  C   UNL     1     -57.480 -70.320  41.786  0.00  0.00    +0.000 C 
BRANCH  27  28
ATOM     28  C   UNL     1     -56.947 -70.963  40.529  0.00  0.00    +0.000 A 
ATOM     29  C   UNL     1     -57.537 -72.129  40.022  0.00  0.00    +0.000 A 
ATOM     30  C   UNL     1     -55.817 -70.441  39.880  0.00  0.00    +0.000 A 
ATOM     31  C   UNL     1     -57.024 -72.744  38.878  0.00  0.00    +0.000 A 
ATOM     32  C   UNL     1     -55.306 -71.056  38.737  0.00  0.00    +0.000 A 
ATOM     33  C   UNL     1     -55.911 -72.208  38.235  0.00  0.00    +0.000 A 
ENDBRANCH  27  28
ENDBRANCH  26  27
ENDBRANCH  24  26
ENDBRANCH  21  23
BRANCH  21  34
ATOM     34  CB  UNL     1     -61.998 -67.969  38.891  0.00  0.00    +0.000 C 
BRANCH  34  35
ATOM     35  CG  UNL     1     -63.135 -66.945  38.696  0.00  0.00    +0.000 C 
ATOM     36  CD1 UNL     1     -63.185 -66.392  37.271  0.00  0.00    +0.000 C 
ATOM     37  CD2 UNL     1     -64.477 -67.600  39.038  0.00  0.00    +0.000 C 
ENDBRANCH  34  35
ENDBRANCH  21  34
ENDBRANCH   3  21
TORSDOF 15
ENDMDL
MODEL 2
REMARK VINA RESULT:      -7.1      2.312      4.756
REMARK  Name = 
REMARK  21 active torsions:
REMARK  status: ('A' for Active; 'I' for Inactive)
REMARK    1  A    between atoms: O_3  and  C_27
REMARK    2  A    between atoms: O_3  and  C_28
REMARK    3  A    between atoms: N_6  and  CA_9
REMARK    4  A    between atoms: N_7  and  CA_15
REMARK    5  A    between atoms: N_8  and  CA_12
REMARK    6  A    between atoms: CA_9  and  CB_10
REMARK    7  A    between atoms: CA_9  and  C_16
REMARK    8  A    between atoms: CB_10  and  CG_11
REMARK    9  A    between atoms: CG_11  and  CD1_20
REMARK   10  A    between atoms: CG_11  and  CD2_21
REMARK   11  A    between atoms: CA_12  and  CB_13
REMARK   12  A    between atoms: CA_12  and  C_18
REMARK   13  A    between atoms: CB_13  and  CG_14
REMARK   14  A    between atoms: CG_14  and  CD1_22
REMARK   15  A    between atoms: CG_14  and  CD2_23
REMARK   16  A    between atoms: CA_15  and  CB_17
REMARK   17  A    between atoms: CA_15  and  C_26
REMARK   18  A    between atoms: CB_17  and  CG_19
REMARK   19  A    between atoms: CG_19  and  CD1_24
REMARK   20  A    between atoms: CG_19  and  CD2_25
REMARK   21  A    between atoms: C_28  and  C_29
REMARK                            x       y       z     vdW  Elec       q    Type
REMARK                         _______ _______ _______ _____ _____    ______ ____
ROOT
ATOM      1  O   UNL     1     -62.286 -66.915  42.086  0.00  0.00    +0.000 OA
ATOM      2  N   UNL     1     -61.374 -65.440  40.603  0.00  0.00    +0.000 N 
ATOM      3  C   UNL     1     -61.563 -66.713  41.115  0.00  0.00    +0.000 C 
ATOM      4  H   UNL     1     -61.212 -65.421  39.599  0.00  0.00    +0.000 HD
ENDROOT
BRANCH   2   5
ATOM      5  CA  UNL     1     -62.152 -64.323  41.140  0.00  0.00    +0.000 C 
BRANCH   5   8
ATOM      6  O   UNL     1     -62.401 -62.493  39.582  0.00  0.00    +0.000 OA
ATOM      7  N   UNL     1     -63.717 -64.234  39.151  0.00  0.00    +0.000 N 
ATOM      8  C   UNL     1     -62.759 -63.630  39.905  0.00  0.00    +0.000 C 
ATOM      9  H   UNL     1     -63.981 -63.652  38.363  0.00  0.00    +0.000 HD
BRANCH   7  10
ATOM     10  CA  UNL     1     -64.071 -65.651  39.066  0.00  0.00    +0.000 C 
BRANCH  10  12
ATOM     11  O   UNL     1     -63.602 -65.506  36.679  0.00  0.00    +0.000 OA
ATOM     12  C   UNL     1     -64.176 -66.080  37.602  0.00  0.00    +0.000 C 
ENDBRANCH  10  12
BRANCH  10  13
ATOM     13  CB  UNL     1     -65.318 -65.990  39.898  0.00  0.00    +0.000 C 
BRANCH  13  14
ATOM     14  CG  UNL     1     -65.368 -67.378  40.574  0.00  0.00    +0.000 C 
ATOM     15  CD1 UNL     1     -65.758 -67.326  42.049  0.00  0.00    +0.000 C 
ATOM     16  CD2 UNL     1     -66.352 -68.276  39.817  0.00  0.00    +0.000 C 
ENDBRANCH  13  14
ENDBRANCH  10  13
ENDBRANCH   7  10
ENDBRANCH   5   8
BRANCH   5  17
ATOM     17  CB  UNL     1     -61.228 -63.355  41.894  0.00  0.00    +0.000 C 
BRANCH  17  18
ATOM     18  CG  UNL     1     -61.324 -63.443  43.430  0.00  0.00    +0.000 C 
ATOM     19  CD1 UNL     1     -60.859 -62.157  44.115  0.00  0.00    +0.000 C 
ATOM     20  CD2 UNL     1     -62.769 -63.742  43.841  0.00  0.00    +0.000 C 
ENDBRANCH  17  18
ENDBRANCH   5  17
ENDBRANCH   2   5
BRANCH   3  21
ATOM     21  CA  UNL     1     -60.863 -67.841  40.318  0.00  0.00    +0.000 C 
BRANCH  21  23
ATOM     22  O   UNL     1     -58.234 -68.333  39.417  0.00  0.00    +0.000 OA
ATOM     23  N   UNL     1     -59.770 -68.410  41.118  0.00  0.00    +0.000 N 
ATOM     24  C   ACE A   0     -58.541 -68.637  40.559  0.00  0.00    +0.000 C 
ATOM     25  H   UNL     1     -60.020 -68.996  41.901  0.00  0.00    +0.000 HD
BRANCH  24  26
ATOM     26  O   UNL     1     -57.718 -69.343  41.370  0.00  0.00    +0.000 OA
BRANCH  26  27
ATOM     27  C   UNL     1     -57.959 -70.755  41.418  0.00  0.00    +0.000 C 
BRANCH  27  28
ATOM     28  C   UNL     1     -57.336 -71.417  40.213  0.00  0.00    +0.000 A 
ATOM     29  C   UNL     1     -57.974 -72.497  39.587  0.00  0.00    +0.000 A 
ATOM     30  C   UNL     1     -56.083 -71.004  39.737  0.00  0.00    +0.000 A 
ATOM     31  C   UNL     1     -57.384 -73.132  38.492  0.00  0.00    +0.000 A 
ATOM     32  C   UNL     1     -55.494 -71.640  38.642  0.00  0.00    +0.000 A 
ATOM     33  C   UNL     1     -56.145 -72.703  38.020  0.00  0.00    +0.000 A 
ENDBRANCH  27  28
ENDBRANCH  26  27
ENDBRANCH  24  26
ENDBRANCH  21  23
BRANCH  21  34
ATOM     34  CB  UNL     1     -61.854 -68.951  39.925  0.00  0.00    +0.000 C 
BRANCH  34  35
ATOM     35  CG  UNL     1     -61.935 -70.156  40.885  0.00  0.00    +0.000 C 
ATOM     36  CD1 UNL     1     -63.319 -70.309  41.516  0.00  0.00    +0.000 C 
ATOM     37  CD2 UNL     1     -61.573 -71.438  40.127  0.00  0.00    +0.000 C 
ENDBRANCH  34  35
ENDBRANCH  21  34
ENDBRANCH   3  21
TORSDOF 15
ENDMDL
MODEL 3
REMARK VINA RESULT:      -6.9      2.661      4.858
REMARK  Name = 
REMARK  21 active torsions:
REMARK  status: ('A' for Active; 'I' for Inactive)
REMARK    1  A    between atoms: O_3  and  C_27
REMARK    2  A    between atoms: O_3  and  C_28
REMARK    3  A    between atoms: N_6  and  CA_9
REMARK    4  A    between atoms: N_7  and  CA_15
REMARK    5  A    between atoms: N_8  and  CA_12
REMARK    6  A    between atoms: CA_9  and  CB_10
REMARK    7  A    between atoms: CA_9  and  C_16
REMARK    8  A    between atoms: CB_10  and  CG_11
REMARK    9  A    between atoms: CG_11  and  CD1_20
REMARK   10  A    between atoms: CG_11  and  CD2_21
REMARK   11  A    between atoms: CA_12  and  CB_13
REMARK   12  A    between atoms: CA_12  and  C_18
REMARK   13  A    between atoms: CB_13  and  CG_14
REMARK   14  A    between atoms: CG_14  and  CD1_22
REMARK   15  A    between atoms: CG_14  and  CD2_23
REMARK   16  A    between atoms: CA_15  and  CB_17
REMARK   17  A    between atoms: CA_15  and  C_26
REMARK   18  A    between atoms: CB_17  and  CG_19
REMARK   19  A    between atoms: CG_19  and  CD1_24
REMARK   20  A    between atoms: CG_19  and  CD2_25
REMARK   21  A    between atoms: C_28  and  C_29
REMARK                            x       y       z     vdW  Elec       q    Type
REMARK                         _______ _______ _______ _____ _____    ______ ____
ROOT
ATOM      1  O   UNL     1     -62.929 -67.415  41.965  0.00  0.00    +0.000 OA
ATOM      2  N   UNL     1     -60.981 -66.510  41.195  0.00  0.00    +0.000 N 
ATOM      3  C   UNL     1     -61.809 -67.580  41.491  0.00  0.00    +0.000 C 
ATOM      4  H   UNL     1     -60.361 -66.676  40.406  0.00  0.00    +0.000 HD
ENDROOT
BRANCH   2   5
ATOM      5  CA  UNL     1     -61.493 -65.145  41.321  0.00  0.00    +0.000 C 
BRANCH   5   8
ATOM      6  O   UNL     1     -59.785 -64.171  39.916  0.00  0.00    +0.000 OA
ATOM      7  N   UNL     1     -61.845 -63.989  39.095  0.00  0.00    +0.000 N 
ATOM      8  C   UNL     1     -60.987 -64.412  40.064  0.00  0.00    +0.000 C 
ATOM      9  H   UNL     1     -61.342 -63.554  38.328  0.00  0.00    +0.000 HD
BRANCH   7  10
ATOM     10  CA  UNL     1     -63.214 -64.423  38.818  0.00  0.00    +0.000 C 
BRANCH  10  12
ATOM     11  O   UNL     1     -64.617 -64.695  40.792  0.00  0.00    +0.000 OA
ATOM     12  C   UNL     1     -64.149 -63.952  39.932  0.00  0.00    +0.000 C 
ENDBRANCH  10  12
BRANCH  10  13
ATOM     13  CB  UNL     1     -63.300 -65.931  38.537  0.00  0.00    +0.000 C 
BRANCH  13  14
ATOM     14  CG  UNL     1     -63.021 -66.404  37.093  0.00  0.00    +0.000 C 
ATOM     15  CD1 UNL     1     -62.831 -67.914  36.970  0.00  0.00    +0.000 C 
ATOM     16  CD2 UNL     1     -64.171 -65.958  36.182  0.00  0.00    +0.000 C 
ENDBRANCH  13  14
ENDBRANCH  10  13
ENDBRANCH   7  10
ENDBRANCH   5   8
BRANCH   5  17
ATOM     17  CB  UNL     1     -60.924 -64.487  42.586  0.00  0.00    +0.000 C 
BRANCH  17  18
ATOM     18  CG  UNL     1     -61.590 -63.151  42.971  0.00  0.00    +0.000 C 
ATOM     19  CD1 UNL     1     -62.957 -63.352  43.626  0.00  0.00    +0.000 C 
ATOM     20  CD2 UNL     1     -60.679 -62.376  43.927  0.00  0.00    +0.000 C 
ENDBRANCH  17  18
ENDBRANCH   5  17
ENDBRANCH   2   5
BRANCH   3  21
ATOM     21  CA  UNL     1     -61.240 -68.966  41.100  0.00  0.00    +0.000 C 
BRANCH  21  23
ATOM     22  O   UNL     1     -58.794 -68.532  39.758  0.00  0.00    +0.000 OA
ATOM     23  N   UNL     1     -59.899 -69.133  41.676  0.00  0.00    +0.000 N 
ATOM     24  C   ACE A   0     -58.780 -68.927  40.913  0.00  0.00    +0.000 C 
ATOM     25  H   UNL     1     -59.799 -69.772  42.452  0.00  0.00    +0.000 HD
BRANCH  24  26
ATOM     26  O   UNL     1     -57.642 -69.315  41.535  0.00  0.00    +0.000 OA
BRANCH  26  27
ATOM     27  C   UNL     1     -57.205 -70.649  41.251  0.00  0.00    +0.000 C 
BRANCH  27  28
ATOM     28  C   UNL     1     -57.667 -71.579  42.346  0.00  0.00    +0.000 A 
ATOM     29  C   UNL     1     -57.583 -71.190  43.690  0.00  0.00    +0.000 A 
ATOM     30  C   UNL     1     -58.133 -72.867  42.043  0.00  0.00    +0.000 A 
ATOM     31  C   UNL     1     -57.980 -72.062  44.707  0.00  0.00    +0.000 A 
ATOM     32  C   UNL     1     -58.529 -73.737  43.060  0.00  0.00    +0.000 A 
ATOM     33  C   UNL     1     -58.453 -73.333  44.392  0.00  0.00    +0.000 A 
ENDBRANCH  27  28
ENDBRANCH  26  27
ENDBRANCH  24  26
ENDBRANCH  21  23
BRANCH  21  34
ATOM     34  CB  UNL     1     -62.157 -70.106  41.575  0.00  0.00    +0.000 C 
BRANCH  34  35
ATOM     35  CG  UNL     1     -61.467 -71.254  42.342  0.00  0.00    +0.000 C 
ATOM     36  CD1 UNL     1     -61.902 -71.323  43.806  0.00  0.00    +0.000 C 
ATOM     37  CD2 UNL     1     -61.775 -72.587  41.652  0.00  0.00    +0.000 C 
ENDBRANCH  34  35
ENDBRANCH  21  34
ENDBRANCH   3  21
TORSDOF 15
ENDMDL
MODEL 4
REMARK VINA RESULT:      -6.6     31.492     34.371
REMARK  Name = 
REMARK  21 active torsions:
REMARK  status: ('A' for Active; 'I' for Inactive)
REMARK    1  A    between atoms: O_3  and  C_27
REMARK    2  A    between atoms: O_3  and  C_28
REMARK    3  A    between atoms: N_6  and  CA_9
REMARK    4  A    between atoms: N_7  and  CA_15
REMARK    5  A    between atoms: N_8  and  CA_12
REMARK    6  A    between atoms: CA_9  and  CB_10
REMARK    7  A    between atoms: CA_9  and  C_16
REMARK    8  A    between atoms: CB_10  and  CG_11
REMARK    9  A    between atoms: CG_11  and  CD1_20
REMARK   10  A    between atoms: CG_11  and  CD2_21
REMARK   11  A    between atoms: CA_12  and  CB_13
REMARK   12  A    between atoms: CA_12  and  C_18
REMARK   13  A    between atoms: CB_13  and  CG_14
REMARK   14  A    between atoms: CG_14  and  CD1_22
REMARK   15  A    between atoms: CG_14  and  CD2_23
REMARK   16  A    between atoms: CA_15  and  CB_17
REMARK   17  A    between atoms: CA_15  and  C_26
REMARK   18  A    between atoms: CB_17  and  CG_19
REMARK   19  A    between atoms: CG_19  and  CD1_24
REMARK   20  A    between atoms: CG_19  and  CD2_25
REMARK   21  A    between atoms: C_28  and  C_29
REMARK                            x       y       z     vdW  Elec       q    Type
REMARK                         _______ _______ _______ _____ _____    ______ ____
ROOT
ATOM      1  O   UNL     1     -35.099 -43.412  49.073  0.00  0.00    +0.000 OA
ATOM      2  N   UNL     1     -36.434 -43.292  50.919  0.00  0.00    +0.000 N 
ATOM      3  C   UNL     1     -36.163 -43.069  49.580  0.00  0.00    +0.000 C 
ATOM      4  H   UNL     1     -37.419 -43.448  51.119  0.00  0.00    +0.000 HD
ENDROOT
BRANCH   2   5
ATOM      5  CA  UNL     1     -35.494 -44.072  51.726  0.00  0.00    +0.000 C 
BRANCH   5   8
ATOM      6  O   UNL     1     -37.496 -45.341  52.195  0.00  0.00    +0.000 OA
ATOM      7  N   UNL     1     -35.614 -46.513  52.392  0.00  0.00    +0.000 N 
ATOM      8  C   UNL     1     -36.264 -45.349  52.111  0.00  0.00    +0.000 C 
ATOM      9  H   UNL     1     -36.273 -47.257  52.596  0.00  0.00    +0.000 HD
BRANCH   7  10
ATOM     10  CA  UNL     1     -34.253 -46.919  52.044  0.00  0.00    +0.000 C 
BRANCH  10  12
ATOM     11  O   UNL     1     -33.876 -48.259  50.044  0.00  0.00    +0.000 OA
ATOM     12  C   UNL     1     -34.147 -47.168  50.540  0.00  0.00    +0.000 C 
ENDBRANCH  10  12
BRANCH  10  13
ATOM     13  CB  UNL     1     -33.762 -48.098  52.900  0.00  0.00    +0.000 C 
BRANCH  13  14
ATOM     14  CG  UNL     1     -32.250 -48.176  53.205  0.00  0.00    +0.000 C 
ATOM     15  CD1 UNL     1     -31.525 -49.274  52.430  0.00  0.00    +0.000 C 
ATOM     16  CD2 UNL     1     -31.600 -46.822  52.898  0.00  0.00    +0.000 C 
ENDBRANCH  13  14
ENDBRANCH  10  13
ENDBRANCH   7  10
ENDBRANCH   5   8
BRANCH   5  17
ATOM     17  CB  UNL     1     -35.105 -43.284  52.985  0.00  0.00    +0.000 C 
BRANCH  17  18
ATOM     18  CG  UNL     1     -33.596 -43.010  53.130  0.00  0.00    +0.000 C 
ATOM     19  CD1 UNL     1     -32.988 -43.726  54.336  0.00  0.00    +0.000 C 
ATOM     20  CD2 UNL     1     -32.866 -43.452  51.857  0.00  0.00    +0.000 C 
ENDBRANCH  17  18
ENDBRANCH   5  17
ENDBRANCH   2   5
BRANCH   3  21
ATOM     21  CA  UNL     1     -37.329 -42.439  48.780  0.00  0.00    +0.000 C 
BRANCH  21  23
ATOM     22  O   UNL     1     -40.142 -42.247  48.934  0.00  0.00    +0.000 OA
ATOM     23  N   UNL     1     -38.085 -41.521  49.643  0.00  0.00    +0.000 N 
ATOM     24  C   ACE A   0     -39.454 -41.494  49.605  0.00  0.00    +0.000 C 
ATOM     25  H   UNL     1     -37.628 -40.667  49.930  0.00  0.00    +0.000 HD
BRANCH  24  26
ATOM     26  O   UNL     1     -39.978 -40.462  50.309  0.00  0.00    +0.000 OA
BRANCH  26  27
ATOM     27  C   UNL     1     -41.235 -39.966  49.834  0.00  0.00    +0.000 C 
BRANCH  27  28
ATOM     28  C   UNL     1     -42.329 -40.342  50.803  0.00  0.00    +0.000 A 
ATOM     29  C   UNL     1     -43.223 -41.377  50.498  0.00  0.00    +0.000 A 
ATOM     30  C   UNL     1     -42.506 -39.627  51.997  0.00  0.00    +0.000 A 
ATOM     31  C   UNL     1     -44.256 -41.706  51.379  0.00  0.00    +0.000 A 
ATOM     32  C   UNL     1     -43.538 -39.956  52.877  0.00  0.00    +0.000 A 
ATOM     33  C   UNL     1     -44.412 -40.997  52.568  0.00  0.00    +0.000 A 
ENDBRANCH  27  28
ENDBRANCH  26  27
ENDBRANCH  24  26
ENDBRANCH  21  23
BRANCH  21  34
ATOM     34  CB  UNL     1     -36.820 -41.686  47.538  0.00  0.00    +0.000 C 
BRANCH  34  35
ATOM     35  CG  UNL     1     -37.560 -41.981  46.217  0.00  0.00    +0.000 C 
ATOM     36  CD1 UNL     1     -38.276 -43.332  46.237  0.00  0.00    +0.000 C 
ATOM     37  CD2 UNL     1     -38.576 -40.867  45.941  0.00  0.00    +0.000 C 
ENDBRANCH  34  35
ENDBRANCH  21  34
ENDBRANCH   3  21
TORSDOF 15
ENDMDL
MODEL 5
REMARK VINA RESULT:      -6.6     13.692     15.614
REMARK  Name = 
REMARK  21 active torsions:
REMARK  status: ('A' for Active; 'I' for Inactive)
REMARK    1  A    between atoms: O_3  and  C_27
REMARK    2  A    between atoms: O_3  and  C_28
REMARK    3  A    between atoms: N_6  and  CA_9
REMARK    4  A    between atoms: N_7  and  CA_15
REMARK    5  A    between atoms: N_8  and  CA_12
REMARK    6  A    between atoms: CA_9  and  CB_10
REMARK    7  A    between atoms: CA_9  and  C_16
REMARK    8  A    between atoms: CB_10  and  CG_11
REMARK    9  A    between atoms: CG_11  and  CD1_20
REMARK   10  A    between atoms: CG_11  and  CD2_21
REMARK   11  A    between atoms: CA_12  and  CB_13
REMARK   12  A    between atoms: CA_12  and  C_18
REMARK   13  A    between atoms: CB_13  and  CG_14
REMARK   14  A    between atoms: CG_14  and  CD1_22
REMARK   15  A    between atoms: CG_14  and  CD2_23
REMARK   16  A    between atoms: CA_15  and  CB_17
REMARK   17  A    between atoms: CA_15  and  C_26
REMARK   18  A    between atoms: CB_17  and  CG_19
REMARK   19  A    between atoms: CG_19  and  CD1_24
REMARK   20  A    between atoms: CG_19  and  CD2_25
REMARK   21  A    between atoms: C_28  and  C_29
REMARK                            x       y       z     vdW  Elec       q    Type
REMARK                         _______ _______ _______ _____ _____    ______ ____
ROOT
ATOM      1  O   UNL     1     -46.356 -65.500  38.980  0.00  0.00    +0.000 OA
ATOM      2  N   UNL     1     -44.263 -64.821  39.580  0.00  0.00    +0.000 N 
ATOM      3  C   UNL     1     -45.145 -65.700  38.976  0.00  0.00    +0.000 C 
ATOM      4  H   UNL     1     -43.352 -64.777  39.129  0.00  0.00    +0.000 HD
ENDROOT
BRANCH   2   5
ATOM      5  CA  UNL     1     -44.761 -63.555  40.122  0.00  0.00    +0.000 C 
BRANCH   5   8
ATOM      6  O   UNL     1     -42.850 -62.081  39.997  0.00  0.00    +0.000 OA
ATOM      7  N   UNL     1     -44.256 -61.889  38.282  0.00  0.00    +0.000 N 
ATOM      8  C   UNL     1     -43.893 -62.469  39.460  0.00  0.00    +0.000 C 
ATOM      9  H   UNL     1     -43.558 -61.219  37.976  0.00  0.00    +0.000 HD
BRANCH   7  10
ATOM     10  CA  UNL     1     -45.197 -62.365  37.268  0.00  0.00    +0.000 C 
BRANCH  10  12
ATOM     11  O   UNL     1     -44.949 -64.054  35.530  0.00  0.00    +0.000 OA
ATOM     12  C   UNL     1     -44.451 -63.140  36.182  0.00  0.00    +0.000 C 
ENDBRANCH  10  12
BRANCH  10  13
ATOM     13  CB  UNL     1     -46.082 -61.234  36.721  0.00  0.00    +0.000 C 
BRANCH  13  14
ATOM     14  CG  UNL     1     -47.612 -61.402  36.851  0.00  0.00    +0.000 C 
ATOM     15  CD1 UNL     1     -48.276 -61.948  35.588  0.00  0.00    +0.000 C 
ATOM     16  CD2 UNL     1     -47.924 -62.328  38.032  0.00  0.00    +0.000 C 
ENDBRANCH  13  14
ENDBRANCH  10  13
ENDBRANCH   7  10
ENDBRANCH   5   8
BRANCH   5  17
ATOM     17  CB  UNL     1     -44.576 -63.529  41.646  0.00  0.00    +0.000 C 
BRANCH  17  18
ATOM     18  CG  UNL     1     -45.875 -63.310  42.446  0.00  0.00    +0.000 C 
ATOM     19  CD1 UNL     1     -45.631 -62.562  43.757  0.00  0.00    +0.000 C 
ATOM     20  CD2 UNL     1     -46.880 -62.527  41.595  0.00  0.00    +0.000 C 
ENDBRANCH  17  18
ENDBRANCH   5  17
ENDBRANCH   2   5
BRANCH   3  21
ATOM     21  CA  UNL     1     -44.475 -66.885  38.239  0.00  0.00    +0.000 C 
BRANCH  21  23
ATOM     22  O   UNL     1     -45.889 -68.690  36.592  0.00  0.00    +0.000 OA
ATOM     23  N   UNL     1     -44.680 -66.751  36.791  0.00  0.00    +0.000 N 
ATOM     24  C   ACE A   0     -45.355 -67.713  36.089  0.00  0.00    +0.000 C 
ATOM     25  H   UNL     1     -44.002 -66.211  36.271  0.00  0.00    +0.000 HD
BRANCH  24  26
ATOM     26  O   UNL     1     -45.281 -67.535  34.748  0.00  0.00    +0.000 OA
BRANCH  26  27
ATOM     27  C   UNL     1     -45.871 -68.570  33.953  0.00  0.00    +0.000 C 
BRANCH  27  28
ATOM     28  C   UNL     1     -46.822 -67.962  32.952  0.00  0.00    +0.000 A 
ATOM     29  C   UNL     1     -47.841 -68.735  32.380  0.00  0.00    +0.000 A 
ATOM     30  C   UNL     1     -46.667 -66.632  32.533  0.00  0.00    +0.000 A 
ATOM     31  C   UNL     1     -48.702 -68.183  31.429  0.00  0.00    +0.000 A 
ATOM     32  C   UNL     1     -47.528 -66.081  31.582  0.00  0.00    +0.000 A 
ATOM     33  C   UNL     1     -48.546 -66.857  31.031  0.00  0.00    +0.000 A 
ENDBRANCH  27  28
ENDBRANCH  26  27
ENDBRANCH  24  26
ENDBRANCH  21  23
BRANCH  21  34
ATOM     34  CB  UNL     1     -42.969 -66.961  38.548  0.00  0.00    +0.000 C 
BRANCH  34  35
ATOM     35  CG  UNL     1     -42.540 -68.043  39.562  0.00  0.00    +0.000 C 
ATOM     36  CD1 UNL     1     -41.508 -69.011  38.982  0.00  0.00    +0.000 C 
ATOM     37  CD2 UNL     1     -41.966 -67.371  40.814  0.00  0.00    +0.000 C 
ENDBRANCH  34  35
ENDBRANCH  21  34
ENDBRANCH   3  21
TORSDOF 15
ENDMDL
MODEL 6
REMARK VINA RESULT:      -6.5     31.663     35.616
REMARK  Name = 
REMARK  21 active torsions:
REMARK  status: ('A' for Active; 'I' for Inactive)
REMARK    1  A    between atoms: O_3  and  C_27
REMARK    2  A    between atoms: O_3  and  C_28
REMARK    3  A    between atoms: N_6  and  CA_9
REMARK    4  A    between atoms: N_7  and  CA_15
REMARK    5  A    between atoms: N_8  and  CA_12
REMARK    6  A    between atoms: CA_9  and  CB_10
REMARK    7  A    between atoms: CA_9  and  C_16
REMARK    8  A    between atoms: CB_10  and  CG_11
REMARK    9  A    between atoms: CG_11  and  CD1_20
REMARK   10  A    between atoms: CG_11  and  CD2_21
REMARK   11  A    between atoms: CA_12  and  CB_13
REMARK   12  A    between atoms: CA_12  and  C_18
REMARK   13  A    between atoms: CB_13  and  CG_14
REMARK   14  A    between atoms: CG_14  and  CD1_22
REMARK   15  A    between atoms: CG_14  and  CD2_23
REMARK   16  A    between atoms: CA_15  and  CB_17
REMARK   17  A    between atoms: CA_15  and  C_26
REMARK   18  A    between atoms: CB_17  and  CG_19
REMARK   19  A    between atoms: CG_19  and  CD1_24
REMARK   20  A    between atoms: CG_19  and  CD2_25
REMARK   21  A    between atoms: C_28  and  C_29
REMARK                            x       y       z     vdW  Elec       q    Type
REMARK                         _______ _______ _______ _____ _____    ______ ____
ROOT
ATOM      1  O   UNL     1     -32.924 -42.576  49.897  0.00  0.00    +0.000 OA
ATOM      2  N   UNL     1     -33.840 -42.225  51.956  0.00  0.00    +0.000 N 
ATOM      3  C   UNL     1     -33.873 -42.192  50.573  0.00  0.00    +0.000 C 
ATOM      4  H   UNL     1     -34.750 -42.377  52.386  0.00  0.00    +0.000 HD
ENDROOT
BRANCH   2   5
ATOM      5  CA  UNL     1     -32.707 -42.855  52.636  0.00  0.00    +0.000 C 
BRANCH   5   8
ATOM      6  O   UNL     1     -33.579 -42.916  54.889  0.00  0.00    +0.000 OA
ATOM      7  N   UNL     1     -33.567 -44.893  53.869  0.00  0.00    +0.000 N 
ATOM      8  C   UNL     1     -33.318 -43.555  53.865  0.00  0.00    +0.000 C 
ATOM      9  H   UNL     1     -33.996 -45.181  54.743  0.00  0.00    +0.000 HD
BRANCH   7  10
ATOM     10  CA  UNL     1     -33.701 -45.813  52.739  0.00  0.00    +0.000 C 
BRANCH  10  12
ATOM     11  O   UNL     1     -35.672 -44.859  51.672  0.00  0.00    +0.000 OA
ATOM     12  C   UNL     1     -35.143 -45.816  52.232  0.00  0.00    +0.000 C 
ENDBRANCH  10  12
BRANCH  10  13
ATOM     13  CB  UNL     1     -33.158 -47.214  53.063  0.00  0.00    +0.000 C 
BRANCH  13  14
ATOM     14  CG  UNL     1     -33.829 -48.417  52.364  0.00  0.00    +0.000 C 
ATOM     15  CD1 UNL     1     -32.836 -49.387  51.728  0.00  0.00    +0.000 C 
ATOM     16  CD2 UNL     1     -34.702 -49.170  53.374  0.00  0.00    +0.000 C 
ENDBRANCH  13  14
ENDBRANCH  10  13
ENDBRANCH   7  10
ENDBRANCH   5   8
BRANCH   5  17
ATOM     17  CB  UNL     1     -31.701 -41.783  53.080  0.00  0.00    +0.000 C 
BRANCH  17  18
ATOM     18  CG  UNL     1     -30.222 -42.201  52.957  0.00  0.00    +0.000 C 
ATOM     19  CD1 UNL     1     -29.890 -43.422  53.815  0.00  0.00    +0.000 C 
ATOM     20  CD2 UNL     1     -29.893 -42.506  51.492  0.00  0.00    +0.000 C 
ENDBRANCH  17  18
ENDBRANCH   5  17
ENDBRANCH   2   5
BRANCH   3  21
ATOM     21  CA  UNL     1     -35.218 -41.715  49.970  0.00  0.00    +0.000 C 
BRANCH  21  23
ATOM     22  O   UNL     1     -35.587 -42.488  47.280  0.00  0.00    +0.000 OA
ATOM     23  N   UNL     1     -35.992 -42.873  49.504  0.00  0.00    +0.000 N 
ATOM     24  C   ACE A   0     -36.131 -43.128  48.166  0.00  0.00    +0.000 C 
ATOM     25  H   UNL     1     -36.731 -43.213  50.103  0.00  0.00    +0.000 HD
BRANCH  24  26
ATOM     26  O   UNL     1     -37.032 -44.107  47.909  0.00  0.00    +0.000 OA
BRANCH  26  27
ATOM     27  C   UNL     1     -38.131 -44.190  48.824  0.00  0.00    +0.000 C 
BRANCH  27  28
ATOM     28  C   UNL     1     -39.226 -43.247  48.389  0.00  0.00    +0.000 A 
ATOM     29  C   UNL     1     -39.835 -43.395  47.135  0.00  0.00    +0.000 A 
ATOM     30  C   UNL     1     -39.612 -42.172  49.204  0.00  0.00    +0.000 A 
ATOM     31  C   UNL     1     -40.826 -42.504  46.717  0.00  0.00    +0.000 A 
ATOM     32  C   UNL     1     -40.602 -41.282  48.785  0.00  0.00    +0.000 A 
ATOM     33  C   UNL     1     -41.209 -41.449  47.542  0.00  0.00    +0.000 A 
ENDBRANCH  27  28
ENDBRANCH  26  27
ENDBRANCH  24  26
ENDBRANCH  21  23
BRANCH  21  34
ATOM     34  CB  UNL     1     -36.042 -40.914  50.993  0.00  0.00    +0.000 C 
BRANCH  34  35
ATOM     35  CG  UNL     1     -36.395 -39.466  50.592  0.00  0.00    +0.000 C 
ATOM     36  CD1 UNL     1     -36.019 -39.152  49.144  0.00  0.00    +0.000 C 
ATOM     37  CD2 UNL     1     -37.896 -39.232  50.794  0.00  0.00    +0.000 C 
ENDBRANCH  34  35
ENDBRANCH  21  34
ENDBRANCH   3  21
TORSDOF 15
ENDMDL
MODEL 7
REMARK VINA RESULT:      -6.4     32.792     35.252
REMARK  Name = 
REMARK  21 active torsions:
REMARK  status: ('A' for Active; 'I' for Inactive)
REMARK    1  A    between atoms: O_3  and  C_27
REMARK    2  A    between atoms: O_3  and  C_28
REMARK    3  A    between atoms: N_6  and  CA_9
REMARK    4  A    between atoms: N_7  and  CA_15
REMARK    5  A    between atoms: N_8  and  CA_12
REMARK    6  A    between atoms: CA_9  and  CB_10
REMARK    7  A    between atoms: CA_9  and  C_16
REMARK    8  A    between atoms: CB_10  and  CG_11
REMARK    9  A    between atoms: CG_11  and  CD1_20
REMARK   10  A    between atoms: CG_11  and  CD2_21
REMARK   11  A    between atoms: CA_12  and  CB_13
REMARK   12  A    between atoms: CA_12  and  C_18
REMARK   13  A    between atoms: CB_13  and  CG_14
REMARK   14  A    between atoms: CG_14  and  CD1_22
REMARK   15  A    between atoms: CG_14  and  CD2_23
REMARK   16  A    between atoms: CA_15  and  CB_17
REMARK   17  A    between atoms: CA_15  and  C_26
REMARK   18  A    between atoms: CB_17  and  CG_19
REMARK   19  A    between atoms: CG_19  and  CD1_24
REMARK   20  A    between atoms: CG_19  and  CD2_25
REMARK   21  A    between atoms: C_28  and  C_29
REMARK                            x       y       z     vdW  Elec       q    Type
REMARK                         _______ _______ _______ _____ _____    ______ ____
ROOT
ATOM      1  O   UNL     1     -36.422 -64.150  63.834  0.00  0.00    +0.000 OA
ATOM      2  N   UNL     1     -34.454 -64.366  64.967  0.00  0.00    +0.000 N 
ATOM      3  C   UNL     1     -35.336 -64.708  63.955  0.00  0.00    +0.000 C 
ATOM      4  H   UNL     1     -33.475 -64.479  64.714  0.00  0.00    +0.000 HD
ENDROOT
BRANCH   2   5
ATOM      5  CA  UNL     1     -34.755 -63.225  65.832  0.00  0.00    +0.000 C 
BRANCH   5   8
ATOM      6  O   UNL     1     -32.674 -63.052  67.048  0.00  0.00    +0.000 OA
ATOM      7  N   UNL     1     -32.934 -61.502  65.472  0.00  0.00    +0.000 N 
ATOM      8  C   UNL     1     -33.387 -62.593  66.150  0.00  0.00    +0.000 C 
ATOM      9  H   UNL     1     -32.007 -61.237  65.788  0.00  0.00    +0.000 HD
BRANCH   7  10
ATOM     10  CA  UNL     1     -33.361 -60.976  64.176  0.00  0.00    +0.000 C 
BRANCH  10  12
ATOM     11  O   UNL     1     -32.270 -61.038  61.998  0.00  0.00    +0.000 OA
ATOM     12  C   UNL     1     -32.534 -61.606  63.055  0.00  0.00    +0.000 C 
ENDBRANCH  10  12
BRANCH  10  13
ATOM     13  CB  UNL     1     -33.368 -59.439  64.147  0.00  0.00    +0.000 C 
BRANCH  13  14
ATOM     14  CG  UNL     1     -32.626 -58.702  65.284  0.00  0.00    +0.000 C 
ATOM     15  CD1 UNL     1     -31.115 -58.625  65.078  0.00  0.00    +0.000 C 
ATOM     16  CD2 UNL     1     -33.195 -57.286  65.427  0.00  0.00    +0.000 C 
ENDBRANCH  13  14
ENDBRANCH  10  13
ENDBRANCH   7  10
ENDBRANCH   5   8
BRANCH   5  17
ATOM     17  CB  UNL     1     -35.430 -63.711  67.123  0.00  0.00    +0.000 C 
BRANCH  17  18
ATOM     18  CG  UNL     1     -36.475 -62.740  67.706  0.00  0.00    +0.000 C 
ATOM     19  CD1 UNL     1     -37.782 -62.748  66.913  0.00  0.00    +0.000 C 
ATOM     20  CD2 UNL     1     -36.765 -63.108  69.165  0.00  0.00    +0.000 C 
ENDBRANCH  17  18
ENDBRANCH   5  17
ENDBRANCH   2   5
BRANCH   3  21
ATOM     21  CA  UNL     1     -34.803 -65.774  62.966  0.00  0.00    +0.000 C 
BRANCH  21  23
ATOM     22  O   UNL     1     -34.529 -66.739  60.328  0.00  0.00    +0.000 OA
ATOM     23  N   UNL     1     -34.061 -65.118  61.881  0.00  0.00    +0.000 N 
ATOM     24  C   ACE A   0     -33.968 -65.703  60.647  0.00  0.00    +0.000 C 
ATOM     25  H   UNL     1     -33.308 -64.496  62.139  0.00  0.00    +0.000 HD
BRANCH  24  26
ATOM     26  O   UNL     1     -33.090 -65.071  59.832  0.00  0.00    +0.000 OA
BRANCH  26  27
ATOM     27  C   UNL     1     -32.165 -65.921  59.141  0.00  0.00    +0.000 C 
BRANCH  27  28
ATOM     28  C   UNL     1     -30.910 -66.079  59.963  0.00  0.00    +0.000 A 
ATOM     29  C   UNL     1     -30.393 -64.994  60.685  0.00  0.00    +0.000 A 
ATOM     30  C   UNL     1     -30.206 -67.292  59.971  0.00  0.00    +0.000 A 
ATOM     31  C   UNL     1     -29.213 -65.129  61.421  0.00  0.00    +0.000 A 
ATOM     32  C   UNL     1     -29.027 -67.426  60.706  0.00  0.00    +0.000 A 
ATOM     33  C   UNL     1     -28.531 -66.344  61.431  0.00  0.00    +0.000 A 
ENDBRANCH  27  28
ENDBRANCH  26  27
ENDBRANCH  24  26
ENDBRANCH  21  23
BRANCH  21  34
ATOM     34  CB  UNL     1     -33.897 -66.797  63.674  0.00  0.00    +0.000 C 
BRANCH  34  35
ATOM     35  CG  UNL     1     -32.438 -66.865  63.178  0.00  0.00    +0.000 C 
ATOM     36  CD1 UNL     1     -31.446 -66.312  64.201  0.00  0.00    +0.000 C 
ATOM     37  CD2 UNL     1     -32.078 -68.317  62.848  0.00  0.00    +0.000 C 
ENDBRANCH  34  35
ENDBRANCH  21  34
ENDBRANCH   3  21
TORSDOF 15
ENDMDL
MODEL 8
REMARK VINA RESULT:      -6.4     31.592     34.080
REMARK  Name = 
REMARK  21 active torsions:
REMARK  status: ('A' for Active; 'I' for Inactive)
REMARK    1  A    between atoms: O_3  and  C_27
REMARK    2  A    between atoms: O_3  and  C_28
REMARK    3  A    between atoms: N_6  and  CA_9
REMARK    4  A    between atoms: N_7  and  CA_15
REMARK    5  A    between atoms: N_8  and  CA_12
REMARK    6  A    between atoms: CA_9  and  CB_10
REMARK    7  A    between atoms: CA_9  and  C_16
REMARK    8  A    between atoms: CB_10  and  CG_11
REMARK    9  A    between atoms: CG_11  and  CD1_20
REMARK   10  A    between atoms: CG_11  and  CD2_21
REMARK   11  A    between atoms: CA_12  and  CB_13
REMARK   12  A    between atoms: CA_12  and  C_18
REMARK   13  A    between atoms: CB_13  and  CG_14
REMARK   14  A    between atoms: CG_14  and  CD1_22
REMARK   15  A    between atoms: CG_14  and  CD2_23
REMARK   16  A    between atoms: CA_15  and  CB_17
REMARK   17  A    between atoms: CA_15  and  C_26
REMARK   18  A    between atoms: CB_17  and  CG_19
REMARK   19  A    between atoms: CG_19  and  CD1_24
REMARK   20  A    between atoms: CG_19  and  CD2_25
REMARK   21  A    between atoms: C_28  and  C_29
REMARK                            x       y       z     vdW  Elec       q    Type
REMARK                         _______ _______ _______ _____ _____    ______ ____
ROOT
ATOM      1  O   UNL     1     -35.164 -43.347  49.089  0.00  0.00    +0.000 OA
ATOM      2  N   UNL     1     -37.084 -42.738  50.160  0.00  0.00    +0.000 N 
ATOM      3  C   UNL     1     -35.776 -43.190  50.141  0.00  0.00    +0.000 C 
ATOM      4  H   UNL     1     -37.318 -42.188  50.984  0.00  0.00    +0.000 HD
ENDROOT
BRANCH   2   5
ATOM      5  CA  UNL     1     -37.717 -42.307  48.913  0.00  0.00    +0.000 C 
BRANCH   5   8
ATOM      6  O   UNL     1     -37.559 -40.140  49.971  0.00  0.00    +0.000 OA
ATOM      7  N   UNL     1     -37.526 -40.066  47.747  0.00  0.00    +0.000 N 
ATOM      8  C   UNL     1     -37.588 -40.772  48.910  0.00  0.00    +0.000 C 
ATOM      9  H   UNL     1     -37.413 -39.075  47.928  0.00  0.00    +0.000 HD
BRANCH   7  10
ATOM     10  CA  UNL     1     -37.187 -40.529  46.401  0.00  0.00    +0.000 C 
BRANCH  10  12
ATOM     11  O   UNL     1     -35.079 -41.506  45.668  0.00  0.00    +0.000 OA
ATOM     12  C   UNL     1     -35.669 -40.588  46.232  0.00  0.00    +0.000 C 
ENDBRANCH  10  12
BRANCH  10  13
ATOM     13  CB  UNL     1     -37.898 -39.713  45.310  0.00  0.00    +0.000 C 
BRANCH  13  14
ATOM     14  CG  UNL     1     -38.978 -40.433  44.472  0.00  0.00    +0.000 C 
ATOM     15  CD1 UNL     1     -40.341 -39.745  44.510  0.00  0.00    +0.000 C 
ATOM     16  CD2 UNL     1     -38.502 -40.543  43.018  0.00  0.00    +0.000 C 
ENDBRANCH  13  14
ENDBRANCH  10  13
ENDBRANCH   7  10
ENDBRANCH   5   8
BRANCH   5  17
ATOM     17  CB  UNL     1     -39.197 -42.717  48.907  0.00  0.00    +0.000 C 
BRANCH  17  18
ATOM     18  CG  UNL     1     -39.652 -43.462  47.637  0.00  0.00    +0.000 C 
ATOM     19  CD1 UNL     1     -40.683 -42.668  46.835  0.00  0.00    +0.000 C 
ATOM     20  CD2 UNL     1     -38.438 -43.759  46.751  0.00  0.00    +0.000 C 
ENDBRANCH  17  18
ENDBRANCH   5  17
ENDBRANCH   2   5
BRANCH   3  21
ATOM     21  CA  UNL     1     -35.142 -43.395  51.540  0.00  0.00    +0.000 C 
BRANCH  21  23
ATOM     22  O   UNL     1     -37.156 -45.280  52.139  0.00  0.00    +0.000 OA
ATOM     23  N   UNL     1     -34.936 -44.828  51.786  0.00  0.00    +0.000 N 
ATOM     24  C   ACE A   0     -35.991 -45.641  52.105  0.00  0.00    +0.000 C 
ATOM     25  H   UNL     1     -34.029 -45.118  52.126  0.00  0.00    +0.000 HD
BRANCH  24  26
ATOM     26  O   UNL     1     -35.601 -46.879  52.493  0.00  0.00    +0.000 OA
BRANCH  26  27
ATOM     27  C   UNL     1     -34.220 -47.189  52.274  0.00  0.00    +0.000 C 
BRANCH  27  28
ATOM     28  C   UNL     1     -33.976 -48.651  52.559  0.00  0.00    +0.000 A 
ATOM     29  C   UNL     1     -32.877 -49.311  51.993  0.00  0.00    +0.000 A 
ATOM     30  C   UNL     1     -34.875 -49.387  53.344  0.00  0.00    +0.000 A 
ATOM     31  C   UNL     1     -32.668 -50.672  52.229  0.00  0.00    +0.000 A 
ATOM     32  C   UNL     1     -34.665 -50.747  53.580  0.00  0.00    +0.000 A 
ATOM     33  C   UNL     1     -33.561 -51.389  53.023  0.00  0.00    +0.000 A 
ENDBRANCH  27  28
ENDBRANCH  26  27
ENDBRANCH  24  26
ENDBRANCH  21  23
BRANCH  21  34
ATOM     34  CB  UNL     1     -33.804 -42.645  51.667  0.00  0.00    +0.000 C 
BRANCH  34  35
ATOM     35  CG  UNL     1     -33.525 -41.989  53.035  0.00  0.00    +0.000 C 
ATOM     36  CD1 UNL     1     -32.845 -42.947  54.015  0.00  0.00    +0.000 C 
ATOM     37  CD2 UNL     1     -32.645 -40.750  52.838  0.00  0.00    +0.000 C 
ENDBRANCH  34  35
ENDBRANCH  21  34
ENDBRANCH   3  21
TORSDOF 15
ENDMDL
MODEL 9
REMARK VINA RESULT:      -6.3      3.104      5.926
REMARK  Name = 
REMARK  21 active torsions:
REMARK  status: ('A' for Active; 'I' for Inactive)
REMARK    1  A    between atoms: O_3  and  C_27
REMARK    2  A    between atoms: O_3  and  C_28
REMARK    3  A    between atoms: N_6  and  CA_9
REMARK    4  A    between atoms: N_7  and  CA_15
REMARK    5  A    between atoms: N_8  and  CA_12
REMARK    6  A    between atoms: CA_9  and  CB_10
REMARK    7  A    between atoms: CA_9  and  C_16
REMARK    8  A    between atoms: CB_10  and  CG_11
REMARK    9  A    between atoms: CG_11  and  CD1_20
REMARK   10  A    between atoms: CG_11  and  CD2_21
REMARK   11  A    between atoms: CA_12  and  CB_13
REMARK   12  A    between atoms: CA_12  and  C_18
REMARK   13  A    between atoms: CB_13  and  CG_14
REMARK   14  A    between atoms: CG_14  and  CD1_22
REMARK   15  A    between atoms: CG_14  and  CD2_23
REMARK   16  A    between atoms: CA_15  and  CB_17
REMARK   17  A    between atoms: CA_15  and  C_26
REMARK   18  A    between atoms: CB_17  and  CG_19
REMARK   19  A    between atoms: CG_19  and  CD1_24
REMARK   20  A    between atoms: CG_19  and  CD2_25
REMARK   21  A    between atoms: C_28  and  C_29
REMARK                            x       y       z     vdW  Elec       q    Type
REMARK                         _______ _______ _______ _____ _____    ______ ____
ROOT
ATOM      1  O   UNL     1     -62.404 -68.154  42.053  0.00  0.00    +0.000 OA
ATOM      2  N   UNL     1     -60.889 -67.018  40.781  0.00  0.00    +0.000 N 
ATOM      3  C   UNL     1     -61.398 -68.173  41.350  0.00  0.00    +0.000 C 
ATOM      4  H   UNL     1     -60.427 -67.169  39.887  0.00  0.00    +0.000 HD
ENDROOT
BRANCH   2   5
ATOM      5  CA  UNL     1     -61.633 -65.763  40.903  0.00  0.00    +0.000 C 
BRANCH   5   8
ATOM      6  O   UNL     1     -60.989 -64.286  39.103  0.00  0.00    +0.000 OA
ATOM      7  N   UNL     1     -62.621 -65.702  38.572  0.00  0.00    +0.000 N 
ATOM      8  C   UNL     1     -61.722 -65.210  39.469  0.00  0.00    +0.000 C 
ATOM      9  H   UNL     1     -62.522 -65.247  37.671  0.00  0.00    +0.000 HD
BRANCH   7  10
ATOM     10  CA  UNL     1     -63.339 -66.977  38.587  0.00  0.00    +0.000 C 
BRANCH  10  12
ATOM     11  O   UNL     1     -62.028 -68.727  37.515  0.00  0.00    +0.000 OA
ATOM     12  C   UNL     1     -62.883 -67.851  37.419  0.00  0.00    +0.000 C 
ENDBRANCH  10  12
BRANCH  10  13
ATOM     13  CB  UNL     1     -64.862 -66.783  38.655  0.00  0.00    +0.000 C 
BRANCH  13  14
ATOM     14  CG  UNL     1     -65.614 -67.454  39.826  0.00  0.00    +0.000 C 
ATOM     15  CD1 UNL     1     -65.185 -68.897  40.082  0.00  0.00    +0.000 C 
ATOM     16  CD2 UNL     1     -65.408 -66.627  41.101  0.00  0.00    +0.000 C 
ENDBRANCH  13  14
ENDBRANCH  10  13
ENDBRANCH   7  10
ENDBRANCH   5   8
BRANCH   5  17
ATOM     17  CB  UNL     1     -60.865 -64.785  41.805  0.00  0.00    +0.000 C 
BRANCH  17  18
ATOM     18  CG  UNL     1     -61.757 -63.820  42.611  0.00  0.00    +0.000 C 
ATOM     19  CD1 UNL     1     -63.025 -64.498  43.130  0.00  0.00    +0.000 C 
ATOM     20  CD2 UNL     1     -60.966 -63.252  43.793  0.00  0.00    +0.000 C 
ENDBRANCH  17  18
ENDBRANCH   5  17
ENDBRANCH   2   5
BRANCH   3  21
ATOM     21  CA  UNL     1     -60.650 -69.471  40.958  0.00  0.00    +0.000 C 
BRANCH  21  23
ATOM     22  O   UNL     1     -57.833 -69.601  41.099  0.00  0.00    +0.000 OA
ATOM     23  N   UNL     1     -59.866 -69.956  42.101  0.00  0.00    +0.000 N 
ATOM     24  C   ACE A   0     -58.498 -70.006  42.039  0.00  0.00    +0.000 C 
ATOM     25  H   UNL     1     -60.309 -70.614  42.727  0.00  0.00    +0.000 HD
BRANCH  24  26
ATOM     26  O   UNL     1     -57.949 -70.660  43.091  0.00  0.00    +0.000 OA
BRANCH  26  27
ATOM     27  C   UNL     1     -57.925 -72.089  42.986  0.00  0.00    +0.000 C 
BRANCH  27  28
ATOM     28  C   UNL     1     -58.889 -72.687  43.981  0.00  0.00    +0.000 A 
ATOM     29  C   UNL     1     -59.683 -73.787  43.628  0.00  0.00    +0.000 A 
ATOM     30  C   UNL     1     -59.050 -72.119  45.253  0.00  0.00    +0.000 A 
ATOM     31  C   UNL     1     -60.599 -74.322  44.536  0.00  0.00    +0.000 A 
ATOM     32  C   UNL     1     -59.966 -72.654  46.160  0.00  0.00    +0.000 A 
ATOM     33  C   UNL     1     -60.740 -73.757  45.802  0.00  0.00    +0.000 A 
ENDBRANCH  27  28
ENDBRANCH  26  27
ENDBRANCH  24  26
ENDBRANCH  21  23
BRANCH  21  34
ATOM     34  CB  UNL     1     -61.626 -70.565  40.493  0.00  0.00    +0.000 C 
BRANCH  34  35
ATOM     35  CG  UNL     1     -61.690 -71.832  41.371  0.00  0.00    +0.000 C 
ATOM     36  CD1 UNL     1     -62.960 -71.891  42.221  0.00  0.00    +0.000 C 
ATOM     37  CD2 UNL     1     -61.612 -73.076  40.480  0.00  0.00    +0.000 C 
ENDBRANCH  34  35
ENDBRANCH  21  34
ENDBRANCH   3  21
TORSDOF 15
ENDMDL
