MODEL 1
REMARK VINA RESULT:      -6.5      0.000      0.000
REMARK  Name = Monobenzone.pdbqt.pdb
REMARK  4 active torsions:
REMARK  status: ('A' for Active; 'I' for Inactive)
REMARK    1  A    between atoms: C_1  and  O_7
REMARK    2  A    between atoms: C_6  and  O_15
REMARK    3  A    between atoms: O_7  and  C_8
REMARK    4  A    between atoms: C_8  and  C_9
REMARK                            x       y       z     vdW  Elec       q    Type
REMARK                         _______ _______ _______ _____ _____    ______ ____
ROOT
ATOM      1  C   UNL     1     -60.592 -64.071  42.483  0.00  0.00    +0.000 A 
ATOM      2  C   UNL     1     -61.110 -63.467  43.632  0.00  0.00    +0.000 A 
ATOM      3  C   UNL     1     -59.827 -63.319  41.591  0.00  0.00    +0.000 A 
ATOM      4  C   UNL     1     -60.864 -62.120  43.887  0.00  0.00    +0.000 A 
ATOM      5  C   UNL     1     -59.579 -61.972  41.841  0.00  0.00    +0.000 A 
ATOM      6  C   UNL     1     -60.099 -61.383  42.989  0.00  0.00    +0.000 A 
ENDROOT
BRANCH   6   7
ATOM      7  O   UNL     1     -59.843 -60.062  43.214  0.00  0.00    +0.000 OA
ATOM      8  H   UNL     1     -59.932 -59.586  42.371  0.00  0.00    +0.000 HD
ENDBRANCH   6   7
BRANCH   1   9
ATOM      9  O   UNL     1     -60.780 -65.389  42.147  0.00  0.00    +0.000 OA
BRANCH   9  10
ATOM     10  C   UNL     1     -61.402 -65.587  40.987  0.00  0.00    +0.000 C 
BRANCH  10  11
ATOM     11  C   UNL     1     -62.077 -65.811  39.751  0.00  0.00    +0.000 A 
ATOM     12  C   UNL     1     -62.157 -67.099  39.228  0.00  0.00    +0.000 A 
ATOM     13  C   UNL     1     -62.812 -67.317  38.018  0.00  0.00    +0.000 A 
ATOM     14  C   UNL     1     -63.385 -66.247  37.334  0.00  0.00    +0.000 A 
ATOM     15  C   UNL     1     -63.305 -64.959  37.860  0.00  0.00    +0.000 A 
ATOM     16  C   UNL     1     -62.651 -64.740  39.069  0.00  0.00    +0.000 A 
ENDBRANCH  10  11
ENDBRANCH   9  10
ENDBRANCH   1   9
TORSDOF 4
ENDMDL
MODEL 2
REMARK VINA RESULT:      -6.0      2.219      5.949
REMARK  Name = Monobenzone.pdbqt.pdb
REMARK  4 active torsions:
REMARK  status: ('A' for Active; 'I' for Inactive)
REMARK    1  A    between atoms: C_1  and  O_7
REMARK    2  A    between atoms: C_6  and  O_15
REMARK    3  A    between atoms: O_7  and  C_8
REMARK    4  A    between atoms: C_8  and  C_9
REMARK                            x       y       z     vdW  Elec       q    Type
REMARK                         _______ _______ _______ _____ _____    ______ ____
ROOT
ATOM      1  C   UNL     1     -61.691 -65.353  39.886  0.00  0.00    +0.000 A 
ATOM      2  C   UNL     1     -62.440 -65.462  38.712  0.00  0.00    +0.000 A 
ATOM      3  C   UNL     1     -62.340 -65.144  41.104  0.00  0.00    +0.000 A 
ATOM      4  C   UNL     1     -63.828 -65.364  38.754  0.00  0.00    +0.000 A 
ATOM      5  C   UNL     1     -63.728 -65.045  41.151  0.00  0.00    +0.000 A 
ATOM      6  C   UNL     1     -64.462 -65.156  39.974  0.00  0.00    +0.000 A 
ENDROOT
BRANCH   6   7
ATOM      7  O   UNL     1     -65.820 -65.057  40.045  0.00  0.00    +0.000 OA
ATOM      8  H   UNL     1     -66.081 -64.187  39.697  0.00  0.00    +0.000 HD
ENDBRANCH   6   7
BRANCH   1   9
ATOM      9  O   UNL     1     -60.322 -65.436  39.945  0.00  0.00    +0.000 OA
BRANCH   9  10
ATOM     10  C   UNL     1     -59.723 -64.396  40.520  0.00  0.00    +0.000 C 
BRANCH  10  11
ATOM     11  C   UNL     1     -59.089 -63.271  41.126  0.00  0.00    +0.000 A 
ATOM     12  C   UNL     1     -57.760 -62.979  40.827  0.00  0.00    +0.000 A 
ATOM     13  C   UNL     1     -57.140 -61.883  41.424  0.00  0.00    +0.000 A 
ATOM     14  C   UNL     1     -57.848 -61.084  42.317  0.00  0.00    +0.000 A 
ATOM     15  C   UNL     1     -59.178 -61.377  42.614  0.00  0.00    +0.000 A 
ATOM     16  C   UNL     1     -59.799 -62.472  42.019  0.00  0.00    +0.000 A 
ENDBRANCH  10  11
ENDBRANCH   9  10
ENDBRANCH   1   9
TORSDOF 4
ENDMDL
MODEL 3
REMARK VINA RESULT:      -5.6     13.525     15.838
REMARK  Name = Monobenzone.pdbqt.pdb
REMARK  4 active torsions:
REMARK  status: ('A' for Active; 'I' for Inactive)
REMARK    1  A    between atoms: C_1  and  O_7
REMARK    2  A    between atoms: C_6  and  O_15
REMARK    3  A    between atoms: O_7  and  C_8
REMARK    4  A    between atoms: C_8  and  C_9
REMARK                            x       y       z     vdW  Elec       q    Type
REMARK                         _______ _______ _______ _____ _____    ______ ____
ROOT
ATOM      1  C   UNL     1     -46.483 -62.096  38.002  0.00  0.00    +0.000 A 
ATOM      2  C   UNL     1     -46.309 -61.447  36.777  0.00  0.00    +0.000 A 
ATOM      3  C   UNL     1     -47.769 -62.264  38.519  0.00  0.00    +0.000 A 
ATOM      4  C   UNL     1     -47.411 -60.970  36.073  0.00  0.00    +0.000 A 
ATOM      5  C   UNL     1     -48.874 -61.787  37.819  0.00  0.00    +0.000 A 
ATOM      6  C   UNL     1     -48.686 -61.144  36.600  0.00  0.00    +0.000 A 
ENDROOT
BRANCH   6   7
ATOM      7  O   UNL     1     -49.784 -60.687  35.932  0.00  0.00    +0.000 OA
ATOM      8  H   UNL     1     -50.559 -61.187  36.239  0.00  0.00    +0.000 HD
ENDBRANCH   6   7
BRANCH   1   9
ATOM      9  O   UNL     1     -45.461 -62.599  38.767  0.00  0.00    +0.000 OA
BRANCH   9  10
ATOM     10  C   UNL     1     -45.625 -62.464  40.080  0.00  0.00    +0.000 C 
BRANCH  10  11
ATOM     11  C   UNL     1     -45.818 -62.321  41.486  0.00  0.00    +0.000 A 
ATOM     12  C   UNL     1     -45.192 -63.202  42.365  0.00  0.00    +0.000 A 
ATOM     13  C   UNL     1     -45.384 -63.066  43.738  0.00  0.00    +0.000 A 
ATOM     14  C   UNL     1     -46.201 -62.050  44.229  0.00  0.00    +0.000 A 
ATOM     15  C   UNL     1     -46.826 -61.169  43.348  0.00  0.00    +0.000 A 
ATOM     16  C   UNL     1     -46.635 -61.304  41.976  0.00  0.00    +0.000 A 
ENDBRANCH  10  11
ENDBRANCH   9  10
ENDBRANCH   1   9
TORSDOF 4
ENDMDL
MODEL 4
REMARK VINA RESULT:      -5.5     33.106     34.858
REMARK  Name = Monobenzone.pdbqt.pdb
REMARK  4 active torsions:
REMARK  status: ('A' for Active; 'I' for Inactive)
REMARK    1  A    between atoms: C_1  and  O_7
REMARK    2  A    between atoms: C_6  and  O_15
REMARK    3  A    between atoms: O_7  and  C_8
REMARK    4  A    between atoms: C_8  and  C_9
REMARK                            x       y       z     vdW  Elec       q    Type
REMARK                         _______ _______ _______ _____ _____    ______ ____
ROOT
ATOM      1  C   UNL     1     -33.328 -50.245  53.138  0.00  0.00    +0.000 A 
ATOM      2  C   UNL     1     -34.600 -49.706  53.343  0.00  0.00    +0.000 A 
ATOM      3  C   UNL     1     -32.229 -49.394  53.005  0.00  0.00    +0.000 A 
ATOM      4  C   UNL     1     -34.774 -48.326  53.416  0.00  0.00    +0.000 A 
ATOM      5  C   UNL     1     -32.398 -48.014  53.076  0.00  0.00    +0.000 A 
ATOM      6  C   UNL     1     -33.671 -47.491  53.281  0.00  0.00    +0.000 A 
ENDROOT
BRANCH   6   7
ATOM      7  O   UNL     1     -33.812 -46.135  53.347  0.00  0.00    +0.000 OA
ATOM      8  H   UNL     1     -34.760 -45.924  53.298  0.00  0.00    +0.000 HD
ENDBRANCH   6   7
BRANCH   1   9
ATOM      9  O   UNL     1     -33.057 -51.588  53.054  0.00  0.00    +0.000 OA
BRANCH   9  10
ATOM     10  C   UNL     1     -32.518 -52.120  54.148  0.00  0.00    +0.000 C 
BRANCH  10  11
ATOM     11  C   UNL     1     -31.949 -52.681  55.329  0.00  0.00    +0.000 A 
ATOM     12  C   UNL     1     -32.598 -52.526  56.552  0.00  0.00    +0.000 A 
ATOM     13  C   UNL     1     -32.039 -53.069  57.707  0.00  0.00    +0.000 A 
ATOM     14  C   UNL     1     -30.835 -53.765  57.637  0.00  0.00    +0.000 A 
ATOM     15  C   UNL     1     -30.188 -53.918  56.413  0.00  0.00    +0.000 A 
ATOM     16  C   UNL     1     -30.744 -53.376  55.257  0.00  0.00    +0.000 A 
ENDBRANCH  10  11
ENDBRANCH   9  10
ENDBRANCH   1   9
TORSDOF 4
ENDMDL
MODEL 5
REMARK VINA RESULT:      -5.2     21.064     22.556
REMARK  Name = Monobenzone.pdbqt.pdb
REMARK  4 active torsions:
REMARK  status: ('A' for Active; 'I' for Inactive)
REMARK    1  A    between atoms: C_1  and  O_7
REMARK    2  A    between atoms: C_6  and  O_15
REMARK    3  A    between atoms: O_7  and  C_8
REMARK    4  A    between atoms: C_8  and  C_9
REMARK                            x       y       z     vdW  Elec       q    Type
REMARK                         _______ _______ _______ _____ _____    ______ ____
ROOT
ATOM      1  C   UNL     1     -46.443 -51.042  32.608  0.00  0.00    +0.000 A 
ATOM      2  C   UNL     1     -46.329 -50.409  31.368  0.00  0.00    +0.000 A 
ATOM      3  C   UNL     1     -46.643 -50.278  33.758  0.00  0.00    +0.000 A 
ATOM      4  C   UNL     1     -46.416 -49.023  31.277  0.00  0.00    +0.000 A 
ATOM      5  C   UNL     1     -46.730 -48.891  33.674  0.00  0.00    +0.000 A 
ATOM      6  C   UNL     1     -46.616 -48.274  32.432  0.00  0.00    +0.000 A 
ENDROOT
BRANCH   6   7
ATOM      7  O   UNL     1     -46.705 -46.914  32.373  0.00  0.00    +0.000 OA
ATOM      8  H   UNL     1     -45.858 -46.539  32.669  0.00  0.00    +0.000 HD
ENDBRANCH   6   7
BRANCH   1   9
ATOM      9  O   UNL     1     -46.371 -52.400  32.796  0.00  0.00    +0.000 OA
BRANCH   9  10
ATOM     10  C   UNL     1     -45.254 -52.825  33.383  0.00  0.00    +0.000 C 
BRANCH  10  11
ATOM     11  C   UNL     1     -44.052 -53.285  33.997  0.00  0.00    +0.000 A 
ATOM     12  C   UNL     1     -42.841 -52.663  33.703  0.00  0.00    +0.000 A 
ATOM     13  C   UNL     1     -41.666 -53.116  34.299  0.00  0.00    +0.000 A 
ATOM     14  C   UNL     1     -41.705 -54.189  35.187  0.00  0.00    +0.000 A 
ATOM     15  C   UNL     1     -42.918 -54.809  35.480  0.00  0.00    +0.000 A 
ATOM     16  C   UNL     1     -44.093 -54.357  34.886  0.00  0.00    +0.000 A 
ENDBRANCH  10  11
ENDBRANCH   9  10
ENDBRANCH   1   9
TORSDOF 4
ENDMDL
MODEL 6
REMARK VINA RESULT:      -4.9     15.284     15.995
REMARK  Name = Monobenzone.pdbqt.pdb
REMARK  4 active torsions:
REMARK  status: ('A' for Active; 'I' for Inactive)
REMARK    1  A    between atoms: C_1  and  O_7
REMARK    2  A    between atoms: C_6  and  O_15
REMARK    3  A    between atoms: O_7  and  C_8
REMARK    4  A    between atoms: C_8  and  C_9
REMARK                            x       y       z     vdW  Elec       q    Type
REMARK                         _______ _______ _______ _____ _____    ______ ____
ROOT
ATOM      1  C   UNL     1     -47.290 -62.660  32.793  0.00  0.00    +0.000 A 
ATOM      2  C   UNL     1     -47.825 -63.171  33.977  0.00  0.00    +0.000 A 
ATOM      3  C   UNL     1     -47.274 -61.281  32.580  0.00  0.00    +0.000 A 
ATOM      4  C   UNL     1     -48.341 -62.311  34.943  0.00  0.00    +0.000 A 
ATOM      5  C   UNL     1     -47.789 -60.416  33.542  0.00  0.00    +0.000 A 
ATOM      6  C   UNL     1     -48.318 -60.939  34.717  0.00  0.00    +0.000 A 
ENDROOT
BRANCH   6   7
ATOM      7  O   UNL     1     -48.817 -60.072  35.645  0.00  0.00    +0.000 OA
ATOM      8  H   UNL     1     -48.508 -59.177  35.425  0.00  0.00    +0.000 HD
ENDBRANCH   6   7
BRANCH   1   9
ATOM      9  O   UNL     1     -46.759 -63.427  31.785  0.00  0.00    +0.000 OA
BRANCH   9  10
ATOM     10  C   UNL     1     -47.100 -64.713  31.824  0.00  0.00    +0.000 C 
BRANCH  10  11
ATOM     11  C   UNL     1     -47.480 -66.087  31.862  0.00  0.00    +0.000 A 
ATOM     12  C   UNL     1     -46.672 -67.012  32.519  0.00  0.00    +0.000 A 
ATOM     13  C   UNL     1     -47.041 -68.355  32.552  0.00  0.00    +0.000 A 
ATOM     14  C   UNL     1     -48.216 -68.770  31.930  0.00  0.00    +0.000 A 
ATOM     15  C   UNL     1     -49.023 -67.842  31.274  0.00  0.00    +0.000 A 
ATOM     16  C   UNL     1     -48.656 -66.500  31.240  0.00  0.00    +0.000 A 
ENDBRANCH  10  11
ENDBRANCH   9  10
ENDBRANCH   1   9
TORSDOF 4
ENDMDL
MODEL 7
REMARK VINA RESULT:      -4.8     33.666     35.020
REMARK  Name = Monobenzone.pdbqt.pdb
REMARK  4 active torsions:
REMARK  status: ('A' for Active; 'I' for Inactive)
REMARK    1  A    between atoms: C_1  and  O_7
REMARK    2  A    between atoms: C_6  and  O_15
REMARK    3  A    between atoms: O_7  and  C_8
REMARK    4  A    between atoms: C_8  and  C_9
REMARK                            x       y       z     vdW  Elec       q    Type
REMARK                         _______ _______ _______ _____ _____    ______ ____
ROOT
ATOM      1  C   UNL     1     -32.639 -51.196  52.300  0.00  0.00    +0.000 A 
ATOM      2  C   UNL     1     -33.230 -50.050  52.839  0.00  0.00    +0.000 A 
ATOM      3  C   UNL     1     -32.050 -51.139  51.035  0.00  0.00    +0.000 A 
ATOM      4  C   UNL     1     -33.232 -48.857  52.121  0.00  0.00    +0.000 A 
ATOM      5  C   UNL     1     -32.050 -49.949  50.313  0.00  0.00    +0.000 A 
ATOM      6  C   UNL     1     -32.642 -48.816  50.863  0.00  0.00    +0.000 A 
ENDROOT
BRANCH   6   7
ATOM      7  O   UNL     1     -32.629 -47.661  50.137  0.00  0.00    +0.000 OA
ATOM      8  H   UNL     1     -32.750 -46.915  50.749  0.00  0.00    +0.000 HD
ENDBRANCH   6   7
BRANCH   1   9
ATOM      9  O   UNL     1     -32.587 -52.414  52.930  0.00  0.00    +0.000 OA
BRANCH   9  10
ATOM     10  C   UNL     1     -32.156 -52.374  54.188  0.00  0.00    +0.000 C 
BRANCH  10  11
ATOM     11  C   UNL     1     -31.708 -52.339  55.542  0.00  0.00    +0.000 A 
ATOM     12  C   UNL     1     -30.460 -51.798  55.845  0.00  0.00    +0.000 A 
ATOM     13  C   UNL     1     -30.020 -51.770  57.167  0.00  0.00    +0.000 A 
ATOM     14  C   UNL     1     -30.827 -52.281  58.180  0.00  0.00    +0.000 A 
ATOM     15  C   UNL     1     -32.074 -52.821  57.875  0.00  0.00    +0.000 A 
ATOM     16  C   UNL     1     -32.516 -52.851  56.555  0.00  0.00    +0.000 A 
ENDBRANCH  10  11
ENDBRANCH   9  10
ENDBRANCH   1   9
TORSDOF 4
ENDMDL
MODEL 8
REMARK VINA RESULT:      -4.8     33.492     35.375
REMARK  Name = Monobenzone.pdbqt.pdb
REMARK  4 active torsions:
REMARK  status: ('A' for Active; 'I' for Inactive)
REMARK    1  A    between atoms: C_1  and  O_7
REMARK    2  A    between atoms: C_6  and  O_15
REMARK    3  A    between atoms: O_7  and  C_8
REMARK    4  A    between atoms: C_8  and  C_9
REMARK                            x       y       z     vdW  Elec       q    Type
REMARK                         _______ _______ _______ _____ _____    ______ ____
ROOT
ATOM      1  C   UNL     1     -32.068 -53.397  53.246  0.00  0.00    +0.000 A 
ATOM      2  C   UNL     1     -31.529 -53.516  51.963  0.00  0.00    +0.000 A 
ATOM      3  C   UNL     1     -32.785 -52.251  53.591  0.00  0.00    +0.000 A 
ATOM      4  C   UNL     1     -31.706 -52.497  51.030  0.00  0.00    +0.000 A 
ATOM      5  C   UNL     1     -32.965 -51.229  52.663  0.00  0.00    +0.000 A 
ATOM      6  C   UNL     1     -32.423 -51.361  51.389  0.00  0.00    +0.000 A 
ENDROOT
BRANCH   6   7
ATOM      7  O   UNL     1     -32.612 -50.347  50.495  0.00  0.00    +0.000 OA
ATOM      8  H   UNL     1     -32.824 -49.538  50.992  0.00  0.00    +0.000 HD
ENDBRANCH   6   7
BRANCH   1   9
ATOM      9  O   UNL     1     -31.946 -54.346  54.231  0.00  0.00    +0.000 OA
BRANCH   9  10
ATOM     10  C   UNL     1     -31.414 -53.907  55.368  0.00  0.00    +0.000 C 
BRANCH  10  11
ATOM     11  C   UNL     1     -30.833 -53.447  56.587  0.00  0.00    +0.000 A 
ATOM     12  C   UNL     1     -30.307 -54.365  57.493  0.00  0.00    +0.000 A 
ATOM     13  C   UNL     1     -29.744 -53.916  58.686  0.00  0.00    +0.000 A 
ATOM     14  C   UNL     1     -29.708 -52.553  58.970  0.00  0.00    +0.000 A 
ATOM     15  C   UNL     1     -30.235 -51.637  58.061  0.00  0.00    +0.000 A 
ATOM     16  C   UNL     1     -30.798 -52.084  56.869  0.00  0.00    +0.000 A 
ENDBRANCH  10  11
ENDBRANCH   9  10
ENDBRANCH   1   9
TORSDOF 4
ENDMDL
MODEL 9
REMARK VINA RESULT:      -4.8     16.110     17.119
REMARK  Name = Monobenzone.pdbqt.pdb
REMARK  4 active torsions:
REMARK  status: ('A' for Active; 'I' for Inactive)
REMARK    1  A    between atoms: C_1  and  O_7
REMARK    2  A    between atoms: C_6  and  O_15
REMARK    3  A    between atoms: O_7  and  C_8
REMARK    4  A    between atoms: C_8  and  C_9
REMARK                            x       y       z     vdW  Elec       q    Type
REMARK                         _______ _______ _______ _____ _____    ______ ____
ROOT
ATOM      1  C   UNL     1     -46.413 -60.960  34.090  0.00  0.00    +0.000 A 
ATOM      2  C   UNL     1     -46.151 -59.952  35.022  0.00  0.00    +0.000 A 
ATOM      3  C   UNL     1     -47.698 -61.498  33.997  0.00  0.00    +0.000 A 
ATOM      4  C   UNL     1     -47.164 -59.484  35.854  0.00  0.00    +0.000 A 
ATOM      5  C   UNL     1     -48.715 -61.034  34.828  0.00  0.00    +0.000 A 
ATOM      6  C   UNL     1     -48.440 -60.029  35.750  0.00  0.00    +0.000 A 
ENDROOT
BRANCH   6   7
ATOM      7  O   UNL     1     -49.452 -59.590  36.552  0.00  0.00    +0.000 OA
ATOM      8  H   UNL     1     -49.238 -58.688  36.848  0.00  0.00    +0.000 HD
ENDBRANCH   6   7
BRANCH   1   9
ATOM      9  O   UNL     1     -45.482 -61.484  33.229  0.00  0.00    +0.000 OA
BRANCH   9  10
ATOM     10  C   UNL     1     -45.886 -61.591  31.966  0.00  0.00    +0.000 C 
BRANCH  10  11
ATOM     11  C   UNL     1     -46.307 -61.717  30.609  0.00  0.00    +0.000 A 
ATOM     12  C   UNL     1     -46.186 -62.942  29.957  0.00  0.00    +0.000 A 
ATOM     13  C   UNL     1     -46.593 -63.064  28.630  0.00  0.00    +0.000 A 
ATOM     14  C   UNL     1     -47.120 -61.962  27.960  0.00  0.00    +0.000 A 
ATOM     15  C   UNL     1     -47.241 -60.739  28.615  0.00  0.00    +0.000 A 
ATOM     16  C   UNL     1     -46.835 -60.615  29.941  0.00  0.00    +0.000 A 
ENDBRANCH  10  11
ENDBRANCH   9  10
ENDBRANCH   1   9
TORSDOF 4
ENDMDL
