MODEL 1
REMARK VINA RESULT:      -7.3      0.000      0.000
REMARK  Name = 
REMARK  5 active torsions:
REMARK  status: ('A' for Active; 'I' for Inactive)
REMARK    1  A    between atoms: O_4  and  C_15
REMARK    2  A    between atoms: C_6  and  C_13
REMARK    3  A    between atoms: C_7  and  C_12
REMARK    4  A    between atoms: C_8  and  C_14
REMARK    5  A    between atoms: C_12  and  C_15
REMARK                            x       y       z     vdW  Elec       q    Type
REMARK                         _______ _______ _______ _____ _____    ______ ____
ROOT
ATOM      1  C   UNL     1     -48.649 -60.242  44.899  0.00  0.00    +0.000 A 
ATOM      2  C   UNL     1     -49.999 -59.130  43.183  0.00  0.00    +0.000 A 
ATOM      3  C   UNL     1     -47.613 -60.428  43.959  0.00  0.00    +0.000 A 
ATOM      4  C   UNL     1     -49.833 -59.593  44.495  0.00  0.00    +0.000 A 
ATOM      5  C   UNL     1     -48.970 -59.331  42.259  0.00  0.00    +0.000 A 
ATOM      6  C   UNL     1     -47.790 -59.970  42.644  0.00  0.00    +0.000 A 
ATOM      7  C   UNL     1     -46.328 -61.119  44.328  0.00  0.00    +0.000 C 
ENDROOT
BRANCH   1  11
ATOM      8  F   UNL     1     -49.703 -61.143  46.854  0.00  0.00    +0.000 F 
ATOM      9  F   UNL     1     -47.665 -61.780  46.472  0.00  0.00    +0.000 F 
ATOM     10  F   UNL     1     -48.052 -59.762  47.173  0.00  0.00    +0.000 F 
ATOM     11  C   UNL     1     -48.517 -60.724  46.329  0.00  0.00    +0.000 C 
ENDBRANCH   1  11
BRANCH   2  12
ATOM     12  C   UNL     1     -51.283 -58.452  42.764  0.00  0.00    +0.000 C 
BRANCH  12  14
ATOM     13  O   UNL     1     -52.892 -60.238  42.243  0.00  0.00    +0.000 OA
ATOM     14  C   UNL     1     -52.175 -59.312  41.903  0.00  0.00    +0.000 C 
BRANCH  14  15
ATOM     15  O   UNL     1     -52.133 -58.935  40.606  0.00  0.00    +0.000 OA
ATOM     16  H   UNL     1     -51.310 -59.351  40.270  0.00  0.00    +0.000 HD
ENDBRANCH  14  15
ENDBRANCH  12  14
ENDBRANCH   2  12
TORSDOF 4
ENDMDL
MODEL 2
REMARK VINA RESULT:      -7.3      2.017      2.868
REMARK  Name = 
REMARK  5 active torsions:
REMARK  status: ('A' for Active; 'I' for Inactive)
REMARK    1  A    between atoms: O_4  and  C_15
REMARK    2  A    between atoms: C_6  and  C_13
REMARK    3  A    between atoms: C_7  and  C_12
REMARK    4  A    between atoms: C_8  and  C_14
REMARK    5  A    between atoms: C_12  and  C_15
REMARK                            x       y       z     vdW  Elec       q    Type
REMARK                         _______ _______ _______ _____ _____    ______ ____
ROOT
ATOM      1  C   UNL     1     -48.291 -60.533  44.047  0.00  0.00    +0.000 A 
ATOM      2  C   UNL     1     -50.057 -59.682  42.577  0.00  0.00    +0.000 A 
ATOM      3  C   UNL     1     -48.983 -60.025  45.167  0.00  0.00    +0.000 A 
ATOM      4  C   UNL     1     -48.841 -60.352  42.762  0.00  0.00    +0.000 A 
ATOM      5  C   UNL     1     -50.725 -59.173  43.694  0.00  0.00    +0.000 A 
ATOM      6  C   UNL     1     -50.195 -59.345  44.974  0.00  0.00    +0.000 A 
ATOM      7  C   UNL     1     -48.444 -60.181  46.564  0.00  0.00    +0.000 C 
ENDROOT
BRANCH   1  11
ATOM      8  F   UNL     1     -46.090 -60.602  44.993  0.00  0.00    +0.000 F 
ATOM      9  F   UNL     1     -47.099 -62.507  44.748  0.00  0.00    +0.000 F 
ATOM     10  F   UNL     1     -46.335 -61.458  43.007  0.00  0.00    +0.000 F 
ATOM     11  C   UNL     1     -46.974 -61.266  44.195  0.00  0.00    +0.000 C 
ENDBRANCH   1  11
BRANCH   2  12
ATOM     12  C   UNL     1     -50.621 -59.482  41.190  0.00  0.00    +0.000 C 
BRANCH  12  14
ATOM     13  O   UNL     1     -50.064 -57.086  41.162  0.00  0.00    +0.000 OA
ATOM     14  C   UNL     1     -50.302 -58.135  40.588  0.00  0.00    +0.000 C 
BRANCH  14  15
ATOM     15  O   UNL     1     -50.277 -58.184  39.238  0.00  0.00    +0.000 OA
ATOM     16  H   UNL     1     -49.476 -57.668  39.002  0.00  0.00    +0.000 HD
ENDBRANCH  14  15
ENDBRANCH  12  14
ENDBRANCH   2  12
TORSDOF 4
ENDMDL
MODEL 3
REMARK VINA RESULT:      -6.8      2.757      3.488
REMARK  Name = 
REMARK  5 active torsions:
REMARK  status: ('A' for Active; 'I' for Inactive)
REMARK    1  A    between atoms: O_4  and  C_15
REMARK    2  A    between atoms: C_6  and  C_13
REMARK    3  A    between atoms: C_7  and  C_12
REMARK    4  A    between atoms: C_8  and  C_14
REMARK    5  A    between atoms: C_12  and  C_15
REMARK                            x       y       z     vdW  Elec       q    Type
REMARK                         _______ _______ _______ _____ _____    ______ ____
ROOT
ATOM      1  C   UNL     1     -47.630 -61.321  43.344  0.00  0.00    +0.000 A 
ATOM      2  C   UNL     1     -49.315 -60.013  44.549  0.00  0.00    +0.000 A 
ATOM      3  C   UNL     1     -47.040 -61.687  44.573  0.00  0.00    +0.000 A 
ATOM      4  C   UNL     1     -48.763 -60.484  43.350  0.00  0.00    +0.000 A 
ATOM      5  C   UNL     1     -48.715 -60.374  45.758  0.00  0.00    +0.000 A 
ATOM      6  C   UNL     1     -47.592 -61.204  45.769  0.00  0.00    +0.000 A 
ATOM      7  C   UNL     1     -45.825 -62.573  44.631  0.00  0.00    +0.000 C 
ENDROOT
BRANCH   1  11
ATOM      8  F   UNL     1     -45.782 -61.410  41.820  0.00  0.00    +0.000 F 
ATOM      9  F   UNL     1     -47.056 -63.163  41.901  0.00  0.00    +0.000 F 
ATOM     10  F   UNL     1     -47.775 -61.350  40.948  0.00  0.00    +0.000 F 
ATOM     11  C   UNL     1     -47.071 -61.805  42.022  0.00  0.00    +0.000 C 
ENDBRANCH   1  11
BRANCH   2  12
ATOM     12  C   UNL     1     -50.520 -59.102  44.534  0.00  0.00    +0.000 C 
BRANCH  12  14
ATOM     13  O   UNL     1     -51.917 -59.787  42.629  0.00  0.00    +0.000 OA
ATOM     14  C   UNL     1     -51.184 -58.986  43.184  0.00  0.00    +0.000 C 
BRANCH  14  15
ATOM     15  O   UNL     1     -50.894 -57.811  42.583  0.00  0.00    +0.000 OA
ATOM     16  H   UNL     1     -50.492 -58.080  41.729  0.00  0.00    +0.000 HD
ENDBRANCH  14  15
ENDBRANCH  12  14
ENDBRANCH   2  12
TORSDOF 4
ENDMDL
MODEL 4
REMARK VINA RESULT:      -5.9      4.598      5.719
REMARK  Name = 
REMARK  5 active torsions:
REMARK  status: ('A' for Active; 'I' for Inactive)
REMARK    1  A    between atoms: O_4  and  C_15
REMARK    2  A    between atoms: C_6  and  C_13
REMARK    3  A    between atoms: C_7  and  C_12
REMARK    4  A    between atoms: C_8  and  C_14
REMARK    5  A    between atoms: C_12  and  C_15
REMARK                            x       y       z     vdW  Elec       q    Type
REMARK                         _______ _______ _______ _____ _____    ______ ____
ROOT
ATOM      1  C   UNL     1     -46.390 -62.375  41.685  0.00  0.00    +0.000 A 
ATOM      2  C   UNL     1     -47.027 -61.332  43.809  0.00  0.00    +0.000 A 
ATOM      3  C   UNL     1     -45.448 -63.177  42.365  0.00  0.00    +0.000 A 
ATOM      4  C   UNL     1     -47.168 -61.460  42.421  0.00  0.00    +0.000 A 
ATOM      5  C   UNL     1     -46.083 -62.124  44.468  0.00  0.00    +0.000 A 
ATOM      6  C   UNL     1     -45.305 -63.037  43.754  0.00  0.00    +0.000 A 
ATOM      7  C   UNL     1     -44.583 -64.169  41.635  0.00  0.00    +0.000 C 
ENDROOT
BRANCH   1  11
ATOM      8  F   UNL     1     -45.503 -62.017  39.487  0.00  0.00    +0.000 F 
ATOM      9  F   UNL     1     -46.779 -63.752  39.746  0.00  0.00    +0.000 F 
ATOM     10  F   UNL     1     -47.650 -61.764  39.737  0.00  0.00    +0.000 F 
ATOM     11  C   UNL     1     -46.580 -62.477  40.186  0.00  0.00    +0.000 C 
ENDBRANCH   1  11
BRANCH   2  12
ATOM     12  C   UNL     1     -47.858 -60.332  44.577  0.00  0.00    +0.000 C 
BRANCH  12  14
ATOM     13  O   UNL     1     -48.788 -61.932  46.197  0.00  0.00    +0.000 OA
ATOM     14  C   UNL     1     -48.336 -60.835  45.917  0.00  0.00    +0.000 C 
BRANCH  14  15
ATOM     15  O   UNL     1     -48.197 -59.899  46.881  0.00  0.00    +0.000 OA
ATOM     16  H   UNL     1     -47.274 -59.585  46.768  0.00  0.00    +0.000 HD
ENDBRANCH  14  15
ENDBRANCH  12  14
ENDBRANCH   2  12
TORSDOF 4
ENDMDL
MODEL 5
REMARK VINA RESULT:      -5.5     20.660     21.891
REMARK  Name = 
REMARK  5 active torsions:
REMARK  status: ('A' for Active; 'I' for Inactive)
REMARK    1  A    between atoms: O_4  and  C_15
REMARK    2  A    between atoms: C_6  and  C_13
REMARK    3  A    between atoms: C_7  and  C_12
REMARK    4  A    between atoms: C_8  and  C_14
REMARK    5  A    between atoms: C_12  and  C_15
REMARK                            x       y       z     vdW  Elec       q    Type
REMARK                         _______ _______ _______ _____ _____    ______ ____
ROOT
ATOM      1  C   UNL     1     -33.021 -50.213  53.383  0.00  0.00    +0.000 A 
ATOM      2  C   UNL     1     -31.949 -52.366  53.852  0.00  0.00    +0.000 A 
ATOM      3  C   UNL     1     -31.752 -49.596  53.329  0.00  0.00    +0.000 A 
ATOM      4  C   UNL     1     -33.100 -51.595  53.646  0.00  0.00    +0.000 A 
ATOM      5  C   UNL     1     -30.700 -51.740  53.806  0.00  0.00    +0.000 A 
ATOM      6  C   UNL     1     -30.603 -50.372  53.545  0.00  0.00    +0.000 A 
ATOM      7  C   UNL     1     -31.603 -48.124  53.058  0.00  0.00    +0.000 C 
ENDROOT
BRANCH   1  11
ATOM      8  F   UNL     1     -34.453 -48.421  54.078  0.00  0.00    +0.000 F 
ATOM      9  F   UNL     1     -34.361 -48.816  51.947  0.00  0.00    +0.000 F 
ATOM     10  F   UNL     1     -35.417 -50.190  53.255  0.00  0.00    +0.000 F 
ATOM     11  C   UNL     1     -34.295 -49.423  53.167  0.00  0.00    +0.000 C 
ENDBRANCH   1  11
BRANCH   2  12
ATOM     12  C   UNL     1     -32.056 -53.843  54.150  0.00  0.00    +0.000 C 
BRANCH  12  14
ATOM     13  O   UNL     1     -31.887 -53.596  56.592  0.00  0.00    +0.000 OA
ATOM     14  C   UNL     1     -32.326 -54.156  55.601  0.00  0.00    +0.000 C 
BRANCH  14  15
ATOM     15  O   UNL     1     -33.188 -55.187  55.738  0.00  0.00    +0.000 OA
ATOM     16  H   UNL     1     -32.854 -55.664  56.529  0.00  0.00    +0.000 HD
ENDBRANCH  14  15
ENDBRANCH  12  14
ENDBRANCH   2  12
TORSDOF 4
ENDMDL
MODEL 6
REMARK VINA RESULT:      -5.4     24.717     25.514
REMARK  Name = 
REMARK  5 active torsions:
REMARK  status: ('A' for Active; 'I' for Inactive)
REMARK    1  A    between atoms: O_4  and  C_15
REMARK    2  A    between atoms: C_6  and  C_13
REMARK    3  A    between atoms: C_7  and  C_12
REMARK    4  A    between atoms: C_8  and  C_14
REMARK    5  A    between atoms: C_12  and  C_15
REMARK                            x       y       z     vdW  Elec       q    Type
REMARK                         _______ _______ _______ _____ _____    ______ ____
ROOT
ATOM      1  C   UNL     1     -64.029 -41.136  52.850  0.00  0.00    +0.000 A 
ATOM      2  C   UNL     1     -64.728 -41.903  50.630  0.00  0.00    +0.000 A 
ATOM      3  C   UNL     1     -64.767 -42.185  53.441  0.00  0.00    +0.000 A 
ATOM      4  C   UNL     1     -64.022 -41.010  51.447  0.00  0.00    +0.000 A 
ATOM      5  C   UNL     1     -65.463 -42.930  51.229  0.00  0.00    +0.000 A 
ATOM      6  C   UNL     1     -65.480 -43.070  52.618  0.00  0.00    +0.000 A 
ATOM      7  C   UNL     1     -64.819 -42.368  54.934  0.00  0.00    +0.000 C 
ENDROOT
BRANCH   1  11
ATOM      8  F   UNL     1     -62.384 -40.754  54.550  0.00  0.00    +0.000 F 
ATOM      9  F   UNL     1     -62.486 -39.288  52.954  0.00  0.00    +0.000 F 
ATOM     10  F   UNL     1     -64.049 -39.356  54.459  0.00  0.00    +0.000 F 
ATOM     11  C   UNL     1     -63.250 -40.146  53.690  0.00  0.00    +0.000 C 
ENDBRANCH   1  11
BRANCH   2  12
ATOM     12  C   UNL     1     -64.722 -41.741  49.128  0.00  0.00    +0.000 C 
BRANCH  12  14
ATOM     13  O   UNL     1     -66.716 -40.303  49.230  0.00  0.00    +0.000 OA
ATOM     14  C   UNL     1     -65.850 -40.889  48.601  0.00  0.00    +0.000 C 
BRANCH  14  15
ATOM     15  O   UNL     1     -65.819 -40.796  47.253  0.00  0.00    +0.000 OA
ATOM     16  H   UNL     1     -66.461 -41.478  46.959  0.00  0.00    +0.000 HD
ENDBRANCH  14  15
ENDBRANCH  12  14
ENDBRANCH   2  12
TORSDOF 4
ENDMDL
MODEL 7
REMARK VINA RESULT:      -5.4     15.863     16.865
REMARK  Name = 
REMARK  5 active torsions:
REMARK  status: ('A' for Active; 'I' for Inactive)
REMARK    1  A    between atoms: O_4  and  C_15
REMARK    2  A    between atoms: C_6  and  C_13
REMARK    3  A    between atoms: C_7  and  C_12
REMARK    4  A    between atoms: C_8  and  C_14
REMARK    5  A    between atoms: C_12  and  C_15
REMARK                            x       y       z     vdW  Elec       q    Type
REMARK                         _______ _______ _______ _____ _____    ______ ____
ROOT
ATOM      1  C   UNL     1     -47.796 -67.301  30.368  0.00  0.00    +0.000 A 
ATOM      2  C   UNL     1     -46.849 -67.088  28.118  0.00  0.00    +0.000 A 
ATOM      3  C   UNL     1     -47.799 -65.895  30.496  0.00  0.00    +0.000 A 
ATOM      4  C   UNL     1     -47.318 -67.879  29.175  0.00  0.00    +0.000 A 
ATOM      5  C   UNL     1     -46.847 -65.698  28.263  0.00  0.00    +0.000 A 
ATOM      6  C   UNL     1     -47.319 -65.109  29.438  0.00  0.00    +0.000 A 
ATOM      7  C   UNL     1     -48.292 -65.219  31.747  0.00  0.00    +0.000 C 
ENDROOT
BRANCH   1  11
ATOM      8  F   UNL     1     -49.552 -67.875  31.895  0.00  0.00    +0.000 F 
ATOM      9  F   UNL     1     -48.355 -69.516  31.135  0.00  0.00    +0.000 F 
ATOM     10  F   UNL     1     -47.509 -68.149  32.594  0.00  0.00    +0.000 F 
ATOM     11  C   UNL     1     -48.294 -68.198  31.481  0.00  0.00    +0.000 C 
ENDBRANCH   1  11
BRANCH   2  12
ATOM     12  C   UNL     1     -46.323 -67.727  26.854  0.00  0.00    +0.000 C 
BRANCH  12  14
ATOM     13  O   UNL     1     -44.063 -68.561  27.354  0.00  0.00    +0.000 OA
ATOM     14  C   UNL     1     -45.239 -68.750  27.091  0.00  0.00    +0.000 C 
BRANCH  14  15
ATOM     15  O   UNL     1     -45.713 -70.011  27.001  0.00  0.00    +0.000 OA
ATOM     16  H   UNL     1     -45.188 -70.405  26.271  0.00  0.00    +0.000 HD
ENDBRANCH  14  15
ENDBRANCH  12  14
ENDBRANCH   2  12
TORSDOF 4
ENDMDL
MODEL 8
REMARK VINA RESULT:      -5.4      5.056      6.342
REMARK  Name = 
REMARK  5 active torsions:
REMARK  status: ('A' for Active; 'I' for Inactive)
REMARK    1  A    between atoms: O_4  and  C_15
REMARK    2  A    between atoms: C_6  and  C_13
REMARK    3  A    between atoms: C_7  and  C_12
REMARK    4  A    between atoms: C_8  and  C_14
REMARK    5  A    between atoms: C_12  and  C_15
REMARK                            x       y       z     vdW  Elec       q    Type
REMARK                         _______ _______ _______ _____ _____    ______ ____
ROOT
ATOM      1  C   UNL     1     -46.486 -62.685  40.365  0.00  0.00    +0.000 A 
ATOM      2  C   UNL     1     -46.478 -61.952  42.703  0.00  0.00    +0.000 A 
ATOM      3  C   UNL     1     -45.445 -63.596  40.650  0.00  0.00    +0.000 A 
ATOM      4  C   UNL     1     -46.988 -61.873  41.401  0.00  0.00    +0.000 A 
ATOM      5  C   UNL     1     -45.440 -62.850  42.969  0.00  0.00    +0.000 A 
ATOM      6  C   UNL     1     -44.932 -63.663  41.954  0.00  0.00    +0.000 A 
ATOM      7  C   UNL     1     -44.863 -64.486  39.585  0.00  0.00    +0.000 C 
ENDROOT
BRANCH   1  11
ATOM      8  F   UNL     1     -47.581 -63.740  38.513  0.00  0.00    +0.000 F 
ATOM      9  F   UNL     1     -48.096 -61.667  38.890  0.00  0.00    +0.000 F 
ATOM     10  F   UNL     1     -46.158 -62.162  38.046  0.00  0.00    +0.000 F 
ATOM     11  C   UNL     1     -47.071 -62.563  38.974  0.00  0.00    +0.000 C 
ENDBRANCH   1  11
BRANCH   2  12
ATOM     12  C   UNL     1     -47.017 -61.060  43.796  0.00  0.00    +0.000 C 
BRANCH  12  14
ATOM     13  O   UNL     1     -47.874 -62.067  45.870  0.00  0.00    +0.000 OA
ATOM     14  C   UNL     1     -48.013 -61.739  44.704  0.00  0.00    +0.000 C 
BRANCH  14  15
ATOM     15  O   UNL     1     -49.190 -61.961  44.079  0.00  0.00    +0.000 OA
ATOM     16  H   UNL     1     -49.736 -62.405  44.763  0.00  0.00    +0.000 HD
ENDBRANCH  14  15
ENDBRANCH  12  14
ENDBRANCH   2  12
TORSDOF 4
ENDMDL
MODEL 9
REMARK VINA RESULT:      -5.2     14.707     15.713
REMARK  Name = 
REMARK  5 active torsions:
REMARK  status: ('A' for Active; 'I' for Inactive)
REMARK    1  A    between atoms: O_4  and  C_15
REMARK    2  A    between atoms: C_6  and  C_13
REMARK    3  A    between atoms: C_7  and  C_12
REMARK    4  A    between atoms: C_8  and  C_14
REMARK    5  A    between atoms: C_12  and  C_15
REMARK                            x       y       z     vdW  Elec       q    Type
REMARK                         _______ _______ _______ _____ _____    ______ ____
ROOT
ATOM      1  C   UNL     1     -47.110 -64.617  29.733  0.00  0.00    +0.000 A 
ATOM      2  C   UNL     1     -48.335 -66.248  31.090  0.00  0.00    +0.000 A 
ATOM      3  C   UNL     1     -46.893 -63.827  30.883  0.00  0.00    +0.000 A 
ATOM      4  C   UNL     1     -47.832 -65.821  29.855  0.00  0.00    +0.000 A 
ATOM      5  C   UNL     1     -48.123 -65.450  32.219  0.00  0.00    +0.000 A 
ATOM      6  C   UNL     1     -47.408 -64.256  32.116  0.00  0.00    +0.000 A 
ATOM      7  C   UNL     1     -46.135 -62.529  30.816  0.00  0.00    +0.000 C 
ENDROOT
BRANCH   1  11
ATOM      8  F   UNL     1     -47.240 -63.114  27.871  0.00  0.00    +0.000 F 
ATOM      9  F   UNL     1     -45.266 -63.855  28.381  0.00  0.00    +0.000 F 
ATOM     10  F   UNL     1     -46.704 -65.177  27.435  0.00  0.00    +0.000 F 
ATOM     11  C   UNL     1     -46.586 -64.198  28.375  0.00  0.00    +0.000 C 
ENDBRANCH   1  11
BRANCH   2  12
ATOM     12  C   UNL     1     -49.122 -67.532  31.198  0.00  0.00    +0.000 C 
BRANCH  12  14
ATOM     13  O   UNL     1     -47.890 -69.337  30.068  0.00  0.00    +0.000 OA
ATOM     14  C   UNL     1     -48.279 -68.778  31.080  0.00  0.00    +0.000 C 
BRANCH  14  15
ATOM     15  O   UNL     1     -47.937 -69.267  32.292  0.00  0.00    +0.000 OA
ATOM     16  H   UNL     1     -47.048 -69.656  32.142  0.00  0.00    +0.000 HD
ENDBRANCH  14  15
ENDBRANCH  12  14
ENDBRANCH   2  12
TORSDOF 4
ENDMDL
