MODEL 1
REMARK VINA RESULT:      -8.2      0.000      0.000
REMARK  Name = OTSSP167.pdbqt.pdb
REMARK  7 active torsions:
REMARK  status: ('A' for Active; 'I' for Inactive)
REMARK    1  A    between atoms: C_5  and  N_19
REMARK    2  A    between atoms: C_7  and  C_31
REMARK    3  A    between atoms: C_11  and  C_13
REMARK    4  A    between atoms: C_18  and  O_34
REMARK    5  A    between atoms: N_19  and  C_21
REMARK    6  A    between atoms: C_24  and  C_27
REMARK    7  A    between atoms: C_27  and  N_28
REMARK                            x       y       z     vdW  Elec       q    Type
REMARK                         _______ _______ _______ _____ _____    ______ ____
ROOT
ATOM      1  N   UNL     1     -61.366 -65.344  40.610  0.00  0.00    +0.000 NA
ATOM      2  N   UNL     1     -63.372 -66.541  37.800  0.00  0.00    +0.000 NA
ATOM      3  C   UNL     1     -62.098 -67.604  40.074  0.00  0.00    +0.000 A 
ATOM      4  C   UNL     1     -62.041 -66.210  39.812  0.00  0.00    +0.000 A 
ATOM      5  C   UNL     1     -62.799 -68.426  39.168  0.00  0.00    +0.000 A 
ATOM      6  C   UNL     1     -62.700 -65.750  38.652  0.00  0.00    +0.000 A 
ATOM      7  C   UNL     1     -63.407 -67.859  38.070  0.00  0.00    +0.000 A 
ATOM      8  C   UNL     1     -62.642 -64.395  38.382  0.00  0.00    +0.000 A 
ATOM      9  C   UNL     1     -61.333 -64.019  40.326  0.00  0.00    +0.000 A 
ATOM     10  C   UNL     1     -61.964 -63.510  39.208  0.00  0.00    +0.000 A 
ENDROOT
BRANCH   9  13
ATOM     11 CL   UNL     1     -61.336 -61.528  44.852  0.00  0.00    +0.000 Cl
ATOM     12 CL   UNL     1     -57.048 -61.374  41.493  0.00  0.00    +0.000 Cl
ATOM     13  C   UNL     1     -60.608 -63.174  41.277  0.00  0.00    +0.000 A 
ATOM     14  C   UNL     1     -59.315 -62.706  41.012  0.00  0.00    +0.000 A 
ATOM     15  C   UNL     1     -61.196 -62.789  42.489  0.00  0.00    +0.000 A 
ATOM     16  C   UNL     1     -60.529 -61.971  43.397  0.00  0.00    +0.000 A 
ATOM     17  C   UNL     1     -58.635 -61.891  41.917  0.00  0.00    +0.000 A 
ATOM     18  C   UNL     1     -59.241 -61.517  43.117  0.00  0.00    +0.000 A 
BRANCH  18  19
ATOM     19  O   UNL     1     -58.570 -60.713  44.000  0.00  0.00    +0.000 OA
ATOM     20  H   UNL     1     -59.198 -60.055  44.353  0.00  0.00    +0.000 HD
ENDBRANCH  18  19
ENDBRANCH   9  13
BRANCH   5  21
ATOM     21  C   UNL     1     -62.885 -69.878  39.310  0.00  0.00    +0.000 C 
ATOM     22  O   UNL     1     -61.988 -70.661  39.048  0.00  0.00    +0.000 OA
ATOM     23  C   UNL     1     -64.119 -70.603  39.754  0.00  0.00    +0.000 C 
ENDBRANCH   5  21
BRANCH   3  24
ATOM     24  N   UNL     1     -61.566 -68.196  41.265  0.00  0.00    +0.000 N 
ATOM     25  H   UNL     1     -62.243 -68.740  41.807  0.00  0.00    +0.000 HD
BRANCH  24  26
ATOM     26  C   UNL     1     -60.266 -68.526  41.529  0.00  0.00    +0.000 A 
ATOM     27  C   UNL     1     -59.243 -67.906  40.725  0.00  0.00    +0.000 A 
ATOM     28  C   UNL     1     -57.977 -68.600  40.162  0.00  0.00    +0.000 A 
ATOM     29  C   UNL     1     -57.642 -69.990  40.356  0.00  0.00    +0.000 A 
ATOM     30  C   UNL     1     -58.676 -70.620  41.138  0.00  0.00    +0.000 A 
ATOM     31  C   UNL     1     -59.940 -69.922  41.698  0.00  0.00    +0.000 A 
BRANCH  29  32
ATOM     32  C   UNL     1     -56.430 -70.602  39.967  0.00  0.00    +0.000 C 
BRANCH  32  33
ATOM     33  N   UNL     1     -55.173 -71.216  39.574  0.00  0.00    +0.000 NA
ATOM     34  C   UNL     1     -54.190 -70.152  39.449  0.00  0.00    +0.000 C 
ATOM     35  C   UNL     1     -55.363 -71.779  38.247  0.00  0.00    +0.000 C 
ENDBRANCH  32  33
ENDBRANCH  29  32
ENDBRANCH  24  26
ENDBRANCH   3  24
TORSDOF 7
ENDMDL
MODEL 2
REMARK VINA RESULT:      -7.6     15.076     18.780
REMARK  Name = OTSSP167.pdbqt.pdb
REMARK  7 active torsions:
REMARK  status: ('A' for Active; 'I' for Inactive)
REMARK    1  A    between atoms: C_5  and  N_19
REMARK    2  A    between atoms: C_7  and  C_31
REMARK    3  A    between atoms: C_11  and  C_13
REMARK    4  A    between atoms: C_18  and  O_34
REMARK    5  A    between atoms: N_19  and  C_21
REMARK    6  A    between atoms: C_24  and  C_27
REMARK    7  A    between atoms: C_27  and  N_28
REMARK                            x       y       z     vdW  Elec       q    Type
REMARK                         _______ _______ _______ _____ _____    ______ ____
ROOT
ATOM      1  N   UNL     1     -46.356 -65.007  28.129  0.00  0.00    +0.000 NA
ATOM      2  N   UNL     1     -46.462 -68.655  28.308  0.00  0.00    +0.000 NA
ATOM      3  C   UNL     1     -47.343 -66.451  29.823  0.00  0.00    +0.000 A 
ATOM      4  C   UNL     1     -46.647 -66.245  28.602  0.00  0.00    +0.000 A 
ATOM      5  C   UNL     1     -47.570 -67.777  30.246  0.00  0.00    +0.000 A 
ATOM      6  C   UNL     1     -46.234 -67.397  27.899  0.00  0.00    +0.000 A 
ATOM      7  C   UNL     1     -47.121 -68.822  29.469  0.00  0.00    +0.000 A 
ATOM      8  C   UNL     1     -45.546 -67.206  26.715  0.00  0.00    +0.000 A 
ATOM      9  C   UNL     1     -45.688 -64.850  26.960  0.00  0.00    +0.000 A 
ATOM     10  C   UNL     1     -45.263 -65.940  26.225  0.00  0.00    +0.000 A 
ENDROOT
BRANCH   9  13
ATOM     11 CL   UNL     1     -46.023 -59.811  28.050  0.00  0.00    +0.000 Cl
ATOM     12 CL   UNL     1     -44.099 -61.593  23.273  0.00  0.00    +0.000 Cl
ATOM     13  C   UNL     1     -45.463 -63.469  26.526  0.00  0.00    +0.000 A 
ATOM     14  C   UNL     1     -44.945 -63.169  25.261  0.00  0.00    +0.000 A 
ATOM     15  C   UNL     1     -45.777 -62.392  27.366  0.00  0.00    +0.000 A 
ATOM     16  C   UNL     1     -45.588 -61.073  26.963  0.00  0.00    +0.000 A 
ATOM     17  C   UNL     1     -44.745 -61.850  24.849  0.00  0.00    +0.000 A 
ATOM     18  C   UNL     1     -45.068 -60.794  25.700  0.00  0.00    +0.000 A 
BRANCH  18  19
ATOM     19  O   UNL     1     -44.873 -59.501  25.289  0.00  0.00    +0.000 OA
ATOM     20  H   UNL     1     -43.949 -59.411  24.989  0.00  0.00    +0.000 HD
ENDBRANCH  18  19
ENDBRANCH   9  13
BRANCH   5  21
ATOM     21  C   UNL     1     -48.232 -68.111  31.504  0.00  0.00    +0.000 C 
ATOM     22  O   UNL     1     -49.407 -67.897  31.755  0.00  0.00    +0.000 OA
ATOM     23  C   UNL     1     -47.533 -68.721  32.681  0.00  0.00    +0.000 C 
ENDBRANCH   5  21
BRANCH   3  24
ATOM     24  N   UNL     1     -47.911 -65.382  30.587  0.00  0.00    +0.000 N 
ATOM     25  H   UNL     1     -48.931 -65.416  30.671  0.00  0.00    +0.000 HD
BRANCH  24  26
ATOM     26  C   UNL     1     -47.309 -64.634  31.561  0.00  0.00    +0.000 A 
ATOM     27  C   UNL     1     -47.967 -64.550  32.840  0.00  0.00    +0.000 A 
ATOM     28  C   UNL     1     -48.098 -63.279  33.719  0.00  0.00    +0.000 A 
ATOM     29  C   UNL     1     -47.579 -61.978  33.371  0.00  0.00    +0.000 A 
ATOM     30  C   UNL     1     -46.943 -62.054  32.080  0.00  0.00    +0.000 A 
ATOM     31  C   UNL     1     -46.816 -63.326  31.205  0.00  0.00    +0.000 A 
BRANCH  29  32
ATOM     32  C   UNL     1     -47.570 -60.848  34.218  0.00  0.00    +0.000 C 
BRANCH  32  33
ATOM     33  N   UNL     1     -47.558 -59.675  35.074  0.00  0.00    +0.000 NA
ATOM     34  C   UNL     1     -46.173 -59.401  35.418  0.00  0.00    +0.000 C 
ATOM     35  C   UNL     1     -48.241 -60.031  36.307  0.00  0.00    +0.000 C 
ENDBRANCH  32  33
ENDBRANCH  29  32
ENDBRANCH  24  26
ENDBRANCH   3  24
TORSDOF 7
ENDMDL
MODEL 3
REMARK VINA RESULT:      -7.5     14.454     16.028
REMARK  Name = OTSSP167.pdbqt.pdb
REMARK  7 active torsions:
REMARK  status: ('A' for Active; 'I' for Inactive)
REMARK    1  A    between atoms: C_5  and  N_19
REMARK    2  A    between atoms: C_7  and  C_31
REMARK    3  A    between atoms: C_11  and  C_13
REMARK    4  A    between atoms: C_18  and  O_34
REMARK    5  A    between atoms: N_19  and  C_21
REMARK    6  A    between atoms: C_24  and  C_27
REMARK    7  A    between atoms: C_27  and  N_28
REMARK                            x       y       z     vdW  Elec       q    Type
REMARK                         _______ _______ _______ _____ _____    ______ ____
ROOT
ATOM      1  N   UNL     1     -45.754 -64.516  40.083  0.00  0.00    +0.000 NA
ATOM      2  N   UNL     1     -45.678 -65.039  36.468  0.00  0.00    +0.000 NA
ATOM      3  C   UNL     1     -45.046 -66.468  38.810  0.00  0.00    +0.000 A 
ATOM      4  C   UNL     1     -45.565 -65.148  38.898  0.00  0.00    +0.000 A 
ATOM      5  C   UNL     1     -44.857 -67.026  37.529  0.00  0.00    +0.000 A 
ATOM      6  C   UNL     1     -45.855 -64.494  37.682  0.00  0.00    +0.000 A 
ATOM      7  C   UNL     1     -45.182 -66.288  36.413  0.00  0.00    +0.000 A 
ATOM      8  C   UNL     1     -46.351 -63.204  37.756  0.00  0.00    +0.000 A 
ATOM      9  C   UNL     1     -46.250 -63.256  40.127  0.00  0.00    +0.000 A 
ATOM     10  C   UNL     1     -46.558 -62.566  38.970  0.00  0.00    +0.000 A 
ENDROOT
BRANCH   9  13
ATOM     11 CL   UNL     1     -48.489 -59.631  43.050  0.00  0.00    +0.000 Cl
ATOM     12 CL   UNL     1     -45.170 -63.391  45.180  0.00  0.00    +0.000 Cl
ATOM     13  C   UNL     1     -46.450 -62.687  41.462  0.00  0.00    +0.000 A 
ATOM     14  C   UNL     1     -45.813 -63.216  42.592  0.00  0.00    +0.000 A 
ATOM     15  C   UNL     1     -47.281 -61.575  41.652  0.00  0.00    +0.000 A 
ATOM     16  C   UNL     1     -47.468 -61.010  42.911  0.00  0.00    +0.000 A 
ATOM     17  C   UNL     1     -45.998 -62.662  43.859  0.00  0.00    +0.000 A 
ATOM     18  C   UNL     1     -46.828 -61.553  44.025  0.00  0.00    +0.000 A 
BRANCH  18  19
ATOM     19  O   UNL     1     -47.003 -61.010  45.270  0.00  0.00    +0.000 OA
ATOM     20  H   UNL     1     -47.766 -61.449  45.691  0.00  0.00    +0.000 HD
ENDBRANCH  18  19
ENDBRANCH   9  13
BRANCH   5  21
ATOM     21  C   UNL     1     -44.288 -68.355  37.314  0.00  0.00    +0.000 C 
ATOM     22  O   UNL     1     -44.606 -69.360  37.927  0.00  0.00    +0.000 OA
ATOM     23  C   UNL     1     -43.191 -68.646  36.336  0.00  0.00    +0.000 C 
ENDBRANCH   5  21
BRANCH   3  24
ATOM     24  N   UNL     1     -44.805 -67.289  39.958  0.00  0.00    +0.000 N 
ATOM     25  H   UNL     1     -45.290 -68.191  39.944  0.00  0.00    +0.000 HD
BRANCH  24  26
ATOM     26  C   UNL     1     -43.724 -67.265  40.795  0.00  0.00    +0.000 A 
ATOM     27  C   UNL     1     -42.417 -67.384  40.200  0.00  0.00    +0.000 A 
ATOM     28  C   UNL     1     -41.232 -68.214  40.756  0.00  0.00    +0.000 A 
ATOM     29  C   UNL     1     -41.273 -69.006  41.962  0.00  0.00    +0.000 A 
ATOM     30  C   UNL     1     -42.587 -68.909  42.546  0.00  0.00    +0.000 A 
ATOM     31  C   UNL     1     -43.768 -68.079  41.985  0.00  0.00    +0.000 A 
BRANCH  29  32
ATOM     32  C   UNL     1     -40.166 -69.654  42.553  0.00  0.00    +0.000 C 
BRANCH  32  33
ATOM     33  N   UNL     1     -39.039 -70.327  43.175  0.00  0.00    +0.000 NA
ATOM     34  C   UNL     1     -39.179 -71.749  42.907  0.00  0.00    +0.000 C 
ATOM     35  C   UNL     1     -39.167 -70.149  44.612  0.00  0.00    +0.000 C 
ENDBRANCH  32  33
ENDBRANCH  29  32
ENDBRANCH  24  26
ENDBRANCH   3  24
TORSDOF 7
ENDMDL
MODEL 4
REMARK VINA RESULT:      -7.3     16.281     19.815
REMARK  Name = OTSSP167.pdbqt.pdb
REMARK  7 active torsions:
REMARK  status: ('A' for Active; 'I' for Inactive)
REMARK    1  A    between atoms: C_5  and  N_19
REMARK    2  A    between atoms: C_7  and  C_31
REMARK    3  A    between atoms: C_11  and  C_13
REMARK    4  A    between atoms: C_18  and  O_34
REMARK    5  A    between atoms: N_19  and  C_21
REMARK    6  A    between atoms: C_24  and  C_27
REMARK    7  A    between atoms: C_27  and  N_28
REMARK                            x       y       z     vdW  Elec       q    Type
REMARK                         _______ _______ _______ _____ _____    ______ ____
ROOT
ATOM      1  N   UNL     1     -45.161 -60.813  34.090  0.00  0.00    +0.000 NA
ATOM      2  N   UNL     1     -46.724 -62.234  37.071  0.00  0.00    +0.000 NA
ATOM      3  C   UNL     1     -44.265 -61.075  36.339  0.00  0.00    +0.000 A 
ATOM      4  C   UNL     1     -45.305 -61.206  35.380  0.00  0.00    +0.000 A 
ATOM      5  C   UNL     1     -44.502 -61.543  37.648  0.00  0.00    +0.000 A 
ATOM      6  C   UNL     1     -46.507 -61.799  35.819  0.00  0.00    +0.000 A 
ATOM      7  C   UNL     1     -45.722 -62.101  37.958  0.00  0.00    +0.000 A 
ATOM      8  C   UNL     1     -47.523 -61.941  34.890  0.00  0.00    +0.000 A 
ATOM      9  C   UNL     1     -46.176 -60.955  33.203  0.00  0.00    +0.000 A 
ATOM     10  C   UNL     1     -47.378 -61.524  33.575  0.00  0.00    +0.000 A 
ENDROOT
BRANCH   9  13
ATOM     11 CL   UNL     1     -43.272 -58.037  30.081  0.00  0.00    +0.000 Cl
ATOM     12 CL   UNL     1     -47.577 -60.817  28.229  0.00  0.00    +0.000 Cl
ATOM     13  C   UNL     1     -45.922 -60.460  31.847  0.00  0.00    +0.000 A 
ATOM     14  C   UNL     1     -46.745 -60.809  30.770  0.00  0.00    +0.000 A 
ATOM     15  C   UNL     1     -44.847 -59.601  31.586  0.00  0.00    +0.000 A 
ATOM     16  C   UNL     1     -44.602 -59.106  30.308  0.00  0.00    +0.000 A 
ATOM     17  C   UNL     1     -46.505 -60.324  29.483  0.00  0.00    +0.000 A 
ATOM     18  C   UNL     1     -45.430 -59.467  29.246  0.00  0.00    +0.000 A 
BRANCH  18  19
ATOM     19  O   UNL     1     -45.203 -58.990  27.982  0.00  0.00    +0.000 OA
ATOM     20  H   UNL     1     -44.322 -59.295  27.694  0.00  0.00    +0.000 HD
ENDBRANCH  18  19
ENDBRANCH   9  13
BRANCH   5  21
ATOM     21  C   UNL     1     -43.492 -61.504  38.704  0.00  0.00    +0.000 C 
ATOM     22  O   UNL     1     -42.320 -61.809  38.563  0.00  0.00    +0.000 OA
ATOM     23  C   UNL     1     -43.782 -61.124  40.124  0.00  0.00    +0.000 C 
ENDBRANCH   5  21
BRANCH   3  24
ATOM     24  N   UNL     1     -43.032 -60.401  36.065  0.00  0.00    +0.000 N 
ATOM     25  H   UNL     1     -42.544 -60.732  35.227  0.00  0.00    +0.000 HD
BRANCH  24  26
ATOM     26  C   UNL     1     -42.661 -59.142  36.449  0.00  0.00    +0.000 A 
ATOM     27  C   UNL     1     -43.682 -58.127  36.486  0.00  0.00    +0.000 A 
ATOM     28  C   UNL     1     -43.528 -56.657  36.017  0.00  0.00    +0.000 A 
ATOM     29  C   UNL     1     -42.323 -56.091  35.460  0.00  0.00    +0.000 A 
ATOM     30  C   UNL     1     -41.307 -57.111  35.399  0.00  0.00    +0.000 A 
ATOM     31  C   UNL     1     -41.467 -58.579  35.867  0.00  0.00    +0.000 A 
BRANCH  29  32
ATOM     32  C   UNL     1     -42.124 -54.726  35.158  0.00  0.00    +0.000 C 
BRANCH  32  33
ATOM     33  N   UNL     1     -41.902 -53.325  34.842  0.00  0.00    +0.000 NA
ATOM     34  C   UNL     1     -43.195 -52.660  34.880  0.00  0.00    +0.000 C 
ATOM     35  C   UNL     1     -41.431 -53.260  33.468  0.00  0.00    +0.000 C 
ENDBRANCH  32  33
ENDBRANCH  29  32
ENDBRANCH  24  26
ENDBRANCH   3  24
TORSDOF 7
ENDMDL
MODEL 5
REMARK VINA RESULT:      -7.2     14.967     18.640
REMARK  Name = OTSSP167.pdbqt.pdb
REMARK  7 active torsions:
REMARK  status: ('A' for Active; 'I' for Inactive)
REMARK    1  A    between atoms: C_5  and  N_19
REMARK    2  A    between atoms: C_7  and  C_31
REMARK    3  A    between atoms: C_11  and  C_13
REMARK    4  A    between atoms: C_18  and  O_34
REMARK    5  A    between atoms: N_19  and  C_21
REMARK    6  A    between atoms: C_24  and  C_27
REMARK    7  A    between atoms: C_27  and  N_28
REMARK                            x       y       z     vdW  Elec       q    Type
REMARK                         _______ _______ _______ _____ _____    ______ ____
ROOT
ATOM      1  N   UNL     1     -45.868 -65.534  28.994  0.00  0.00    +0.000 NA
ATOM      2  N   UNL     1     -46.446 -69.139  29.150  0.00  0.00    +0.000 NA
ATOM      3  C   UNL     1     -45.798 -67.038  30.908  0.00  0.00    +0.000 A 
ATOM      4  C   UNL     1     -46.000 -66.775  29.527  0.00  0.00    +0.000 A 
ATOM      5  C   UNL     1     -45.927 -68.367  31.360  0.00  0.00    +0.000 A 
ATOM      6  C   UNL     1     -46.318 -67.878  28.707  0.00  0.00    +0.000 A 
ATOM      7  C   UNL     1     -46.246 -69.360  30.462  0.00  0.00    +0.000 A 
ATOM      8  C   UNL     1     -46.506 -67.634  27.358  0.00  0.00    +0.000 A 
ATOM      9  C   UNL     1     -46.067 -65.323  27.670  0.00  0.00    +0.000 A 
ATOM     10  C   UNL     1     -46.387 -66.362  26.819  0.00  0.00    +0.000 A 
ENDROOT
BRANCH   9  13
ATOM     11 CL   UNL     1     -43.966 -62.000  24.317  0.00  0.00    +0.000 Cl
ATOM     12 CL   UNL     1     -47.303 -60.342  28.294  0.00  0.00    +0.000 Cl
ATOM     13  C   UNL     1     -45.938 -63.937  27.212  0.00  0.00    +0.000 A 
ATOM     14  C   UNL     1     -46.591 -62.882  27.860  0.00  0.00    +0.000 A 
ATOM     15  C   UNL     1     -45.137 -63.618  26.107  0.00  0.00    +0.000 A 
ATOM     16  C   UNL     1     -44.988 -62.305  25.669  0.00  0.00    +0.000 A 
ATOM     17  C   UNL     1     -46.454 -61.563  27.425  0.00  0.00    +0.000 A 
ATOM     18  C   UNL     1     -45.649 -61.268  26.325  0.00  0.00    +0.000 A 
BRANCH  18  19
ATOM     19  O   UNL     1     -45.515 -59.971  25.906  0.00  0.00    +0.000 OA
ATOM     20  H   UNL     1     -45.997 -59.869  25.064  0.00  0.00    +0.000 HD
ENDBRANCH  18  19
ENDBRANCH   9  13
BRANCH   5  21
ATOM     21  C   UNL     1     -45.697 -68.764  32.748  0.00  0.00    +0.000 C 
ATOM     22  O   UNL     1     -46.478 -68.581  33.666  0.00  0.00    +0.000 OA
ATOM     23  C   UNL     1     -44.435 -69.409  33.235  0.00  0.00    +0.000 C 
ENDBRANCH   5  21
BRANCH   3  24
ATOM     24  N   UNL     1     -45.572 -66.005  31.874  0.00  0.00    +0.000 N 
ATOM     25  H   UNL     1     -44.677 -65.518  31.773  0.00  0.00    +0.000 HD
BRANCH  24  26
ATOM     26  C   UNL     1     -46.506 -65.288  32.569  0.00  0.00    +0.000 A 
ATOM     27  C   UNL     1     -47.155 -64.198  31.886  0.00  0.00    +0.000 A 
ATOM     28  C   UNL     1     -47.488 -62.809  32.490  0.00  0.00    +0.000 A 
ATOM     29  C   UNL     1     -47.183 -62.401  33.840  0.00  0.00    +0.000 A 
ATOM     30  C   UNL     1     -46.511 -63.481  34.518  0.00  0.00    +0.000 A 
ATOM     31  C   UNL     1     -46.179 -64.866  33.910  0.00  0.00    +0.000 A 
BRANCH  29  32
ATOM     32  C   UNL     1     -47.601 -61.196  34.445  0.00  0.00    +0.000 C 
BRANCH  32  33
ATOM     33  N   UNL     1     -48.013 -59.949  35.065  0.00  0.00    +0.000 NA
ATOM     34  C   UNL     1     -46.871 -59.431  35.801  0.00  0.00    +0.000 C 
ATOM     35  C   UNL     1     -49.040 -60.269  36.043  0.00  0.00    +0.000 C 
ENDBRANCH  32  33
ENDBRANCH  29  32
ENDBRANCH  24  26
ENDBRANCH   3  24
TORSDOF 7
ENDMDL
MODEL 6
REMARK VINA RESULT:      -6.9     32.200     35.511
REMARK  Name = OTSSP167.pdbqt.pdb
REMARK  7 active torsions:
REMARK  status: ('A' for Active; 'I' for Inactive)
REMARK    1  A    between atoms: C_5  and  N_19
REMARK    2  A    between atoms: C_7  and  C_31
REMARK    3  A    between atoms: C_11  and  C_13
REMARK    4  A    between atoms: C_18  and  O_34
REMARK    5  A    between atoms: N_19  and  C_21
REMARK    6  A    between atoms: C_24  and  C_27
REMARK    7  A    between atoms: C_27  and  N_28
REMARK                            x       y       z     vdW  Elec       q    Type
REMARK                         _______ _______ _______ _____ _____    ______ ____
ROOT
ATOM      1  N   UNL     1     -38.388 -42.892  49.775  0.00  0.00    +0.000 NA
ATOM      2  N   UNL     1     -40.054 -42.748  46.527  0.00  0.00    +0.000 NA
ATOM      3  C   UNL     1     -40.422 -41.724  49.123  0.00  0.00    +0.000 A 
ATOM      4  C   UNL     1     -39.301 -42.546  48.834  0.00  0.00    +0.000 A 
ATOM      5  C   UNL     1     -41.332 -41.446  48.083  0.00  0.00    +0.000 A 
ATOM      6  C   UNL     1     -39.185 -43.025  47.512  0.00  0.00    +0.000 A 
ATOM      7  C   UNL     1     -41.109 -41.969  46.829  0.00  0.00    +0.000 A 
ATOM      8  C   UNL     1     -38.102 -43.837  47.222  0.00  0.00    +0.000 A 
ATOM      9  C   UNL     1     -37.331 -43.681  49.462  0.00  0.00    +0.000 A 
ATOM     10  C   UNL     1     -37.161 -44.176  48.183  0.00  0.00    +0.000 A 
ENDROOT
BRANCH   9  13
ATOM     11 CL   UNL     1     -33.723 -41.877  52.689  0.00  0.00    +0.000 Cl
ATOM     12 CL   UNL     1     -35.211 -47.119  52.687  0.00  0.00    +0.000 Cl
ATOM     13  C   UNL     1     -36.388 -43.958  50.547  0.00  0.00    +0.000 A 
ATOM     14  C   UNL     1     -36.231 -45.244  51.079  0.00  0.00    +0.000 A 
ATOM     15  C   UNL     1     -35.592 -42.937  51.084  0.00  0.00    +0.000 A 
ATOM     16  C   UNL     1     -34.677 -43.186  52.104  0.00  0.00    +0.000 A 
ATOM     17  C   UNL     1     -35.322 -45.503  52.105  0.00  0.00    +0.000 A 
ATOM     18  C   UNL     1     -34.537 -44.472  52.622  0.00  0.00    +0.000 A 
BRANCH  18  19
ATOM     19  O   UNL     1     -33.643 -44.733  53.627  0.00  0.00    +0.000 OA
ATOM     20  H   UNL     1     -33.420 -45.683  53.600  0.00  0.00    +0.000 HD
ENDBRANCH  18  19
ENDBRANCH   9  13
BRANCH   5  21
ATOM     21  C   UNL     1     -42.544 -40.652  48.274  0.00  0.00    +0.000 C 
ATOM     22  O   UNL     1     -43.384 -40.853  49.134  0.00  0.00    +0.000 OA
ATOM     23  C   UNL     1     -42.938 -39.503  47.395  0.00  0.00    +0.000 C 
ENDBRANCH   5  21
BRANCH   3  24
ATOM     24  N   UNL     1     -40.613 -41.083  50.390  0.00  0.00    +0.000 N 
ATOM     25  H   UNL     1     -40.648 -41.723  51.188  0.00  0.00    +0.000 HD
BRANCH  24  26
ATOM     26  C   UNL     1     -40.298 -39.798  50.736  0.00  0.00    +0.000 A 
ATOM     27  C   UNL     1     -38.905 -39.431  50.743  0.00  0.00    +0.000 A 
ATOM     28  C   UNL     1     -38.199 -38.545  51.801  0.00  0.00    +0.000 A 
ATOM     29  C   UNL     1     -38.844 -37.961  52.952  0.00  0.00    +0.000 A 
ATOM     30  C   UNL     1     -40.233 -38.347  52.961  0.00  0.00    +0.000 A 
ATOM     31  C   UNL     1     -40.933 -39.234  51.903  0.00  0.00    +0.000 A 
BRANCH  29  32
ATOM     32  C   UNL     1     -38.249 -37.043  53.846  0.00  0.00    +0.000 C 
BRANCH  32  33
ATOM     33  N   UNL     1     -37.651 -36.086  54.761  0.00  0.00    +0.000 NA
ATOM     34  C   UNL     1     -36.447 -36.697  55.302  0.00  0.00    +0.000 C 
ATOM     35  C   UNL     1     -38.575 -35.910  55.869  0.00  0.00    +0.000 C 
ENDBRANCH  32  33
ENDBRANCH  29  32
ENDBRANCH  24  26
ENDBRANCH   3  24
TORSDOF 7
ENDMDL
MODEL 7
REMARK VINA RESULT:      -6.9     17.514     21.382
REMARK  Name = OTSSP167.pdbqt.pdb
REMARK  7 active torsions:
REMARK  status: ('A' for Active; 'I' for Inactive)
REMARK    1  A    between atoms: C_5  and  N_19
REMARK    2  A    between atoms: C_7  and  C_31
REMARK    3  A    between atoms: C_11  and  C_13
REMARK    4  A    between atoms: C_18  and  O_34
REMARK    5  A    between atoms: N_19  and  C_21
REMARK    6  A    between atoms: C_24  and  C_27
REMARK    7  A    between atoms: C_27  and  N_28
REMARK                            x       y       z     vdW  Elec       q    Type
REMARK                         _______ _______ _______ _____ _____    ______ ____
ROOT
ATOM      1  N   UNL     1     -45.981 -66.276  26.498  0.00  0.00    +0.000 NA
ATOM      2  N   UNL     1     -46.266 -69.261  28.586  0.00  0.00    +0.000 NA
ATOM      3  C   UNL     1     -46.987 -66.542  28.699  0.00  0.00    +0.000 A 
ATOM      4  C   UNL     1     -46.320 -67.055  27.555  0.00  0.00    +0.000 A 
ATOM      5  C   UNL     1     -47.268 -67.427  29.761  0.00  0.00    +0.000 A 
ATOM      6  C   UNL     1     -45.987 -68.427  27.571  0.00  0.00    +0.000 A 
ATOM      7  C   UNL     1     -46.896 -68.748  29.658  0.00  0.00    +0.000 A 
ATOM      8  C   UNL     1     -45.327 -68.934  26.467  0.00  0.00    +0.000 A 
ATOM      9  C   UNL     1     -45.343 -66.802  25.424  0.00  0.00    +0.000 A 
ATOM     10  C   UNL     1     -44.997 -68.139  25.380  0.00  0.00    +0.000 A 
ENDROOT
BRANCH   9  13
ATOM     11 CL   UNL     1     -44.169 -66.167  20.432  0.00  0.00    +0.000 Cl
ATOM     12 CL   UNL     1     -44.752 -61.928  23.807  0.00  0.00    +0.000 Cl
ATOM     13  C   UNL     1     -45.063 -65.877  24.323  0.00  0.00    +0.000 A 
ATOM     14  C   UNL     1     -45.036 -64.491  24.514  0.00  0.00    +0.000 A 
ATOM     15  C   UNL     1     -44.795 -66.356  23.033  0.00  0.00    +0.000 A 
ATOM     16  C   UNL     1     -44.509 -65.492  21.979  0.00  0.00    +0.000 A 
ATOM     17  C   UNL     1     -44.757 -63.616  23.463  0.00  0.00    +0.000 A 
ATOM     18  C   UNL     1     -44.490 -64.114  22.188  0.00  0.00    +0.000 A 
BRANCH  18  19
ATOM     19  O   UNL     1     -44.212 -63.250  21.162  0.00  0.00    +0.000 OA
ATOM     20  H   UNL     1     -43.298 -62.926  21.272  0.00  0.00    +0.000 HD
ENDBRANCH  18  19
ENDBRANCH   9  13
BRANCH   5  21
ATOM     21  C   UNL     1     -47.907 -67.002  31.005  0.00  0.00    +0.000 C 
ATOM     22  O   UNL     1     -47.549 -66.059  31.689  0.00  0.00    +0.000 OA
ATOM     23  C   UNL     1     -49.069 -67.711  31.631  0.00  0.00    +0.000 C 
ENDBRANCH   5  21
BRANCH   3  24
ATOM     24  N   UNL     1     -47.477 -65.199  28.779  0.00  0.00    +0.000 N 
ATOM     25  H   UNL     1     -48.446 -65.119  29.099  0.00  0.00    +0.000 HD
BRANCH  24  26
ATOM     26  C   UNL     1     -46.754 -64.050  28.942  0.00  0.00    +0.000 A 
ATOM     27  C   UNL     1     -46.986 -62.977  28.009  0.00  0.00    +0.000 A 
ATOM     28  C   UNL     1     -45.903 -62.065  27.376  0.00  0.00    +0.000 A 
ATOM     29  C   UNL     1     -44.486 -62.170  27.628  0.00  0.00    +0.000 A 
ATOM     30  C   UNL     1     -44.248 -63.260  28.541  0.00  0.00    +0.000 A 
ATOM     31  C   UNL     1     -45.333 -64.169  29.169  0.00  0.00    +0.000 A 
BRANCH  29  32
ATOM     32  C   UNL     1     -43.504 -61.265  27.169  0.00  0.00    +0.000 C 
BRANCH  32  33
ATOM     33  N   UNL     1     -42.500 -60.336  26.678  0.00  0.00    +0.000 NA
ATOM     34  C   UNL     1     -43.198 -59.279  25.965  0.00  0.00    +0.000 C 
ATOM     35  C   UNL     1     -41.692 -61.048  25.701  0.00  0.00    +0.000 C 
ENDBRANCH  32  33
ENDBRANCH  29  32
ENDBRANCH  24  26
ENDBRANCH   3  24
TORSDOF 7
ENDMDL
MODEL 8
REMARK VINA RESULT:      -6.9      3.556      4.615
REMARK  Name = OTSSP167.pdbqt.pdb
REMARK  7 active torsions:
REMARK  status: ('A' for Active; 'I' for Inactive)
REMARK    1  A    between atoms: C_5  and  N_19
REMARK    2  A    between atoms: C_7  and  C_31
REMARK    3  A    between atoms: C_11  and  C_13
REMARK    4  A    between atoms: C_18  and  O_34
REMARK    5  A    between atoms: N_19  and  C_21
REMARK    6  A    between atoms: C_24  and  C_27
REMARK    7  A    between atoms: C_27  and  N_28
REMARK                            x       y       z     vdW  Elec       q    Type
REMARK                         _______ _______ _______ _____ _____    ______ ____
ROOT
ATOM      1  N   UNL     1     -63.955 -67.887  41.958  0.00  0.00    +0.000 NA
ATOM      2  N   UNL     1     -67.565 -68.445  41.851  0.00  0.00    +0.000 NA
ATOM      3  C   UNL     1     -65.270 -69.727  42.861  0.00  0.00    +0.000 A 
ATOM      4  C   UNL     1     -65.152 -68.487  42.177  0.00  0.00    +0.000 A 
ATOM      5  C   UNL     1     -66.555 -70.287  43.010  0.00  0.00    +0.000 A 
ATOM      6  C   UNL     1     -66.344 -67.907  41.697  0.00  0.00    +0.000 A 
ATOM      7  C   UNL     1     -67.648 -69.621  42.500  0.00  0.00    +0.000 A 
ATOM      8  C   UNL     1     -66.239 -66.705  41.020  0.00  0.00    +0.000 A 
ATOM      9  C   UNL     1     -63.882 -66.704  41.300  0.00  0.00    +0.000 A 
ATOM     10  C   UNL     1     -65.016 -66.084  40.812  0.00  0.00    +0.000 A 
ENDROOT
BRANCH   9  13
ATOM     11 CL   UNL     1     -60.979 -62.467  40.744  0.00  0.00    +0.000 Cl
ATOM     12 CL   UNL     1     -58.782 -67.451  40.911  0.00  0.00    +0.000 Cl
ATOM     13  C   UNL     1     -62.543 -66.127  41.156  0.00  0.00    +0.000 A 
ATOM     14  C   UNL     1     -61.397 -66.929  41.107  0.00  0.00    +0.000 A 
ATOM     15  C   UNL     1     -62.366 -64.742  41.048  0.00  0.00    +0.000 A 
ATOM     16  C   UNL     1     -61.102 -64.177  40.893  0.00  0.00    +0.000 A 
ATOM     17  C   UNL     1     -60.125 -66.374  40.957  0.00  0.00    +0.000 A 
ATOM     18  C   UNL     1     -59.972 -64.992  40.848  0.00  0.00    +0.000 A 
BRANCH  18  19
ATOM     19  O   UNL     1     -58.722 -64.453  40.698  0.00  0.00    +0.000 OA
ATOM     20  H   UNL     1     -58.422 -64.126  41.567  0.00  0.00    +0.000 HD
ENDBRANCH  18  19
ENDBRANCH   9  13
BRANCH   5  21
ATOM     21  C   UNL     1     -66.794 -71.577  43.653  0.00  0.00    +0.000 C 
ATOM     22  O   UNL     1     -66.081 -72.560  43.536  0.00  0.00    +0.000 OA
ATOM     23  C   UNL     1     -67.985 -71.876  44.511  0.00  0.00    +0.000 C 
ENDBRANCH   5  21
BRANCH   3  24
ATOM     24  N   UNL     1     -64.161 -70.378  43.491  0.00  0.00    +0.000 N 
ATOM     25  H   UNL     1     -64.289 -70.561  44.491  0.00  0.00    +0.000 HD
BRANCH  24  26
ATOM     26  C   UNL     1     -63.214 -71.174  42.909  0.00  0.00    +0.000 A 
ATOM     27  C   UNL     1     -61.909 -71.212  43.519  0.00  0.00    +0.000 A 
ATOM     28  C   UNL     1     -60.550 -71.218  42.771  0.00  0.00    +0.000 A 
ATOM     29  C   UNL     1     -60.397 -71.175  41.337  0.00  0.00    +0.000 A 
ATOM     30  C   UNL     1     -61.701 -71.111  40.725  0.00  0.00    +0.000 A 
ATOM     31  C   UNL     1     -63.055 -71.104  41.477  0.00  0.00    +0.000 A 
BRANCH  29  32
ATOM     32  C   UNL     1     -59.177 -71.318  40.640  0.00  0.00    +0.000 C 
BRANCH  32  33
ATOM     33  N   UNL     1     -57.930 -71.480  39.913  0.00  0.00    +0.000 NA
ATOM     34  C   UNL     1     -57.447 -72.827  40.172  0.00  0.00    +0.000 C 
ATOM     35  C   UNL     1     -56.966 -70.562  40.497  0.00  0.00    +0.000 C 
ENDBRANCH  32  33
ENDBRANCH  29  32
ENDBRANCH  24  26
ENDBRANCH   3  24
TORSDOF 7
ENDMDL
MODEL 9
REMARK VINA RESULT:      -6.8      3.583      4.658
REMARK  Name = OTSSP167.pdbqt.pdb
REMARK  7 active torsions:
REMARK  status: ('A' for Active; 'I' for Inactive)
REMARK    1  A    between atoms: C_5  and  N_19
REMARK    2  A    between atoms: C_7  and  C_31
REMARK    3  A    between atoms: C_11  and  C_13
REMARK    4  A    between atoms: C_18  and  O_34
REMARK    5  A    between atoms: N_19  and  C_21
REMARK    6  A    between atoms: C_24  and  C_27
REMARK    7  A    between atoms: C_27  and  N_28
REMARK                            x       y       z     vdW  Elec       q    Type
REMARK                         _______ _______ _______ _____ _____    ______ ____
ROOT
ATOM      1  N   UNL     1     -63.943 -67.797  41.953  0.00  0.00    +0.000 NA
ATOM      2  N   UNL     1     -67.552 -68.360  41.852  0.00  0.00    +0.000 NA
ATOM      3  C   UNL     1     -65.257 -69.622  42.886  0.00  0.00    +0.000 A 
ATOM      4  C   UNL     1     -65.139 -68.395  42.181  0.00  0.00    +0.000 A 
ATOM      5  C   UNL     1     -66.542 -70.180  43.044  0.00  0.00    +0.000 A 
ATOM      6  C   UNL     1     -66.332 -67.823  41.689  0.00  0.00    +0.000 A 
ATOM      7  C   UNL     1     -67.635 -69.525  42.521  0.00  0.00    +0.000 A 
ATOM      8  C   UNL     1     -66.227 -66.633  40.992  0.00  0.00    +0.000 A 
ATOM      9  C   UNL     1     -63.870 -66.626  41.275  0.00  0.00    +0.000 A 
ATOM     10  C   UNL     1     -65.004 -66.016  40.775  0.00  0.00    +0.000 A 
ENDROOT
BRANCH   9  13
ATOM     11 CL   UNL     1     -58.781 -67.426  40.885  0.00  0.00    +0.000 Cl
ATOM     12 CL   UNL     1     -60.911 -62.411  40.835  0.00  0.00    +0.000 Cl
ATOM     13  C   UNL     1     -62.531 -66.050  41.122  0.00  0.00    +0.000 A 
ATOM     14  C   UNL     1     -62.327 -64.667  41.050  0.00  0.00    +0.000 A 
ATOM     15  C   UNL     1     -61.399 -66.873  41.058  0.00  0.00    +0.000 A 
ATOM     16  C   UNL     1     -60.118 -66.343  40.933  0.00  0.00    +0.000 A 
ATOM     17  C   UNL     1     -61.049 -64.125  40.917  0.00  0.00    +0.000 A 
ATOM     18  C   UNL     1     -59.935 -64.963  40.859  0.00  0.00    +0.000 A 
BRANCH  18  19
ATOM     19  O   UNL     1     -58.681 -64.425  40.733  0.00  0.00    +0.000 OA
ATOM     20  H   UNL     1     -58.291 -64.346  41.623  0.00  0.00    +0.000 HD
ENDBRANCH  18  19
ENDBRANCH   9  13
BRANCH   5  21
ATOM     21  C   UNL     1     -66.780 -71.459  43.709  0.00  0.00    +0.000 C 
ATOM     22  O   UNL     1     -65.986 -72.384  43.753  0.00  0.00    +0.000 OA
ATOM     23  C   UNL     1     -68.066 -71.822  44.388  0.00  0.00    +0.000 C 
ENDBRANCH   5  21
BRANCH   3  24
ATOM     24  N   UNL     1     -64.149 -70.262  43.529  0.00  0.00    +0.000 N 
ATOM     25  H   UNL     1     -64.276 -70.423  44.532  0.00  0.00    +0.000 HD
BRANCH  24  26
ATOM     26  C   UNL     1     -63.203 -71.071  42.963  0.00  0.00    +0.000 A 
ATOM     27  C   UNL     1     -62.154 -71.568  43.815  0.00  0.00    +0.000 A 
ATOM     28  C   UNL     1     -60.653 -71.689  43.443  0.00  0.00    +0.000 A 
ATOM     29  C   UNL     1     -60.084 -71.305  42.174  0.00  0.00    +0.000 A 
ATOM     30  C   UNL     1     -61.128 -70.783  41.328  0.00  0.00    +0.000 A 
ATOM     31  C   UNL     1     -62.625 -70.663  41.705  0.00  0.00    +0.000 A 
BRANCH  29  32
ATOM     32  C   UNL     1     -58.750 -71.535  41.772  0.00  0.00    +0.000 C 
BRANCH  32  33
ATOM     33  N   UNL     1     -57.375 -71.753  41.357  0.00  0.00    +0.000 NA
ATOM     34  C   UNL     1     -56.925 -70.542  40.690  0.00  0.00    +0.000 C 
ATOM     35  C   UNL     1     -57.386 -72.810  40.359  0.00  0.00    +0.000 C 
ENDBRANCH  32  33
ENDBRANCH  29  32
ENDBRANCH  24  26
ENDBRANCH   3  24
TORSDOF 7
ENDMDL
