MODEL 1
REMARK VINA RESULT:      -6.6      0.000      0.000
REMARK  Name = 
REMARK  0 active torsions:
REMARK  status: ('A' for Active; 'I' for Inactive)
REMARK                            x       y       z     vdW  Elec       q    Type
REMARK                         _______ _______ _______ _____ _____    ______ ____
ROOT
ATOM      1  O   UNL     1     -61.861 -62.692  41.230  0.00  0.00    +0.000 OA
ATOM      2  O   UNL     1     -66.007 -65.703  40.286  0.00  0.00    +0.000 OA
ATOM      3  N   UNL     1     -61.109 -63.319  42.185  0.00  0.00    +0.000 N 
ATOM      4  N   UNL     1     -63.727 -65.586  40.666  0.00  0.00    +0.000 N 
ATOM      5  C   UNL     1     -61.506 -64.794  42.387  0.00  0.00    +0.000 C 
ATOM      6  C   UNL     1     -61.281 -65.658  41.130  0.00  0.00    +0.000 C 
ATOM      7  C   UNL     1     -62.928 -64.967  42.934  0.00  0.00    +0.000 C 
ATOM      8  C   UNL     1     -62.386 -65.436  40.058  0.00  0.00    +0.000 C 
ATOM      9  C   UNL     1     -59.831 -65.492  40.640  0.00  0.00    +0.000 C 
ATOM     10  C   UNL     1     -63.984 -64.759  41.849  0.00  0.00    +0.000 C 
ATOM     11  C   UNL     1     -59.657 -63.253  41.760  0.00  0.00    +0.000 C 
ATOM     12  C   UNL     1     -63.170 -64.096  44.173  0.00  0.00    +0.000 C 
ATOM     13  C   UNL     1     -61.283 -62.579  43.495  0.00  0.00    +0.000 C 
ATOM     14  C   UNL     1     -59.421 -64.035  40.473  0.00  0.00    +0.000 C 
ATOM     15  C   UNL     1     -62.722 -62.651  43.989  0.00  0.00    +0.000 C 
ATOM     16  C   UNL     1     -62.184 -66.383  38.864  0.00  0.00    +0.000 C 
ATOM     17  C   UNL     1     -63.359 -66.283  37.910  0.00  0.00    +0.000 C 
ATOM     18  C   UNL     1     -64.853 -65.911  39.906  0.00  0.00    +0.000 C 
ATOM     19  C   UNL     1     -64.619 -66.697  38.636  0.00  0.00    +0.000 C 
ENDROOT
TORSDOF 0
ENDMDL
MODEL 2
REMARK VINA RESULT:      -6.3     24.490     25.770
REMARK  Name = 
REMARK  0 active torsions:
REMARK  status: ('A' for Active; 'I' for Inactive)
REMARK                            x       y       z     vdW  Elec       q    Type
REMARK                         _______ _______ _______ _____ _____    ______ ____
ROOT
ATOM      1  O   UNL     1     -53.265 -40.216  37.331  0.00  0.00    +0.000 OA
ATOM      2  O   UNL     1     -48.493 -41.835  38.655  0.00  0.00    +0.000 OA
ATOM      3  N   UNL     1     -54.038 -41.329  37.145  0.00  0.00    +0.000 N 
ATOM      4  N   UNL     1     -50.780 -42.091  38.906  0.00  0.00    +0.000 N 
ATOM      5  C   UNL     1     -53.395 -42.607  37.716  0.00  0.00    +0.000 C 
ATOM      6  C   UNL     1     -53.203 -42.555  39.245  0.00  0.00    +0.000 C 
ATOM      7  C   UNL     1     -52.093 -42.998  37.005  0.00  0.00    +0.000 C 
ATOM      8  C   UNL     1     -51.987 -41.677  39.657  0.00  0.00    +0.000 C 
ATOM      9  C   UNL     1     -54.540 -42.206  39.923  0.00  0.00    +0.000 C 
ATOM     10  C   UNL     1     -50.919 -42.126  37.447  0.00  0.00    +0.000 C 
ATOM     11  C   UNL     1     -55.368 -41.098  37.829  0.00  0.00    +0.000 C 
ATOM     12  C   UNL     1     -52.267 -43.032  35.481  0.00  0.00    +0.000 C 
ATOM     13  C   UNL     1     -54.263 -41.513  35.658  0.00  0.00    +0.000 C 
ATOM     14  C   UNL     1     -55.199 -40.964  39.338  0.00  0.00    +0.000 C 
ATOM     15  C   UNL     1     -52.956 -41.791  34.927  0.00  0.00    +0.000 C 
ATOM     16  C   UNL     1     -51.768 -41.729  41.177  0.00  0.00    +0.000 C 
ATOM     17  C   UNL     1     -50.482 -41.015  41.547  0.00  0.00    +0.000 C 
ATOM     18  C   UNL     1     -49.491 -41.835  39.379  0.00  0.00    +0.000 C 
ATOM     19  C   UNL     1     -49.321 -41.713  40.877  0.00  0.00    +0.000 C 
ENDROOT
TORSDOF 0
ENDMDL
MODEL 3
REMARK VINA RESULT:      -5.9     34.491     35.890
REMARK  Name = 
REMARK  0 active torsions:
REMARK  status: ('A' for Active; 'I' for Inactive)
REMARK                            x       y       z     vdW  Elec       q    Type
REMARK                         _______ _______ _______ _____ _____    ______ ____
ROOT
ATOM      1  O   UNL     1     -29.501 -52.168  54.987  0.00  0.00    +0.000 OA
ATOM      2  O   UNL     1     -33.304 -50.170  52.038  0.00  0.00    +0.000 OA
ATOM      3  N   UNL     1     -29.921 -53.395  55.419  0.00  0.00    +0.000 N 
ATOM      4  N   UNL     1     -32.051 -52.030  52.608  0.00  0.00    +0.000 N 
ATOM      5  C   UNL     1     -31.143 -53.919  54.641  0.00  0.00    +0.000 C 
ATOM      6  C   UNL     1     -30.853 -54.147  53.144  0.00  0.00    +0.000 C 
ATOM      7  C   UNL     1     -32.399 -53.062  54.839  0.00  0.00    +0.000 C 
ATOM      8  C   UNL     1     -30.826 -52.816  52.339  0.00  0.00    +0.000 C 
ATOM      9  C   UNL     1     -29.614 -55.048  52.987  0.00  0.00    +0.000 C 
ATOM     10  C   UNL     1     -32.343 -51.773  54.022  0.00  0.00    +0.000 C 
ATOM     11  C   UNL     1     -28.775 -54.370  55.253  0.00  0.00    +0.000 C 
ATOM     12  C   UNL     1     -32.686 -52.811  56.326  0.00  0.00    +0.000 C 
ATOM     13  C   UNL     1     -30.281 -53.289  56.887  0.00  0.00    +0.000 C 
ATOM     14  C   UNL     1     -28.414 -54.556  53.784  0.00  0.00    +0.000 C 
ATOM     15  C   UNL     1     -31.460 -52.349  57.104  0.00  0.00    +0.000 C 
ATOM     16  C   UNL     1     -30.632 -53.089  50.840  0.00  0.00    +0.000 C 
ATOM     17  C   UNL     1     -30.782 -51.804  50.048  0.00  0.00    +0.000 C 
ATOM     18  C   UNL     1     -32.525 -51.069  51.713  0.00  0.00    +0.000 C 
ATOM     19  C   UNL     1     -32.176 -51.259  50.255  0.00  0.00    +0.000 C 
ENDROOT
TORSDOF 0
ENDMDL
MODEL 4
REMARK VINA RESULT:      -5.8     17.032     19.116
REMARK  Name = 
REMARK  0 active torsions:
REMARK  status: ('A' for Active; 'I' for Inactive)
REMARK                            x       y       z     vdW  Elec       q    Type
REMARK                         _______ _______ _______ _____ _____    ______ ____
ROOT
ATOM      1  O   UNL     1     -45.649 -66.934  30.756  0.00  0.00    +0.000 OA
ATOM      2  O   UNL     1     -48.031 -63.544  33.916  0.00  0.00    +0.000 OA
ATOM      3  N   UNL     1     -46.523 -67.239  29.750  0.00  0.00    +0.000 N 
ATOM      4  N   UNL     1     -47.591 -64.208  31.743  0.00  0.00    +0.000 N 
ATOM      5  C   UNL     1     -47.711 -66.261  29.671  0.00  0.00    +0.000 C 
ATOM      6  C   UNL     1     -47.283 -64.816  29.348  0.00  0.00    +0.000 C 
ATOM      7  C   UNL     1     -48.616 -66.309  30.908  0.00  0.00    +0.000 C 
ATOM      8  C   UNL     1     -46.679 -64.089  30.583  0.00  0.00    +0.000 C 
ATOM      9  C   UNL     1     -46.416 -64.805  28.075  0.00  0.00    +0.000 C 
ATOM     10  C   UNL     1     -47.998 -65.572  32.095  0.00  0.00    +0.000 C 
ATOM     11  C   UNL     1     -45.765 -67.201  28.440  0.00  0.00    +0.000 C 
ATOM     12  C   UNL     1     -49.032 -67.745  31.252  0.00  0.00    +0.000 C 
ATOM     13  C   UNL     1     -47.052 -68.639  29.984  0.00  0.00    +0.000 C 
ATOM     14  C   UNL     1     -45.261 -65.796  28.132  0.00  0.00    +0.000 C 
ATOM     15  C   UNL     1     -47.861 -68.721  31.272  0.00  0.00    +0.000 C 
ATOM     16  C   UNL     1     -46.356 -62.624  30.250  0.00  0.00    +0.000 C 
ATOM     17  C   UNL     1     -45.933 -61.881  31.503  0.00  0.00    +0.000 C 
ATOM     18  C   UNL     1     -47.563 -63.298  32.803  0.00  0.00    +0.000 C 
ATOM     19  C   UNL     1     -47.074 -61.902  32.495  0.00  0.00    +0.000 C 
ENDROOT
TORSDOF 0
ENDMDL
MODEL 5
REMARK VINA RESULT:      -5.8     18.458     20.760
REMARK  Name = 
REMARK  0 active torsions:
REMARK  status: ('A' for Active; 'I' for Inactive)
REMARK                            x       y       z     vdW  Elec       q    Type
REMARK                         _______ _______ _______ _____ _____    ______ ____
ROOT
ATOM      1  O   UNL     1     -44.341 -66.181  28.562  0.00  0.00    +0.000 OA
ATOM      2  O   UNL     1     -47.993 -69.476  30.279  0.00  0.00    +0.000 OA
ATOM      3  N   UNL     1     -44.847 -65.547  27.462  0.00  0.00    +0.000 N 
ATOM      4  N   UNL     1     -47.499 -67.376  29.442  0.00  0.00    +0.000 N 
ATOM      5  C   UNL     1     -46.371 -65.721  27.317  0.00  0.00    +0.000 C 
ATOM      6  C   UNL     1     -47.163 -65.101  28.485  0.00  0.00    +0.000 C 
ATOM      7  C   UNL     1     -46.791 -67.175  27.071  0.00  0.00    +0.000 C 
ATOM      8  C   UNL     1     -47.114 -65.983  29.765  0.00  0.00    +0.000 C 
ATOM      9  C   UNL     1     -46.746 -63.630  28.671  0.00  0.00    +0.000 C 
ATOM     10  C   UNL     1     -46.747 -68.006  28.352  0.00  0.00    +0.000 C 
ATOM     11  C   UNL     1     -44.529 -64.071  27.582  0.00  0.00    +0.000 C 
ATOM     12  C   UNL     1     -45.994 -67.810  25.924  0.00  0.00    +0.000 C 
ATOM     13  C   UNL     1     -44.168 -66.108  26.230  0.00  0.00    +0.000 C 
ATOM     14  C   UNL     1     -45.238 -63.447  28.777  0.00  0.00    +0.000 C 
ATOM     15  C   UNL     1     -44.491 -67.585  26.039  0.00  0.00    +0.000 C 
ATOM     16  C   UNL     1     -47.994 -65.384  30.874  0.00  0.00    +0.000 C 
ATOM     17  C   UNL     1     -48.078 -66.338  32.050  0.00  0.00    +0.000 C 
ATOM     18  C   UNL     1     -47.997 -68.250  30.410  0.00  0.00    +0.000 C 
ATOM     19  C   UNL     1     -48.711 -67.631  31.591  0.00  0.00    +0.000 C 
ENDROOT
TORSDOF 0
ENDMDL
MODEL 6
REMARK VINA RESULT:      -5.7     23.989     25.039
REMARK  Name = 
REMARK  0 active torsions:
REMARK  status: ('A' for Active; 'I' for Inactive)
REMARK                            x       y       z     vdW  Elec       q    Type
REMARK                         _______ _______ _______ _____ _____    ______ ____
ROOT
ATOM      1  O   UNL     1     -52.364 -40.195  38.022  0.00  0.00    +0.000 OA
ATOM      2  O   UNL     1     -57.270 -41.310  36.668  0.00  0.00    +0.000 OA
ATOM      3  N   UNL     1     -51.756 -41.372  38.363  0.00  0.00    +0.000 N 
ATOM      4  N   UNL     1     -55.033 -41.893  36.549  0.00  0.00    +0.000 N 
ATOM      5  C   UNL     1     -52.550 -42.611  37.906  0.00  0.00    +0.000 C 
ATOM      6  C   UNL     1     -52.687 -42.708  36.373  0.00  0.00    +0.000 C 
ATOM      7  C   UNL     1     -53.913 -42.743  38.595  0.00  0.00    +0.000 C 
ATOM      8  C   UNL     1     -53.759 -41.731  35.814  0.00  0.00    +0.000 C 
ATOM      9  C   UNL     1     -51.294 -42.619  35.722  0.00  0.00    +0.000 C 
ATOM     10  C   UNL     1     -54.944 -41.779  38.008  0.00  0.00    +0.000 C 
ATOM     11  C   UNL     1     -50.387 -41.398  37.718  0.00  0.00    +0.000 C 
ATOM     12  C   UNL     1     -53.792 -42.626  40.120  0.00  0.00    +0.000 C 
ATOM     13  C   UNL     1     -51.603 -41.414  39.869  0.00  0.00    +0.000 C 
ATOM     14  C   UNL     1     -50.490 -41.416  36.198  0.00  0.00    +0.000 C 
ATOM     15  C   UNL     1     -52.957 -41.432  40.567  0.00  0.00    +0.000 C 
ATOM     16  C   UNL     1     -53.937 -41.925  34.300  0.00  0.00    +0.000 C 
ATOM     17  C   UNL     1     -55.102 -41.095  33.797  0.00  0.00    +0.000 C 
ATOM     18  C   UNL     1     -56.261 -41.525  35.994  0.00  0.00    +0.000 C 
ATOM     19  C   UNL     1     -56.367 -41.553  34.486  0.00  0.00    +0.000 C 
ENDROOT
TORSDOF 0
ENDMDL
MODEL 7
REMARK VINA RESULT:      -5.4     28.170     30.217
REMARK  Name = 
REMARK  0 active torsions:
REMARK  status: ('A' for Active; 'I' for Inactive)
REMARK                            x       y       z     vdW  Elec       q    Type
REMARK                         _______ _______ _______ _____ _____    ______ ____
ROOT
ATOM      1  O   UNL     1     -31.593 -62.181  45.380  0.00  0.00    +0.000 OA
ATOM      2  O   UNL     1     -35.309 -60.441  48.591  0.00  0.00    +0.000 OA
ATOM      3  N   UNL     1     -32.038 -61.996  44.100  0.00  0.00    +0.000 N 
ATOM      4  N   UNL     1     -34.094 -60.106  46.650  0.00  0.00    +0.000 N 
ATOM      5  C   UNL     1     -33.252 -61.050  44.019  0.00  0.00    +0.000 C 
ATOM      6  C   UNL     1     -32.936 -59.620  44.499  0.00  0.00    +0.000 C 
ATOM      7  C   UNL     1     -34.499 -61.608  44.715  0.00  0.00    +0.000 C 
ATOM      8  C   UNL     1     -32.874 -59.519  46.050  0.00  0.00    +0.000 C 
ATOM      9  C   UNL     1     -31.707 -59.080  43.745  0.00  0.00    +0.000 C 
ATOM     10  C   UNL     1     -34.410 -61.476  46.235  0.00  0.00    +0.000 C 
ATOM     11  C   UNL     1     -30.903 -61.412  43.287  0.00  0.00    +0.000 C 
ATOM     12  C   UNL     1     -34.812 -63.039  44.261  0.00  0.00    +0.000 C 
ATOM     13  C   UNL     1     -32.425 -63.344  43.528  0.00  0.00    +0.000 C 
ATOM     14  C   UNL     1     -30.516 -60.027  43.790  0.00  0.00    +0.000 C 
ATOM     15  C   UNL     1     -33.595 -63.957  44.287  0.00  0.00    +0.000 C 
ATOM     16  C   UNL     1     -32.656 -58.063  46.493  0.00  0.00    +0.000 C 
ATOM     17  C   UNL     1     -32.772 -57.950  48.001  0.00  0.00    +0.000 C 
ATOM     18  C   UNL     1     -34.537 -59.748  47.925  0.00  0.00    +0.000 C 
ATOM     19  C   UNL     1     -34.162 -58.370  48.420  0.00  0.00    +0.000 C 
ENDROOT
TORSDOF 0
ENDMDL
MODEL 8
REMARK VINA RESULT:      -5.4     31.287     32.473
REMARK  Name = 
REMARK  0 active torsions:
REMARK  status: ('A' for Active; 'I' for Inactive)
REMARK                            x       y       z     vdW  Elec       q    Type
REMARK                         _______ _______ _______ _____ _____    ______ ____
ROOT
ATOM      1  O   UNL     1     -49.655 -35.501  53.071  0.00  0.00    +0.000 OA
ATOM      2  O   UNL     1     -49.341 -36.877  48.056  0.00  0.00    +0.000 OA
ATOM      3  N   UNL     1     -50.145 -36.575  53.760  0.00  0.00    +0.000 N 
ATOM      4  N   UNL     1     -49.011 -37.475  50.267  0.00  0.00    +0.000 N 
ATOM      5  C   UNL     1     -50.095 -37.883  52.947  0.00  0.00    +0.000 C 
ATOM      6  C   UNL     1     -48.659 -38.314  52.586  0.00  0.00    +0.000 C 
ATOM      7  C   UNL     1     -50.997 -37.858  51.707  0.00  0.00    +0.000 C 
ATOM      8  C   UNL     1     -48.072 -37.480  51.411  0.00  0.00    +0.000 C 
ATOM      9  C   UNL     1     -47.799 -38.371  53.861  0.00  0.00    +0.000 C 
ATOM     10  C   UNL     1     -50.379 -37.045  50.570  0.00  0.00    +0.000 C 
ATOM     11  C   UNL     1     -49.320 -36.744  55.018  0.00  0.00    +0.000 C 
ATOM     12  C   UNL     1     -52.423 -37.410  52.051  0.00  0.00    +0.000 C 
ATOM     13  C   UNL     1     -51.583 -36.286  54.138  0.00  0.00    +0.000 C 
ATOM     14  C   UNL     1     -47.874 -37.095  54.689  0.00  0.00    +0.000 C 
ATOM     15  C   UNL     1     -52.467 -36.148  52.905  0.00  0.00    +0.000 C 
ATOM     16  C   UNL     1     -46.681 -38.002  51.015  0.00  0.00    +0.000 C 
ATOM     17  C   UNL     1     -46.195 -37.300  49.762  0.00  0.00    +0.000 C 
ATOM     18  C   UNL     1     -48.583 -37.236  48.959  0.00  0.00    +0.000 C 
ATOM     19  C   UNL     1     -47.152 -37.594  48.629  0.00  0.00    +0.000 C 
ENDROOT
TORSDOF 0
ENDMDL
MODEL 9
REMARK VINA RESULT:      -5.4     18.164     20.767
REMARK  Name = 
REMARK  0 active torsions:
REMARK  status: ('A' for Active; 'I' for Inactive)
REMARK                            x       y       z     vdW  Elec       q    Type
REMARK                         _______ _______ _______ _____ _____    ______ ____
ROOT
ATOM      1  O   UNL     1     -44.355 -63.126  28.144  0.00  0.00    +0.000 OA
ATOM      2  O   UNL     1     -46.440 -64.464  32.728  0.00  0.00    +0.000 OA
ATOM      3  N   UNL     1     -45.349 -63.193  27.207  0.00  0.00    +0.000 N 
ATOM      4  N   UNL     1     -46.671 -63.286  30.749  0.00  0.00    +0.000 N 
ATOM      5  C   UNL     1     -46.756 -63.271  27.831  0.00  0.00    +0.000 C 
ATOM      6  C   UNL     1     -47.122 -62.019  28.653  0.00  0.00    +0.000 C 
ATOM      7  C   UNL     1     -46.989 -64.554  28.638  0.00  0.00    +0.000 C 
ATOM      8  C   UNL     1     -46.431 -62.006  30.046  0.00  0.00    +0.000 C 
ATOM      9  C   UNL     1     -46.920 -60.758  27.794  0.00  0.00    +0.000 C 
ATOM     10  C   UNL     1     -46.309 -64.497  30.006  0.00  0.00    +0.000 C 
ATOM     11  C   UNL     1     -45.263 -61.956  26.339  0.00  0.00    +0.000 C 
ATOM     12  C   UNL     1     -46.607 -65.806  27.837  0.00  0.00    +0.000 C 
ATOM     13  C   UNL     1     -45.121 -64.423  26.353  0.00  0.00    +0.000 C 
ATOM     14  C   UNL     1     -45.544 -60.693  27.144  0.00  0.00    +0.000 C 
ATOM     15  C   UNL     1     -45.239 -65.701  27.174  0.00  0.00    +0.000 C 
ATOM     16  C   UNL     1     -46.896 -60.796  30.873  0.00  0.00    +0.000 C 
ATOM     17  C   UNL     1     -46.353 -60.888  32.287  0.00  0.00    +0.000 C 
ATOM     18  C   UNL     1     -46.598 -63.392  32.140  0.00  0.00    +0.000 C 
ATOM     19  C   UNL     1     -46.888 -62.142  32.939  0.00  0.00    +0.000 C 
ENDROOT
TORSDOF 0
ENDMDL
