MODEL 1
REMARK VINA RESULT:      -6.9      0.000      0.000
REMARK  Name = 
REMARK  23 active torsions:
REMARK  status: ('A' for Active; 'I' for Inactive)
REMARK    1  A    between atoms: O_2  and  C_17
REMARK    2  A    between atoms: O_2  and  C_36
REMARK    3  A    between atoms: O_3  and  C_20
REMARK    4  A    between atoms: O_3  and  C_37
REMARK    5  A    between atoms: O_4  and  C_21
REMARK    6  A    between atoms: O_5  and  C_22
REMARK    7  A    between atoms: O_6  and  C_30
REMARK    8  A    between atoms: O_6  and  C_39
REMARK    9  A    between atoms: O_8  and  C_31
REMARK   10  A    between atoms: O_8  and  C_40
REMARK   11  A    between atoms: O_13  and  C_42
REMARK   12  A    between atoms: N_15  and  C_46
REMARK   13  A    between atoms: C_18  and  C_29
REMARK   14  A    between atoms: C_24  and  C_33
REMARK   15  A    between atoms: C_24  and  C_34
REMARK   16  A    between atoms: C_32  and  C_35
REMARK   17  A    between atoms: C_36  and  C_38
REMARK   18  A    between atoms: C_37  and  C_41
REMARK   19  A    between atoms: C_39  and  C_43
REMARK   20  A    between atoms: C_40  and  C_42
REMARK   21  A    between atoms: C_42  and  C_46
REMARK   22  A    between atoms: C_46  and  C_50
REMARK   23  A    between atoms: C_53  and  C_56
REMARK                            x       y       z     vdW  Elec       q    Type
REMARK                         _______ _______ _______ _____ _____    ______ ____
ROOT
ATOM      1  O   UNL     1     -48.187 -67.498  30.783  0.00  0.00    +0.000 OA
ATOM      2  O   UNL     1     -43.369 -66.708  35.324  0.00  0.00    +0.000 OA
ATOM      3  C   UNL     1     -46.794 -65.297  33.032  0.00  0.00    +0.000 C 
ATOM      4  C   UNL     1     -47.204 -65.787  31.612  0.00  0.00    +0.000 C 
ATOM      5  C   UNL     1     -45.078 -66.020  33.393  0.00  0.00    +0.000 C 
ATOM      6  C   UNL     1     -47.359 -67.323  31.965  0.00  0.00    +0.000 C 
ATOM      7  C   UNL     1     -47.179 -63.490  33.284  0.00  0.00    +0.000 C 
ATOM      8  C   UNL     1     -47.000 -62.101  34.559  0.00  0.00    +0.000 C 
ATOM      9  C   UNL     1     -45.296 -67.589  33.323  0.00  0.00    +0.000 C 
ATOM     10  C   UNL     1     -46.071 -68.107  32.074  0.00  0.00    +0.000 C 
ATOM     11  C   UNL     1     -46.042 -62.085  36.051  0.00  0.00    +0.000 C 
ATOM     12  C   UNL     1     -48.631 -66.106  31.013  0.00  0.00    +0.000 C 
ATOM     13  C   UNL     1     -44.007 -65.717  34.910  0.00  0.00    +0.000 C 
ATOM     14  C   UNL     1     -46.315 -60.884  33.783  0.00  0.00    +0.000 C 
ATOM     15  C   UNL     1     -44.506 -62.463  35.778  0.00  0.00    +0.000 C 
ATOM     16  C   UNL     1     -44.047 -65.754  32.219  0.00  0.00    +0.000 C 
ATOM     17  C   UNL     1     -43.777 -64.100  35.922  0.00  0.00    +0.000 C 
ATOM     18  C   UNL     1     -44.734 -60.706  33.897  0.00  0.00    +0.000 C 
ATOM     19  C   UNL     1     -43.909 -61.566  34.923  0.00  0.00    +0.000 C 
ATOM     20  C   UNL     1     -46.069 -60.567  36.591  0.00  0.00    +0.000 C 
ATOM     21  C   UNL     1     -46.647 -62.703  37.353  0.00  0.00    +0.000 C 
ATOM     22  C   UNL     1     -42.417 -61.528  34.702  0.00  0.00    +0.000 C 
ENDROOT
BRANCH   9  23
ATOM     23  O   UNL     1     -46.031 -68.009  34.472  0.00  0.00    +0.000 OA
ATOM     24  H   UNL     1     -46.893 -67.547  34.431  0.00  0.00    +0.000 HD
ENDBRANCH   9  23
BRANCH   8  25
ATOM     25  O   UNL     1     -48.344 -61.685  34.870  0.00  0.00    +0.000 OA
ATOM     26  H   UNL     1     -48.779 -61.393  34.050  0.00  0.00    +0.000 HD
ENDBRANCH   8  25
BRANCH  18  27
ATOM     27  O   UNL     1     -44.157 -60.966  32.584  0.00  0.00    +0.000 OA
BRANCH  27  29
ATOM     28  O   UNL     1     -42.395 -59.983  31.558  0.00  0.00    +0.000 OA
ATOM     29  C   UNL     1     -43.552 -59.922  31.961  0.00  0.00    +0.000 C 
BRANCH  29  30
ATOM     30  C   UNL     1     -44.372 -58.628  31.950  0.00  0.00    +0.000 C 
BRANCH  30  31
ATOM     31  O   UNL     1     -44.947 -58.277  30.687  0.00  0.00    +0.000 OA
ATOM     32  H   UNL     1     -44.815 -59.049  30.106  0.00  0.00    +0.000 HD
ENDBRANCH  30  31
BRANCH  30  33
ATOM     33  C   UNL     1     -43.467 -57.479  32.475  0.00  0.00    +0.000 C 
BRANCH  33  34
ATOM     34  C   UNL     1     -43.333 -57.550  33.990  0.00  0.00    +0.000 A 
ATOM     35  C   UNL     1     -42.100 -57.916  34.558  0.00  0.00    +0.000 A 
ATOM     36  C   UNL     1     -44.415 -57.292  34.846  0.00  0.00    +0.000 A 
ATOM     37  C   UNL     1     -41.950 -58.002  35.942  0.00  0.00    +0.000 A 
ATOM     38  C   UNL     1     -44.263 -57.377  36.230  0.00  0.00    +0.000 A 
ATOM     39  C   UNL     1     -43.030 -57.730  36.778  0.00  0.00    +0.000 A 
ENDBRANCH  33  34
BRANCH  33  41
ATOM     40  O   UNL     1     -43.762 -54.054  31.352  0.00  0.00    +0.000 OA
ATOM     41  N   UNL     1     -43.997 -56.176  32.054  0.00  0.00    +0.000 N 
ATOM     42  C   UNL     1     -43.406 -54.943  32.119  0.00  0.00    +0.000 C 
ATOM     43  H   UNL     1     -44.767 -56.224  31.394  0.00  0.00    +0.000 HD
BRANCH  42  44
ATOM     44  C   UNL     1     -42.305 -54.688  33.076  0.00  0.00    +0.000 A 
ATOM     45  C   UNL     1     -40.978 -54.993  32.759  0.00  0.00    +0.000 A 
ATOM     46  C   UNL     1     -42.625 -54.197  34.347  0.00  0.00    +0.000 A 
ATOM     47  C   UNL     1     -39.968 -54.748  33.690  0.00  0.00    +0.000 A 
ATOM     48  C   UNL     1     -41.614 -53.956  35.276  0.00  0.00    +0.000 A 
ATOM     49  C   UNL     1     -40.285 -54.223  34.943  0.00  0.00    +0.000 A 
ENDBRANCH  42  44
ENDBRANCH  33  41
ENDBRANCH  30  33
ENDBRANCH  29  30
ENDBRANCH  27  29
ENDBRANCH  18  27
BRANCH  17  50
ATOM     50  O   UNL     1     -43.756 -64.337  37.346  0.00  0.00    +0.000 OA
BRANCH  50  52
ATOM     51  O   UNL     1     -41.775 -64.928  38.204  0.00  0.00    +0.000 OA
ATOM     52  C   UNL     1     -42.673 -64.095  38.119  0.00  0.00    +0.000 C 
ATOM     53  C   UNL     1     -42.655 -62.831  38.924  0.00  0.00    +0.000 C 
ENDBRANCH  50  52
ENDBRANCH  17  50
BRANCH   7  54
ATOM     54  O   UNL     1     -45.934 -63.270  32.917  0.00  0.00    +0.000 OA
BRANCH  54  56
ATOM     55  O   UNL     1     -47.576 -62.734  31.890  0.00  0.00    +0.000 OA
ATOM     56  C   UNL     1     -46.360 -62.717  31.732  0.00  0.00    +0.000 C 
BRANCH  56  57
ATOM     57  C   UNL     1     -45.223 -62.397  30.225  0.00  0.00    +0.000 A 
ATOM     58  C   UNL     1     -45.471 -61.411  29.176  0.00  0.00    +0.000 A 
ATOM     59  C   UNL     1     -43.935 -62.959  29.975  0.00  0.00    +0.000 A 
ATOM     60  C   UNL     1     -44.608 -61.061  28.107  0.00  0.00    +0.000 A 
ATOM     61  C   UNL     1     -43.055 -62.623  28.907  0.00  0.00    +0.000 A 
ATOM     62  C   UNL     1     -43.388 -61.671  27.973  0.00  0.00    +0.000 A 
ENDBRANCH  56  57
ENDBRANCH  54  56
ENDBRANCH   7  54
BRANCH   4  63
ATOM     63  O   UNL     1     -46.191 -65.502  30.619  0.00  0.00    +0.000 OA
BRANCH  63  65
ATOM     64  O   UNL     1     -45.797 -66.653  28.744  0.00  0.00    +0.000 OA
ATOM     65  C   UNL     1     -46.344 -65.697  29.290  0.00  0.00    +0.000 C 
ATOM     66  C   UNL     1     -47.080 -64.679  28.478  0.00  0.00    +0.000 C 
ENDBRANCH  63  65
ENDBRANCH   4  63
TORSDOF 17
ENDMDL
MODEL 2
REMARK VINA RESULT:      -6.6      3.161      8.744
REMARK  Name = 
REMARK  23 active torsions:
REMARK  status: ('A' for Active; 'I' for Inactive)
REMARK    1  A    between atoms: O_2  and  C_17
REMARK    2  A    between atoms: O_2  and  C_36
REMARK    3  A    between atoms: O_3  and  C_20
REMARK    4  A    between atoms: O_3  and  C_37
REMARK    5  A    between atoms: O_4  and  C_21
REMARK    6  A    between atoms: O_5  and  C_22
REMARK    7  A    between atoms: O_6  and  C_30
REMARK    8  A    between atoms: O_6  and  C_39
REMARK    9  A    between atoms: O_8  and  C_31
REMARK   10  A    between atoms: O_8  and  C_40
REMARK   11  A    between atoms: O_13  and  C_42
REMARK   12  A    between atoms: N_15  and  C_46
REMARK   13  A    between atoms: C_18  and  C_29
REMARK   14  A    between atoms: C_24  and  C_33
REMARK   15  A    between atoms: C_24  and  C_34
REMARK   16  A    between atoms: C_32  and  C_35
REMARK   17  A    between atoms: C_36  and  C_38
REMARK   18  A    between atoms: C_37  and  C_41
REMARK   19  A    between atoms: C_39  and  C_43
REMARK   20  A    between atoms: C_40  and  C_42
REMARK   21  A    between atoms: C_42  and  C_46
REMARK   22  A    between atoms: C_46  and  C_50
REMARK   23  A    between atoms: C_53  and  C_56
REMARK                            x       y       z     vdW  Elec       q    Type
REMARK                         _______ _______ _______ _____ _____    ______ ____
ROOT
ATOM      1  O   UNL     1     -42.049 -58.194  30.867  0.00  0.00    +0.000 OA
ATOM      2  O   UNL     1     -45.290 -64.020  30.768  0.00  0.00    +0.000 OA
ATOM      3  C   UNL     1     -44.126 -60.272  32.658  0.00  0.00    +0.000 C 
ATOM      4  C   UNL     1     -42.807 -59.489  32.393  0.00  0.00    +0.000 C 
ATOM      5  C   UNL     1     -43.952 -61.957  31.805  0.00  0.00    +0.000 C 
ATOM      6  C   UNL     1     -42.997 -59.297  30.833  0.00  0.00    +0.000 C 
ATOM      7  C   UNL     1     -44.687 -60.114  34.430  0.00  0.00    +0.000 C 
ATOM      8  C   UNL     1     -46.036 -60.713  35.617  0.00  0.00    +0.000 C 
ATOM      9  C   UNL     1     -43.747 -61.597  30.274  0.00  0.00    +0.000 C 
ATOM     10  C   UNL     1     -42.680 -60.501  29.976  0.00  0.00    +0.000 C 
ATOM     11  C   UNL     1     -47.229 -62.004  35.375  0.00  0.00    +0.000 C 
ATOM     12  C   UNL     1     -42.552 -57.938  32.235  0.00  0.00    +0.000 C 
ATOM     13  C   UNL     1     -45.174 -63.387  31.839  0.00  0.00    +0.000 C 
ATOM     14  C   UNL     1     -45.268 -61.290  36.893  0.00  0.00    +0.000 C 
ATOM     15  C   UNL     1     -46.533 -63.390  34.961  0.00  0.00    +0.000 C 
ATOM     16  C   UNL     1     -42.597 -62.691  32.180  0.00  0.00    +0.000 C 
ATOM     17  C   UNL     1     -46.286 -63.991  33.285  0.00  0.00    +0.000 C 
ATOM     18  C   UNL     1     -45.000 -62.861  36.973  0.00  0.00    +0.000 C 
ATOM     19  C   UNL     1     -45.671 -63.835  35.936  0.00  0.00    +0.000 C 
ATOM     20  C   UNL     1     -47.940 -62.236  36.801  0.00  0.00    +0.000 C 
ATOM     21  C   UNL     1     -48.555 -61.683  34.613  0.00  0.00    +0.000 C 
ATOM     22  C   UNL     1     -45.088 -65.226  35.929  0.00  0.00    +0.000 C 
ENDROOT
BRANCH   9  23
ATOM     23  O   UNL     1     -44.984 -61.130  29.736  0.00  0.00    +0.000 OA
ATOM     24  H   UNL     1     -44.756 -60.441  29.081  0.00  0.00    +0.000 HD
ENDBRANCH   9  23
BRANCH   8  25
ATOM     25  O   UNL     1     -46.724 -59.525  36.052  0.00  0.00    +0.000 OA
ATOM     26  H   UNL     1     -46.202 -58.747  35.790  0.00  0.00    +0.000 HD
ENDBRANCH   8  25
BRANCH  18  27
ATOM     27  O   UNL     1     -43.562 -63.077  36.869  0.00  0.00    +0.000 OA
BRANCH  27  29
ATOM     28  O   UNL     1     -42.021 -64.277  38.013  0.00  0.00    +0.000 OA
ATOM     29  C   UNL     1     -42.911 -63.432  38.007  0.00  0.00    +0.000 C 
BRANCH  29  30
ATOM     30  C   UNL     1     -43.486 -62.816  39.286  0.00  0.00    +0.000 C 
BRANCH  30  31
ATOM     31  O   UNL     1     -42.536 -62.151  40.126  0.00  0.00    +0.000 OA
ATOM     32  H   UNL     1     -42.558 -62.618  40.982  0.00  0.00    +0.000 HD
ENDBRANCH  30  31
BRANCH  30  33
ATOM     33  C   UNL     1     -44.220 -63.937  40.074  0.00  0.00    +0.000 C 
BRANCH  33  34
ATOM     34  C   UNL     1     -45.261 -63.341  41.011  0.00  0.00    +0.000 A 
ATOM     35  C   UNL     1     -45.105 -63.490  42.400  0.00  0.00    +0.000 A 
ATOM     36  C   UNL     1     -46.396 -62.669  40.532  0.00  0.00    +0.000 A 
ATOM     37  C   UNL     1     -46.050 -62.967  43.284  0.00  0.00    +0.000 A 
ATOM     38  C   UNL     1     -47.339 -62.145  41.417  0.00  0.00    +0.000 A 
ATOM     39  C   UNL     1     -47.165 -62.291  42.792  0.00  0.00    +0.000 A 
ENDBRANCH  33  34
BRANCH  33  41
ATOM     40  O   UNL     1     -41.791 -66.456  40.987  0.00  0.00    +0.000 OA
ATOM     41  N   UNL     1     -43.254 -64.759  40.814  0.00  0.00    +0.000 N 
ATOM     42  C   UNL     1     -42.885 -66.059  40.598  0.00  0.00    +0.000 C 
ATOM     43  H   UNL     1     -42.586 -64.233  41.370  0.00  0.00    +0.000 HD
BRANCH  42  44
ATOM     44  C   UNL     1     -43.776 -66.979  39.856  0.00  0.00    +0.000 A 
ATOM     45  C   UNL     1     -43.457 -67.425  38.571  0.00  0.00    +0.000 A 
ATOM     46  C   UNL     1     -44.996 -67.344  40.440  0.00  0.00    +0.000 A 
ATOM     47  C   UNL     1     -44.327 -68.285  37.897  0.00  0.00    +0.000 A 
ATOM     48  C   UNL     1     -45.864 -68.200  39.764  0.00  0.00    +0.000 A 
ATOM     49  C   UNL     1     -45.524 -68.677  38.497  0.00  0.00    +0.000 A 
ENDBRANCH  42  44
ENDBRANCH  33  41
ENDBRANCH  30  33
ENDBRANCH  29  30
ENDBRANCH  27  29
ENDBRANCH  18  27
BRANCH  17  50
ATOM     50  O   UNL     1     -47.619 -64.338  32.850  0.00  0.00    +0.000 OA
BRANCH  50  52
ATOM     51  O   UNL     1     -48.935 -65.593  31.546  0.00  0.00    +0.000 OA
ATOM     52  C   UNL     1     -47.911 -65.495  32.216  0.00  0.00    +0.000 C 
ATOM     53  C   UNL     1     -46.998 -66.664  32.434  0.00  0.00    +0.000 C 
ENDBRANCH  50  52
ENDBRANCH  17  50
BRANCH   7  54
ATOM     54  O   UNL     1     -44.048 -61.246  34.635  0.00  0.00    +0.000 OA
BRANCH  54  56
ATOM     55  O   UNL     1     -43.516 -59.447  35.355  0.00  0.00    +0.000 OA
ATOM     56  C   UNL     1     -43.071 -60.590  35.346  0.00  0.00    +0.000 C 
BRANCH  56  57
ATOM     57  C   UNL     1     -41.379 -61.356  35.809  0.00  0.00    +0.000 A 
ATOM     58  C   UNL     1     -40.762 -62.503  35.146  0.00  0.00    +0.000 A 
ATOM     59  C   UNL     1     -40.429 -60.858  36.752  0.00  0.00    +0.000 A 
ATOM     60  C   UNL     1     -39.468 -63.033  35.378  0.00  0.00    +0.000 A 
ATOM     61  C   UNL     1     -39.127 -61.378  37.000  0.00  0.00    +0.000 A 
ATOM     62  C   UNL     1     -38.642 -62.464  36.312  0.00  0.00    +0.000 A 
ENDBRANCH  56  57
ENDBRANCH  54  56
ENDBRANCH   7  54
BRANCH   4  63
ATOM     63  O   UNL     1     -41.633 -60.251  32.762  0.00  0.00    +0.000 OA
BRANCH  63  65
ATOM     64  O   UNL     1     -40.124 -58.945  33.770  0.00  0.00    +0.000 OA
ATOM     65  C   UNL     1     -40.387 -59.737  32.867  0.00  0.00    +0.000 C 
ATOM     66  C   UNL     1     -39.373 -60.047  31.812  0.00  0.00    +0.000 C 
ENDBRANCH  63  65
ENDBRANCH   4  63
TORSDOF 17
ENDMDL
MODEL 3
REMARK VINA RESULT:      -6.6      3.439      5.029
REMARK  Name = 
REMARK  23 active torsions:
REMARK  status: ('A' for Active; 'I' for Inactive)
REMARK    1  A    between atoms: O_2  and  C_17
REMARK    2  A    between atoms: O_2  and  C_36
REMARK    3  A    between atoms: O_3  and  C_20
REMARK    4  A    between atoms: O_3  and  C_37
REMARK    5  A    between atoms: O_4  and  C_21
REMARK    6  A    between atoms: O_5  and  C_22
REMARK    7  A    between atoms: O_6  and  C_30
REMARK    8  A    between atoms: O_6  and  C_39
REMARK    9  A    between atoms: O_8  and  C_31
REMARK   10  A    between atoms: O_8  and  C_40
REMARK   11  A    between atoms: O_13  and  C_42
REMARK   12  A    between atoms: N_15  and  C_46
REMARK   13  A    between atoms: C_18  and  C_29
REMARK   14  A    between atoms: C_24  and  C_33
REMARK   15  A    between atoms: C_24  and  C_34
REMARK   16  A    between atoms: C_32  and  C_35
REMARK   17  A    between atoms: C_36  and  C_38
REMARK   18  A    between atoms: C_37  and  C_41
REMARK   19  A    between atoms: C_39  and  C_43
REMARK   20  A    between atoms: C_40  and  C_42
REMARK   21  A    between atoms: C_42  and  C_46
REMARK   22  A    between atoms: C_46  and  C_50
REMARK   23  A    between atoms: C_53  and  C_56
REMARK                            x       y       z     vdW  Elec       q    Type
REMARK                         _______ _______ _______ _____ _____    ______ ____
ROOT
ATOM      1  O   UNL     1     -45.215 -69.513  35.613  0.00  0.00    +0.000 OA
ATOM      2  O   UNL     1     -45.442 -65.285  40.764  0.00  0.00    +0.000 OA
ATOM      3  C   UNL     1     -45.487 -66.200  36.505  0.00  0.00    +0.000 C 
ATOM      4  C   UNL     1     -44.801 -67.424  35.829  0.00  0.00    +0.000 C 
ATOM      5  C   UNL     1     -44.880 -66.148  38.302  0.00  0.00    +0.000 C 
ATOM      6  C   UNL     1     -45.543 -68.552  36.655  0.00  0.00    +0.000 C 
ATOM      7  C   UNL     1     -45.460 -64.692  35.408  0.00  0.00    +0.000 C 
ATOM      8  C   UNL     1     -45.956 -62.864  35.390  0.00  0.00    +0.000 C 
ATOM      9  C   UNL     1     -45.353 -67.533  38.912  0.00  0.00    +0.000 C 
ATOM     10  C   UNL     1     -45.027 -68.794  38.055  0.00  0.00    +0.000 C 
ATOM     11  C   UNL     1     -46.476 -61.845  36.746  0.00  0.00    +0.000 C 
ATOM     12  C   UNL     1     -45.312 -68.373  34.674  0.00  0.00    +0.000 C 
ATOM     13  C   UNL     1     -45.277 -64.849  39.604  0.00  0.00    +0.000 C 
ATOM     14  C   UNL     1     -44.650 -62.064  34.935  0.00  0.00    +0.000 C 
ATOM     15  C   UNL     1     -45.420 -61.875  37.954  0.00  0.00    +0.000 C 
ATOM     16  C   UNL     1     -43.301 -66.235  38.413  0.00  0.00    +0.000 C 
ATOM     17  C   UNL     1     -45.487 -62.951  39.392  0.00  0.00    +0.000 C 
ATOM     18  C   UNL     1     -43.717 -61.431  36.063  0.00  0.00    +0.000 C 
ATOM     19  C   UNL     1     -44.190 -61.402  37.562  0.00  0.00    +0.000 C 
ATOM     20  C   UNL     1     -46.518 -60.335  36.187  0.00  0.00    +0.000 C 
ATOM     21  C   UNL     1     -47.976 -61.868  37.185  0.00  0.00    +0.000 C 
ATOM     22  C   UNL     1     -43.096 -61.075  38.549  0.00  0.00    +0.000 C 
ENDROOT
BRANCH   9  23
ATOM     23  O   UNL     1     -46.770 -67.505  39.086  0.00  0.00    +0.000 OA
ATOM     24  H   UNL     1     -46.932 -67.649  40.040  0.00  0.00    +0.000 HD
ENDBRANCH   9  23
BRANCH   8  25
ATOM     25  O   UNL     1     -46.912 -62.733  34.321  0.00  0.00    +0.000 OA
ATOM     26  H   UNL     1     -47.762 -62.439  34.695  0.00  0.00    +0.000 HD
ENDBRANCH   8  25
BRANCH  18  27
ATOM     27  O   UNL     1     -42.445 -62.144  36.046  0.00  0.00    +0.000 OA
BRANCH  27  29
ATOM     28  O   UNL     1     -40.534 -61.121  36.696  0.00  0.00    +0.000 OA
ATOM     29  C   UNL     1     -41.330 -61.406  35.808  0.00  0.00    +0.000 C 
BRANCH  29  30
ATOM     30  C   UNL     1     -41.240 -60.832  34.390  0.00  0.00    +0.000 C 
BRANCH  30  31
ATOM     31  O   UNL     1     -40.294 -61.475  33.528  0.00  0.00    +0.000 OA
ATOM     32  H   UNL     1     -39.508 -60.898  33.511  0.00  0.00    +0.000 HD
ENDBRANCH  30  31
BRANCH  30  33
ATOM     33  C   UNL     1     -40.930 -59.314  34.503  0.00  0.00    +0.000 C 
BRANCH  33  34
ATOM     34  C   UNL     1     -42.172 -58.542  34.928  0.00  0.00    +0.000 A 
ATOM     35  C   UNL     1     -42.210 -57.942  36.199  0.00  0.00    +0.000 A 
ATOM     36  C   UNL     1     -43.301 -58.436  34.102  0.00  0.00    +0.000 A 
ATOM     37  C   UNL     1     -43.339 -57.240  36.622  0.00  0.00    +0.000 A 
ATOM     38  C   UNL     1     -44.429 -57.731  34.526  0.00  0.00    +0.000 A 
ATOM     39  C   UNL     1     -44.447 -57.132  35.785  0.00  0.00    +0.000 A 
ENDBRANCH  33  34
BRANCH  33  41
ATOM     40  O   UNL     1     -38.813 -57.837  31.970  0.00  0.00    +0.000 OA
ATOM     41  N   UNL     1     -40.403 -58.802  33.231  0.00  0.00    +0.000 N 
ATOM     42  C   UNL     1     -39.454 -57.840  33.017  0.00  0.00    +0.000 C 
ATOM     43  H   UNL     1     -40.551 -59.414  32.434  0.00  0.00    +0.000 HD
BRANCH  42  44
ATOM     44  C   UNL     1     -39.160 -56.831  34.059  0.00  0.00    +0.000 A 
ATOM     45  C   UNL     1     -39.976 -55.710  34.240  0.00  0.00    +0.000 A 
ATOM     46  C   UNL     1     -37.996 -56.978  34.823  0.00  0.00    +0.000 A 
ATOM     47  C   UNL     1     -39.662 -54.773  35.226  0.00  0.00    +0.000 A 
ATOM     48  C   UNL     1     -37.683 -56.040  35.806  0.00  0.00    +0.000 A 
ATOM     49  C   UNL     1     -38.522 -54.943  36.012  0.00  0.00    +0.000 A 
ENDBRANCH  42  44
ENDBRANCH  33  41
ENDBRANCH  30  33
ENDBRANCH  29  30
ENDBRANCH  27  29
ENDBRANCH  18  27
BRANCH  17  50
ATOM     50  O   UNL     1     -46.597 -62.430  40.154  0.00  0.00    +0.000 OA
BRANCH  50  52
ATOM     51  O   UNL     1     -45.693 -61.126  41.733  0.00  0.00    +0.000 OA
ATOM     52  C   UNL     1     -46.484 -62.017  41.436  0.00  0.00    +0.000 C 
ATOM     53  C   UNL     1     -47.284 -62.739  42.479  0.00  0.00    +0.000 C 
ENDBRANCH  50  52
ENDBRANCH  17  50
BRANCH   7  54
ATOM     54  O   UNL     1     -44.364 -64.356  36.055  0.00  0.00    +0.000 OA
BRANCH  54  56
ATOM     55  O   UNL     1     -44.476 -64.830  34.106  0.00  0.00    +0.000 OA
ATOM     56  C   UNL     1     -43.603 -64.610  34.939  0.00  0.00    +0.000 C 
BRANCH  56  57
ATOM     57  C   UNL     1     -41.705 -64.851  34.964  0.00  0.00    +0.000 A 
ATOM     58  C   UNL     1     -40.892 -65.032  36.165  0.00  0.00    +0.000 A 
ATOM     59  C   UNL     1     -40.836 -65.021  33.843  0.00  0.00    +0.000 A 
ATOM     60  C   UNL     1     -39.507 -65.325  36.227  0.00  0.00    +0.000 A 
ATOM     61  C   UNL     1     -39.443 -65.313  33.885  0.00  0.00    +0.000 A 
ATOM     62  C   UNL     1     -38.776 -65.469  35.076  0.00  0.00    +0.000 A 
ENDBRANCH  56  57
ENDBRANCH  54  56
ENDBRANCH   7  54
BRANCH   4  63
ATOM     63  O   UNL     1     -43.364 -67.409  35.997  0.00  0.00    +0.000 OA
BRANCH  63  65
ATOM     64  O   UNL     1     -42.402 -68.156  34.122  0.00  0.00    +0.000 OA
ATOM     65  C   UNL     1     -42.507 -68.228  35.344  0.00  0.00    +0.000 C 
ATOM     66  C   UNL     1     -41.785 -69.292  36.107  0.00  0.00    +0.000 C 
ENDBRANCH  63  65
ENDBRANCH   4  63
TORSDOF 17
ENDMDL
MODEL 4
REMARK VINA RESULT:      -6.5      3.854      7.526
REMARK  Name = 
REMARK  23 active torsions:
REMARK  status: ('A' for Active; 'I' for Inactive)
REMARK    1  A    between atoms: O_2  and  C_17
REMARK    2  A    between atoms: O_2  and  C_36
REMARK    3  A    between atoms: O_3  and  C_20
REMARK    4  A    between atoms: O_3  and  C_37
REMARK    5  A    between atoms: O_4  and  C_21
REMARK    6  A    between atoms: O_5  and  C_22
REMARK    7  A    between atoms: O_6  and  C_30
REMARK    8  A    between atoms: O_6  and  C_39
REMARK    9  A    between atoms: O_8  and  C_31
REMARK   10  A    between atoms: O_8  and  C_40
REMARK   11  A    between atoms: O_13  and  C_42
REMARK   12  A    between atoms: N_15  and  C_46
REMARK   13  A    between atoms: C_18  and  C_29
REMARK   14  A    between atoms: C_24  and  C_33
REMARK   15  A    between atoms: C_24  and  C_34
REMARK   16  A    between atoms: C_32  and  C_35
REMARK   17  A    between atoms: C_36  and  C_38
REMARK   18  A    between atoms: C_37  and  C_41
REMARK   19  A    between atoms: C_39  and  C_43
REMARK   20  A    between atoms: C_40  and  C_42
REMARK   21  A    between atoms: C_42  and  C_46
REMARK   22  A    between atoms: C_46  and  C_50
REMARK   23  A    between atoms: C_53  and  C_56
REMARK                            x       y       z     vdW  Elec       q    Type
REMARK                         _______ _______ _______ _____ _____    ______ ____
ROOT
ATOM      1  O   UNL     1     -48.154 -59.609  34.912  0.00  0.00    +0.000 OA
ATOM      2  O   UNL     1     -46.217 -65.651  32.864  0.00  0.00    +0.000 OA
ATOM      3  C   UNL     1     -46.624 -62.535  35.881  0.00  0.00    +0.000 C 
ATOM      4  C   UNL     1     -46.687 -61.004  35.606  0.00  0.00    +0.000 C 
ATOM      5  C   UNL     1     -46.137 -63.372  34.249  0.00  0.00    +0.000 C 
ATOM      6  C   UNL     1     -47.944 -61.023  34.644  0.00  0.00    +0.000 C 
ATOM      7  C   UNL     1     -45.758 -62.921  37.486  0.00  0.00    +0.000 C 
ATOM      8  C   UNL     1     -45.190 -64.382  38.550  0.00  0.00    +0.000 C 
ATOM      9  C   UNL     1     -47.300 -62.973  33.247  0.00  0.00    +0.000 C 
ATOM     10  C   UNL     1     -47.680 -61.461  33.222  0.00  0.00    +0.000 C 
ATOM     11  C   UNL     1     -45.118 -66.102  38.121  0.00  0.00    +0.000 C 
ATOM     12  C   UNL     1     -47.595 -59.885  36.254  0.00  0.00    +0.000 C 
ATOM     13  C   UNL     1     -45.810 -65.201  33.956  0.00  0.00    +0.000 C 
ATOM     14  C   UNL     1     -43.646 -64.117  38.865  0.00  0.00    +0.000 C 
ATOM     15  C   UNL     1     -44.280 -66.346  36.774  0.00  0.00    +0.000 C 
ATOM     16  C   UNL     1     -44.858 -62.711  33.585  0.00  0.00    +0.000 C 
ATOM     17  C   UNL     1     -44.958 -66.476  35.114  0.00  0.00    +0.000 C 
ATOM     18  C   UNL     1     -42.552 -64.823  37.944  0.00  0.00    +0.000 C 
ATOM     19  C   UNL     1     -42.978 -65.924  36.905  0.00  0.00    +0.000 C 
ATOM     20  C   UNL     1     -44.323 -66.834  39.315  0.00  0.00    +0.000 C 
ATOM     21  C   UNL     1     -46.406 -66.976  38.259  0.00  0.00    +0.000 C 
ATOM     22  C   UNL     1     -41.910 -66.268  35.896  0.00  0.00    +0.000 C 
ENDROOT
BRANCH   9  23
ATOM     23  O   UNL     1     -48.482 -63.692  33.596  0.00  0.00    +0.000 OA
ATOM     24  H   UNL     1     -49.061 -63.671  32.807  0.00  0.00    +0.000 HD
ENDBRANCH   9  23
BRANCH   8  25
ATOM     25  O   UNL     1     -45.893 -64.248  39.800  0.00  0.00    +0.000 OA
ATOM     26  H   UNL     1     -45.541 -63.475  40.276  0.00  0.00    +0.000 HD
ENDBRANCH   8  25
BRANCH  18  27
ATOM     27  O   UNL     1     -41.865 -63.785  37.186  0.00  0.00    +0.000 OA
BRANCH  27  29
ATOM     28  O   UNL     1     -40.726 -62.493  38.653  0.00  0.00    +0.000 OA
ATOM     29  C   UNL     1     -40.719 -63.289  37.721  0.00  0.00    +0.000 C 
BRANCH  29  30
ATOM     30  C   UNL     1     -39.445 -63.679  36.965  0.00  0.00    +0.000 C 
BRANCH  30  31
ATOM     31  O   UNL     1     -39.077 -65.060  37.055  0.00  0.00    +0.000 OA
ATOM     32  H   UNL     1     -38.247 -65.086  37.566  0.00  0.00    +0.000 HD
ENDBRANCH  30  31
BRANCH  30  33
ATOM     33  C   UNL     1     -38.288 -62.773  37.470  0.00  0.00    +0.000 C 
BRANCH  33  34
ATOM     34  C   UNL     1     -37.944 -61.713  36.432  0.00  0.00    +0.000 A 
ATOM     35  C   UNL     1     -37.756 -62.095  35.092  0.00  0.00    +0.000 A 
ATOM     36  C   UNL     1     -37.775 -60.363  36.775  0.00  0.00    +0.000 A 
ATOM     37  C   UNL     1     -37.427 -61.149  34.120  0.00  0.00    +0.000 A 
ATOM     38  C   UNL     1     -37.447 -59.418  35.801  0.00  0.00    +0.000 A 
ATOM     39  C   UNL     1     -37.275 -59.810  34.475  0.00  0.00    +0.000 A 
ENDBRANCH  33  34
BRANCH  33  41
ATOM     40  O   UNL     1     -35.537 -64.334  39.223  0.00  0.00    +0.000 OA
ATOM     41  N   UNL     1     -37.111 -63.584  37.805  0.00  0.00    +0.000 N 
ATOM     42  C   UNL     1     -36.176 -63.382  38.784  0.00  0.00    +0.000 C 
ATOM     43  H   UNL     1     -37.141 -64.539  37.461  0.00  0.00    +0.000 HD
BRANCH  42  44
ATOM     44  C   UNL     1     -35.963 -62.032  39.351  0.00  0.00    +0.000 A 
ATOM     45  C   UNL     1     -36.764 -61.541  40.387  0.00  0.00    +0.000 A 
ATOM     46  C   UNL     1     -34.980 -61.214  38.780  0.00  0.00    +0.000 A 
ATOM     47  C   UNL     1     -36.540 -60.258  40.891  0.00  0.00    +0.000 A 
ATOM     48  C   UNL     1     -34.761 -59.932  39.283  0.00  0.00    +0.000 A 
ATOM     49  C   UNL     1     -35.534 -59.460  40.344  0.00  0.00    +0.000 A 
ENDBRANCH  42  44
ENDBRANCH  33  41
ENDBRANCH  30  33
ENDBRANCH  29  30
ENDBRANCH  27  29
ENDBRANCH  18  27
BRANCH  17  50
ATOM     50  O   UNL     1     -45.634 -67.752  35.124  0.00  0.00    +0.000 OA
BRANCH  50  52
ATOM     51  O   UNL     1     -45.866 -69.185  33.421  0.00  0.00    +0.000 OA
ATOM     52  C   UNL     1     -45.219 -68.813  34.395  0.00  0.00    +0.000 C 
ATOM     53  C   UNL     1     -44.008 -69.559  34.869  0.00  0.00    +0.000 C 
ENDBRANCH  50  52
ENDBRANCH  17  50
BRANCH   7  54
ATOM     54  O   UNL     1     -44.673 -63.072  36.757  0.00  0.00    +0.000 OA
BRANCH  54  56
ATOM     55  O   UNL     1     -44.926 -61.673  38.177  0.00  0.00    +0.000 OA
ATOM     56  C   UNL     1     -44.152 -61.900  37.253  0.00  0.00    +0.000 C 
BRANCH  56  57
ATOM     57  C   UNL     1     -42.793 -60.872  36.381  0.00  0.00    +0.000 A 
ATOM     58  C   UNL     1     -42.154 -61.220  35.113  0.00  0.00    +0.000 A 
ATOM     59  C   UNL     1     -42.305 -59.583  36.754  0.00  0.00    +0.000 A 
ATOM     60  C   UNL     1     -41.229 -60.439  34.377  0.00  0.00    +0.000 A 
ATOM     61  C   UNL     1     -41.376 -58.785  36.028  0.00  0.00    +0.000 A 
ATOM     62  C   UNL     1     -40.839 -59.209  34.837  0.00  0.00    +0.000 A 
ENDBRANCH  56  57
ENDBRANCH  54  56
ENDBRANCH   7  54
BRANCH   4  63
ATOM     63  O   UNL     1     -45.474 -60.507  34.994  0.00  0.00    +0.000 OA
BRANCH  63  65
ATOM     64  O   UNL     1     -45.328 -58.379  35.667  0.00  0.00    +0.000 OA
ATOM     65  C   UNL     1     -45.213 -59.201  34.759  0.00  0.00    +0.000 C 
ATOM     66  C   UNL     1     -44.902 -58.753  33.366  0.00  0.00    +0.000 C 
ENDBRANCH  63  65
ENDBRANCH   4  63
TORSDOF 17
ENDMDL
MODEL 5
REMARK VINA RESULT:      -6.3      4.453      9.716
REMARK  Name = 
REMARK  23 active torsions:
REMARK  status: ('A' for Active; 'I' for Inactive)
REMARK    1  A    between atoms: O_2  and  C_17
REMARK    2  A    between atoms: O_2  and  C_36
REMARK    3  A    between atoms: O_3  and  C_20
REMARK    4  A    between atoms: O_3  and  C_37
REMARK    5  A    between atoms: O_4  and  C_21
REMARK    6  A    between atoms: O_5  and  C_22
REMARK    7  A    between atoms: O_6  and  C_30
REMARK    8  A    between atoms: O_6  and  C_39
REMARK    9  A    between atoms: O_8  and  C_31
REMARK   10  A    between atoms: O_8  and  C_40
REMARK   11  A    between atoms: O_13  and  C_42
REMARK   12  A    between atoms: N_15  and  C_46
REMARK   13  A    between atoms: C_18  and  C_29
REMARK   14  A    between atoms: C_24  and  C_33
REMARK   15  A    between atoms: C_24  and  C_34
REMARK   16  A    between atoms: C_32  and  C_35
REMARK   17  A    between atoms: C_36  and  C_38
REMARK   18  A    between atoms: C_37  and  C_41
REMARK   19  A    between atoms: C_39  and  C_43
REMARK   20  A    between atoms: C_40  and  C_42
REMARK   21  A    between atoms: C_42  and  C_46
REMARK   22  A    between atoms: C_46  and  C_50
REMARK   23  A    between atoms: C_53  and  C_56
REMARK                            x       y       z     vdW  Elec       q    Type
REMARK                         _______ _______ _______ _____ _____    ______ ____
ROOT
ATOM      1  O   UNL     1     -45.353 -61.959  29.795  0.00  0.00    +0.000 OA
ATOM      2  O   UNL     1     -47.886 -61.820  35.961  0.00  0.00    +0.000 OA
ATOM      3  C   UNL     1     -44.881 -63.006  33.039  0.00  0.00    +0.000 C 
ATOM      4  C   UNL     1     -45.123 -63.212  31.516  0.00  0.00    +0.000 C 
ATOM      5  C   UNL     1     -46.584 -62.804  33.850  0.00  0.00    +0.000 C 
ATOM      6  C   UNL     1     -45.672 -61.761  31.200  0.00  0.00    +0.000 C 
ATOM      7  C   UNL     1     -43.602 -64.187  33.708  0.00  0.00    +0.000 C 
ATOM      8  C   UNL     1     -42.755 -64.695  35.324  0.00  0.00    +0.000 C 
ATOM      9  C   UNL     1     -47.198 -61.522  33.145  0.00  0.00    +0.000 C 
ATOM     10  C   UNL     1     -47.109 -61.500  31.589  0.00  0.00    +0.000 C 
ATOM     11  C   UNL     1     -43.187 -64.252  36.987  0.00  0.00    +0.000 C 
ATOM     12  C   UNL     1     -44.236 -62.804  30.274  0.00  0.00    +0.000 C 
ATOM     13  C   UNL     1     -46.962 -62.614  35.683  0.00  0.00    +0.000 C 
ATOM     14  C   UNL     1     -42.909 -66.282  35.417  0.00  0.00    +0.000 C 
ATOM     15  C   UNL     1     -44.722 -64.591  37.314  0.00  0.00    +0.000 C 
ATOM     16  C   UNL     1     -47.595 -63.952  33.435  0.00  0.00    +0.000 C 
ATOM     17  C   UNL     1     -46.108 -63.454  37.185  0.00  0.00    +0.000 C 
ATOM     18  C   UNL     1     -44.112 -66.879  36.278  0.00  0.00    +0.000 C 
ATOM     19  C   UNL     1     -44.980 -65.936  37.190  0.00  0.00    +0.000 C 
ATOM     20  C   UNL     1     -42.281 -65.172  37.950  0.00  0.00    +0.000 C 
ATOM     21  C   UNL     1     -42.676 -62.897  37.573  0.00  0.00    +0.000 C 
ATOM     22  C   UNL     1     -46.259 -66.564  37.687  0.00  0.00    +0.000 C 
ENDROOT
BRANCH   9  23
ATOM     23  O   UNL     1     -46.517 -60.360  33.617  0.00  0.00    +0.000 OA
ATOM     24  H   UNL     1     -46.855 -60.190  34.519  0.00  0.00    +0.000 HD
ENDBRANCH   9  23
BRANCH   8  25
ATOM     25  O   UNL     1     -41.353 -64.429  35.126  0.00  0.00    +0.000 OA
ATOM     26  H   UNL     1     -41.122 -64.638  34.204  0.00  0.00    +0.000 HD
ENDBRANCH   8  25
BRANCH  18  27
ATOM     27  O   UNL     1     -45.039 -67.533  35.362  0.00  0.00    +0.000 OA
BRANCH  27  29
ATOM     28  O   UNL     1     -45.313 -69.339  36.698  0.00  0.00    +0.000 OA
ATOM     29  C   UNL     1     -45.280 -68.853  35.573  0.00  0.00    +0.000 C 
BRANCH  29  30
ATOM     30  C   UNL     1     -45.345 -69.697  34.297  0.00  0.00    +0.000 C 
BRANCH  30  31
ATOM     31  O   UNL     1     -46.577 -70.397  34.087  0.00  0.00    +0.000 OA
ATOM     32  H   UNL     1     -47.235 -69.720  33.843  0.00  0.00    +0.000 HD
ENDBRANCH  30  31
BRANCH  30  33
ATOM     33  C   UNL     1     -44.150 -70.691  34.314  0.00  0.00    +0.000 C 
BRANCH  33  34
ATOM     34  C   UNL     1     -42.833 -69.948  34.139  0.00  0.00    +0.000 A 
ATOM     35  C   UNL     1     -41.912 -69.917  35.200  0.00  0.00    +0.000 A 
ATOM     36  C   UNL     1     -42.517 -69.262  32.956  0.00  0.00    +0.000 A 
ATOM     37  C   UNL     1     -40.701 -69.233  35.074  0.00  0.00    +0.000 A 
ATOM     38  C   UNL     1     -41.305 -68.581  32.831  0.00  0.00    +0.000 A 
ATOM     39  C   UNL     1     -40.397 -68.568  33.889  0.00  0.00    +0.000 A 
ENDBRANCH  33  34
BRANCH  33  41
ATOM     40  O   UNL     1     -44.208 -73.825  32.511  0.00  0.00    +0.000 OA
ATOM     41  N   UNL     1     -44.320 -71.715  33.275  0.00  0.00    +0.000 N 
ATOM     42  C   UNL     1     -43.673 -72.912  33.132  0.00  0.00    +0.000 C 
ATOM     43  H   UNL     1     -45.197 -71.662  32.767  0.00  0.00    +0.000 HD
BRANCH  42  44
ATOM     44  C   UNL     1     -42.351 -73.130  33.761  0.00  0.00    +0.000 A 
ATOM     45  C   UNL     1     -42.236 -73.614  35.068  0.00  0.00    +0.000 A 
ATOM     46  C   UNL     1     -41.202 -72.774  33.044  0.00  0.00    +0.000 A 
ATOM     47  C   UNL     1     -40.972 -73.798  35.632  0.00  0.00    +0.000 A 
ATOM     48  C   UNL     1     -39.941 -72.956  33.611  0.00  0.00    +0.000 A 
ATOM     49  C   UNL     1     -39.828 -73.477  34.901  0.00  0.00    +0.000 A 
ENDBRANCH  42  44
ENDBRANCH  33  41
ENDBRANCH  30  33
ENDBRANCH  29  30
ENDBRANCH  27  29
ENDBRANCH  18  27
BRANCH  17  50
ATOM     50  O   UNL     1     -45.900 -62.541  38.284  0.00  0.00    +0.000 OA
BRANCH  50  52
ATOM     51  O   UNL     1     -47.672 -61.863  39.472  0.00  0.00    +0.000 OA
ATOM     52  C   UNL     1     -46.657 -62.551  39.405  0.00  0.00    +0.000 C 
ATOM     53  C   UNL     1     -46.168 -63.350  40.575  0.00  0.00    +0.000 C 
ENDBRANCH  50  52
ENDBRANCH  17  50
BRANCH   7  54
ATOM     54  O   UNL     1     -44.619 -64.955  34.038  0.00  0.00    +0.000 OA
BRANCH  54  56
ATOM     55  O   UNL     1     -43.200 -65.429  32.698  0.00  0.00    +0.000 OA
ATOM     56  C   UNL     1     -44.308 -65.836  33.029  0.00  0.00    +0.000 C 
BRANCH  56  57
ATOM     57  C   UNL     1     -45.551 -67.073  32.261  0.00  0.00    +0.000 A 
ATOM     58  C   UNL     1     -46.979 -67.134  32.565  0.00  0.00    +0.000 A 
ATOM     59  C   UNL     1     -45.308 -68.007  31.208  0.00  0.00    +0.000 A 
ATOM     60  C   UNL     1     -47.954 -67.953  31.942  0.00  0.00    +0.000 A 
ATOM     61  C   UNL     1     -46.272 -68.838  30.572  0.00  0.00    +0.000 A 
ATOM     62  C   UNL     1     -47.597 -68.811  30.935  0.00  0.00    +0.000 A 
ENDBRANCH  56  57
ENDBRANCH  54  56
ENDBRANCH   7  54
BRANCH   4  63
ATOM     63  O   UNL     1     -46.066 -64.278  31.249  0.00  0.00    +0.000 OA
BRANCH  63  65
ATOM     64  O   UNL     1     -45.356 -65.266  29.373  0.00  0.00    +0.000 OA
ATOM     65  C   UNL     1     -46.293 -64.813  30.028  0.00  0.00    +0.000 C 
ATOM     66  C   UNL     1     -47.666 -64.741  29.439  0.00  0.00    +0.000 C 
ENDBRANCH  63  65
ENDBRANCH   4  63
TORSDOF 17
ENDMDL
MODEL 6
REMARK VINA RESULT:      -6.3      2.489      4.365
REMARK  Name = 
REMARK  23 active torsions:
REMARK  status: ('A' for Active; 'I' for Inactive)
REMARK    1  A    between atoms: O_2  and  C_17
REMARK    2  A    between atoms: O_2  and  C_36
REMARK    3  A    between atoms: O_3  and  C_20
REMARK    4  A    between atoms: O_3  and  C_37
REMARK    5  A    between atoms: O_4  and  C_21
REMARK    6  A    between atoms: O_5  and  C_22
REMARK    7  A    between atoms: O_6  and  C_30
REMARK    8  A    between atoms: O_6  and  C_39
REMARK    9  A    between atoms: O_8  and  C_31
REMARK   10  A    between atoms: O_8  and  C_40
REMARK   11  A    between atoms: O_13  and  C_42
REMARK   12  A    between atoms: N_15  and  C_46
REMARK   13  A    between atoms: C_18  and  C_29
REMARK   14  A    between atoms: C_24  and  C_33
REMARK   15  A    between atoms: C_24  and  C_34
REMARK   16  A    between atoms: C_32  and  C_35
REMARK   17  A    between atoms: C_36  and  C_38
REMARK   18  A    between atoms: C_37  and  C_41
REMARK   19  A    between atoms: C_39  and  C_43
REMARK   20  A    between atoms: C_40  and  C_42
REMARK   21  A    between atoms: C_42  and  C_46
REMARK   22  A    between atoms: C_46  and  C_50
REMARK   23  A    between atoms: C_53  and  C_56
REMARK                            x       y       z     vdW  Elec       q    Type
REMARK                         _______ _______ _______ _____ _____    ______ ____
ROOT
ATOM      1  O   UNL     1     -47.052 -66.017  32.047  0.00  0.00    +0.000 OA
ATOM      2  O   UNL     1     -42.369 -68.430  36.133  0.00  0.00    +0.000 OA
ATOM      3  C   UNL     1     -45.290 -65.426  34.943  0.00  0.00    +0.000 C 
ATOM      4  C   UNL     1     -45.742 -65.123  33.484  0.00  0.00    +0.000 C 
ATOM      5  C   UNL     1     -43.798 -66.592  34.829  0.00  0.00    +0.000 C 
ATOM      6  C   UNL     1     -46.254 -66.578  33.126  0.00  0.00    +0.000 C 
ATOM      7  C   UNL     1     -45.266 -63.889  35.999  0.00  0.00    +0.000 C 
ATOM      8  C   UNL     1     -44.830 -63.297  37.744  0.00  0.00    +0.000 C 
ATOM      9  C   UNL     1     -44.362 -67.871  34.082  0.00  0.00    +0.000 C 
ATOM     10  C   UNL     1     -45.183 -67.589  32.787  0.00  0.00    +0.000 C 
ATOM     11  C   UNL     1     -43.954 -64.163  39.020  0.00  0.00    +0.000 C 
ATOM     12  C   UNL     1     -47.178 -64.816  32.902  0.00  0.00    +0.000 C 
ATOM     13  C   UNL     1     -42.748 -67.245  36.247  0.00  0.00    +0.000 C 
ATOM     14  C   UNL     1     -43.856 -62.045  37.549  0.00  0.00    +0.000 C 
ATOM     15  C   UNL     1     -42.533 -64.706  38.506  0.00  0.00    +0.000 C 
ATOM     16  C   UNL     1     -42.686 -66.061  33.831  0.00  0.00    +0.000 C 
ATOM     17  C   UNL     1     -42.199 -66.349  37.856  0.00  0.00    +0.000 C 
ATOM     18  C   UNL     1     -42.281 -62.290  37.624  0.00  0.00    +0.000 C 
ATOM     19  C   UNL     1     -41.714 -63.677  38.102  0.00  0.00    +0.000 C 
ATOM     20  C   UNL     1     -43.659 -63.085  40.180  0.00  0.00    +0.000 C 
ATOM     21  C   UNL     1     -44.735 -65.150  39.947  0.00  0.00    +0.000 C 
ATOM     22  C   UNL     1     -40.245 -63.873  37.823  0.00  0.00    +0.000 C 
ENDROOT
BRANCH   9  23
ATOM     23  O   UNL     1     -45.219 -68.589  34.969  0.00  0.00    +0.000 OA
ATOM     24  H   UNL     1     -44.636 -69.026  35.622  0.00  0.00    +0.000 HD
ENDBRANCH   9  23
BRANCH   8  25
ATOM     25  O   UNL     1     -46.056 -62.781  38.296  0.00  0.00    +0.000 OA
ATOM     26  H   UNL     1     -45.981 -61.814  38.377  0.00  0.00    +0.000 HD
ENDBRANCH   8  25
BRANCH  18  27
ATOM     27  O   UNL     1     -41.726 -62.053  36.298  0.00  0.00    +0.000 OA
BRANCH  27  29
ATOM     28  O   UNL     1     -39.922 -60.702  36.501  0.00  0.00    +0.000 OA
ATOM     29  C   UNL     1     -41.070 -60.879  36.107  0.00  0.00    +0.000 C 
BRANCH  29  30
ATOM     30  C   UNL     1     -41.930 -59.760  35.514  0.00  0.00    +0.000 C 
BRANCH  30  31
ATOM     31  O   UNL     1     -42.479 -60.031  34.218  0.00  0.00    +0.000 OA
ATOM     32  H   UNL     1     -41.762 -60.446  33.703  0.00  0.00    +0.000 HD
ENDBRANCH  30  31
BRANCH  30  33
ATOM     33  C   UNL     1     -41.079 -58.461  35.484  0.00  0.00    +0.000 C 
BRANCH  33  34
ATOM     34  C   UNL     1     -41.961 -57.236  35.684  0.00  0.00    +0.000 A 
ATOM     35  C   UNL     1     -43.130 -57.346  36.458  0.00  0.00    +0.000 A 
ATOM     36  C   UNL     1     -41.663 -55.999  35.092  0.00  0.00    +0.000 A 
ATOM     37  C   UNL     1     -43.966 -56.245  36.648  0.00  0.00    +0.000 A 
ATOM     38  C   UNL     1     -42.499 -54.898  35.286  0.00  0.00    +0.000 A 
ATOM     39  C   UNL     1     -43.649 -55.021  36.065  0.00  0.00    +0.000 A 
ENDBRANCH  33  34
BRANCH  33  41
ATOM     40  O   UNL     1     -38.451 -58.531  33.001  0.00  0.00    +0.000 OA
ATOM     41  N   UNL     1     -40.328 -58.368  34.226  0.00  0.00    +0.000 N 
ATOM     42  C   UNL     1     -38.991 -58.148  34.034  0.00  0.00    +0.000 C 
ATOM     43  H   UNL     1     -40.792 -58.783  33.423  0.00  0.00    +0.000 HD
BRANCH  42  44
ATOM     44  C   UNL     1     -38.180 -57.494  35.086  0.00  0.00    +0.000 A 
ATOM     45  C   UNL     1     -37.386 -58.238  35.963  0.00  0.00    +0.000 A 
ATOM     46  C   UNL     1     -38.276 -56.106  35.237  0.00  0.00    +0.000 A 
ATOM     47  C   UNL     1     -36.642 -57.588  36.950  0.00  0.00    +0.000 A 
ATOM     48  C   UNL     1     -37.534 -55.458  36.225  0.00  0.00    +0.000 A 
ATOM     49  C   UNL     1     -36.711 -56.200  37.074  0.00  0.00    +0.000 A 
ENDBRANCH  42  44
ENDBRANCH  33  41
ENDBRANCH  30  33
ENDBRANCH  29  30
ENDBRANCH  27  29
ENDBRANCH  18  27
BRANCH  17  50
ATOM     50  O   UNL     1     -42.290 -67.197  39.021  0.00  0.00    +0.000 OA
BRANCH  50  52
ATOM     51  O   UNL     1     -41.365 -66.992  41.048  0.00  0.00    +0.000 OA
ATOM     52  C   UNL     1     -41.267 -67.375  39.886  0.00  0.00    +0.000 C 
ATOM     53  C   UNL     1     -39.996 -67.968  39.357  0.00  0.00    +0.000 C 
ENDBRANCH  50  52
ENDBRANCH  17  50
BRANCH   7  54
ATOM     54  O   UNL     1     -43.990 -63.807  35.687  0.00  0.00    +0.000 OA
BRANCH  54  56
ATOM     55  O   UNL     1     -43.227 -62.799  34.126  0.00  0.00    +0.000 OA
ATOM     56  C   UNL     1     -44.250 -62.788  34.801  0.00  0.00    +0.000 C 
BRANCH  56  57
ATOM     57  C   UNL     1     -45.718 -61.571  34.965  0.00  0.00    +0.000 A 
ATOM     58  C   UNL     1     -47.095 -61.850  34.564  0.00  0.00    +0.000 A 
ATOM     59  C   UNL     1     -45.721 -60.294  35.605  0.00  0.00    +0.000 A 
ATOM     60  C   UNL     1     -48.231 -61.027  34.767  0.00  0.00    +0.000 A 
ATOM     61  C   UNL     1     -46.850 -59.453  35.817  0.00  0.00    +0.000 A 
ATOM     62  C   UNL     1     -48.108 -59.819  35.402  0.00  0.00    +0.000 A 
ENDBRANCH  56  57
ENDBRANCH  54  56
ENDBRANCH   7  54
BRANCH   4  63
ATOM     63  O   UNL     1     -44.652 -64.653  32.658  0.00  0.00    +0.000 OA
BRANCH  63  65
ATOM     64  O   UNL     1     -44.546 -64.827  30.431  0.00  0.00    +0.000 OA
ATOM     65  C   UNL     1     -44.797 -64.136  31.417  0.00  0.00    +0.000 C 
ATOM     66  C   UNL     1     -45.149 -62.691  31.260  0.00  0.00    +0.000 C 
ENDBRANCH  63  65
ENDBRANCH   4  63
TORSDOF 17
ENDMDL
MODEL 7
REMARK VINA RESULT:      -6.3     22.629     26.975
REMARK  Name = 
REMARK  23 active torsions:
REMARK  status: ('A' for Active; 'I' for Inactive)
REMARK    1  A    between atoms: O_2  and  C_17
REMARK    2  A    between atoms: O_2  and  C_36
REMARK    3  A    between atoms: O_3  and  C_20
REMARK    4  A    between atoms: O_3  and  C_37
REMARK    5  A    between atoms: O_4  and  C_21
REMARK    6  A    between atoms: O_5  and  C_22
REMARK    7  A    between atoms: O_6  and  C_30
REMARK    8  A    between atoms: O_6  and  C_39
REMARK    9  A    between atoms: O_8  and  C_31
REMARK   10  A    between atoms: O_8  and  C_40
REMARK   11  A    between atoms: O_13  and  C_42
REMARK   12  A    between atoms: N_15  and  C_46
REMARK   13  A    between atoms: C_18  and  C_29
REMARK   14  A    between atoms: C_24  and  C_33
REMARK   15  A    between atoms: C_24  and  C_34
REMARK   16  A    between atoms: C_32  and  C_35
REMARK   17  A    between atoms: C_36  and  C_38
REMARK   18  A    between atoms: C_37  and  C_41
REMARK   19  A    between atoms: C_39  and  C_43
REMARK   20  A    between atoms: C_40  and  C_42
REMARK   21  A    between atoms: C_42  and  C_46
REMARK   22  A    between atoms: C_46  and  C_50
REMARK   23  A    between atoms: C_53  and  C_56
REMARK                            x       y       z     vdW  Elec       q    Type
REMARK                         _______ _______ _______ _____ _____    ______ ____
ROOT
ATOM      1  O   UNL     1     -63.381 -37.809  36.700  0.00  0.00    +0.000 OA
ATOM      2  O   UNL     1     -59.370 -37.425  31.388  0.00  0.00    +0.000 OA
ATOM      3  C   UNL     1     -60.371 -38.837  35.386  0.00  0.00    +0.000 C 
ATOM      4  C   UNL     1     -61.280 -38.098  36.411  0.00  0.00    +0.000 C 
ATOM      5  C   UNL     1     -60.044 -37.626  33.962  0.00  0.00    +0.000 C 
ATOM      6  C   UNL     1     -62.575 -38.008  35.506  0.00  0.00    +0.000 C 
ATOM      7  C   UNL     1     -58.993 -39.774  36.223  0.00  0.00    +0.000 C 
ATOM      8  C   UNL     1     -57.475 -40.837  35.834  0.00  0.00    +0.000 C 
ATOM      9  C   UNL     1     -61.487 -37.305  33.387  0.00  0.00    +0.000 C 
ATOM     10  C   UNL     1     -62.567 -36.930  34.447  0.00  0.00    +0.000 C 
ATOM     11  C   UNL     1     -56.675 -41.095  34.272  0.00  0.00    +0.000 C 
ATOM     12  C   UNL     1     -62.386 -38.660  37.389  0.00  0.00    +0.000 C 
ATOM     13  C   UNL     1     -58.941 -37.897  32.463  0.00  0.00    +0.000 C 
ATOM     14  C   UNL     1     -56.267 -40.187  36.653  0.00  0.00    +0.000 C 
ATOM     15  C   UNL     1     -56.278 -39.708  33.568  0.00  0.00    +0.000 C 
ATOM     16  C   UNL     1     -59.544 -36.210  34.471  0.00  0.00    +0.000 C 
ATOM     17  C   UNL     1     -57.259 -38.819  32.352  0.00  0.00    +0.000 C 
ATOM     18  C   UNL     1     -55.301 -39.166  35.899  0.00  0.00    +0.000 C 
ATOM     19  C   UNL     1     -55.400 -38.982  34.340  0.00  0.00    +0.000 C 
ATOM     20  C   UNL     1     -55.303 -41.877  34.589  0.00  0.00    +0.000 C 
ATOM     21  C   UNL     1     -57.231 -42.186  33.301  0.00  0.00    +0.000 C 
ATOM     22  C   UNL     1     -54.665 -37.775  33.812  0.00  0.00    +0.000 C 
ENDROOT
BRANCH   9  23
ATOM     23  O   UNL     1     -61.973 -38.448  32.685  0.00  0.00    +0.000 OA
ATOM     24  H   UNL     1     -61.226 -38.779  32.147  0.00  0.00    +0.000 HD
ENDBRANCH   9  23
BRANCH   8  25
ATOM     25  O   UNL     1     -57.736 -42.120  36.435  0.00  0.00    +0.000 OA
ATOM     26  H   UNL     1     -57.993 -42.747  35.736  0.00  0.00    +0.000 HD
ENDBRANCH   8  25
BRANCH  18  27
ATOM     27  O   UNL     1     -55.500 -37.845  36.482  0.00  0.00    +0.000 OA
BRANCH  27  29
ATOM     28  O   UNL     1     -53.569 -36.908  37.199  0.00  0.00    +0.000 OA
ATOM     29  C   UNL     1     -54.631 -37.466  37.454  0.00  0.00    +0.000 C 
BRANCH  29  30
ATOM     30  C   UNL     1     -55.010 -37.935  38.863  0.00  0.00    +0.000 C 
BRANCH  30  31
ATOM     31  O   UNL     1     -55.531 -36.920  39.727  0.00  0.00    +0.000 OA
ATOM     32  H   UNL     1     -54.758 -36.494  40.141  0.00  0.00    +0.000 HD
ENDBRANCH  30  31
BRANCH  30  33
ATOM     33  C   UNL     1     -53.762 -38.606  39.500  0.00  0.00    +0.000 C 
BRANCH  33  34
ATOM     34  C   UNL     1     -53.762 -40.105  39.234  0.00  0.00    +0.000 A 
ATOM     35  C   UNL     1     -54.642 -40.933  39.952  0.00  0.00    +0.000 A 
ATOM     36  C   UNL     1     -52.886 -40.698  38.312  0.00  0.00    +0.000 A 
ATOM     37  C   UNL     1     -54.657 -42.312  39.740  0.00  0.00    +0.000 A 
ATOM     38  C   UNL     1     -52.903 -42.077  38.099  0.00  0.00    +0.000 A 
ATOM     39  C   UNL     1     -53.790 -42.883  38.811  0.00  0.00    +0.000 A 
ENDBRANCH  33  34
BRANCH  33  41
ATOM     40  O   UNL     1     -52.615 -37.909  42.859  0.00  0.00    +0.000 OA
ATOM     41  N   UNL     1     -53.710 -38.327  40.941  0.00  0.00    +0.000 N 
ATOM     42  C   UNL     1     -52.700 -38.574  41.831  0.00  0.00    +0.000 C 
ATOM     43  H   UNL     1     -54.375 -37.631  41.263  0.00  0.00    +0.000 HD
BRANCH  42  44
ATOM     44  C   UNL     1     -51.679 -39.606  41.540  0.00  0.00    +0.000 A 
ATOM     45  C   UNL     1     -50.568 -39.327  40.738  0.00  0.00    +0.000 A 
ATOM     46  C   UNL     1     -51.882 -40.902  42.027  0.00  0.00    +0.000 A 
ATOM     47  C   UNL     1     -49.631 -40.328  40.477  0.00  0.00    +0.000 A 
ATOM     48  C   UNL     1     -50.946 -41.902  41.762  0.00  0.00    +0.000 A 
ATOM     49  C   UNL     1     -49.816 -41.611  40.995  0.00  0.00    +0.000 A 
ENDBRANCH  42  44
ENDBRANCH  33  41
ENDBRANCH  30  33
ENDBRANCH  29  30
ENDBRANCH  27  29
ENDBRANCH  18  27
BRANCH  17  50
ATOM     50  O   UNL     1     -57.156 -39.641  31.169  0.00  0.00    +0.000 OA
BRANCH  50  52
ATOM     51  O   UNL     1     -56.564 -38.457  29.365  0.00  0.00    +0.000 OA
ATOM     52  C   UNL     1     -56.311 -39.366  30.150  0.00  0.00    +0.000 C 
ATOM     53  C   UNL     1     -55.120 -40.258  29.966  0.00  0.00    +0.000 C 
ENDBRANCH  50  52
ENDBRANCH  17  50
BRANCH   7  54
ATOM     54  O   UNL     1     -58.259 -38.703  36.006  0.00  0.00    +0.000 OA
BRANCH  54  56
ATOM     55  O   UNL     1     -58.019 -37.146  37.253  0.00  0.00    +0.000 OA
ATOM     56  C   UNL     1     -58.421 -38.303  37.312  0.00  0.00    +0.000 C 
BRANCH  56  57
ATOM     57  C   UNL     1     -58.844 -39.488  38.755  0.00  0.00    +0.000 A 
ATOM     58  C   UNL     1     -57.896 -39.970  39.757  0.00  0.00    +0.000 A 
ATOM     59  C   UNL     1     -60.135 -39.961  39.141  0.00  0.00    +0.000 A 
ATOM     60  C   UNL     1     -58.183 -40.753  40.903  0.00  0.00    +0.000 A 
ATOM     61  C   UNL     1     -60.443 -40.749  40.285  0.00  0.00    +0.000 A 
ATOM     62  C   UNL     1     -59.469 -41.144  41.170  0.00  0.00    +0.000 A 
ENDBRANCH  56  57
ENDBRANCH  54  56
ENDBRANCH   7  54
BRANCH   4  63
ATOM     63  O   UNL     1     -60.735 -36.815  36.803  0.00  0.00    +0.000 OA
BRANCH  63  65
ATOM     64  O   UNL     1     -60.855 -36.497  39.013  0.00  0.00    +0.000 OA
ATOM     65  C   UNL     1     -61.140 -36.107  37.882  0.00  0.00    +0.000 C 
ATOM     66  C   UNL     1     -62.030 -34.921  37.690  0.00  0.00    +0.000 C 
ENDBRANCH  63  65
ENDBRANCH   4  63
TORSDOF 17
ENDMDL
MODEL 8
REMARK VINA RESULT:      -6.3      2.662      8.600
REMARK  Name = 
REMARK  23 active torsions:
REMARK  status: ('A' for Active; 'I' for Inactive)
REMARK    1  A    between atoms: O_2  and  C_17
REMARK    2  A    between atoms: O_2  and  C_36
REMARK    3  A    between atoms: O_3  and  C_20
REMARK    4  A    between atoms: O_3  and  C_37
REMARK    5  A    between atoms: O_4  and  C_21
REMARK    6  A    between atoms: O_5  and  C_22
REMARK    7  A    between atoms: O_6  and  C_30
REMARK    8  A    between atoms: O_6  and  C_39
REMARK    9  A    between atoms: O_8  and  C_31
REMARK   10  A    between atoms: O_8  and  C_40
REMARK   11  A    between atoms: O_13  and  C_42
REMARK   12  A    between atoms: N_15  and  C_46
REMARK   13  A    between atoms: C_18  and  C_29
REMARK   14  A    between atoms: C_24  and  C_33
REMARK   15  A    between atoms: C_24  and  C_34
REMARK   16  A    between atoms: C_32  and  C_35
REMARK   17  A    between atoms: C_36  and  C_38
REMARK   18  A    between atoms: C_37  and  C_41
REMARK   19  A    between atoms: C_39  and  C_43
REMARK   20  A    between atoms: C_40  and  C_42
REMARK   21  A    between atoms: C_42  and  C_46
REMARK   22  A    between atoms: C_46  and  C_50
REMARK   23  A    between atoms: C_53  and  C_56
REMARK                            x       y       z     vdW  Elec       q    Type
REMARK                         _______ _______ _______ _____ _____    ______ ____
ROOT
ATOM      1  O   UNL     1     -43.663 -56.842  29.501  0.00  0.00    +0.000 OA
ATOM      2  O   UNL     1     -45.928 -63.098  29.944  0.00  0.00    +0.000 OA
ATOM      3  C   UNL     1     -44.891 -59.228  31.655  0.00  0.00    +0.000 C 
ATOM      4  C   UNL     1     -43.812 -58.250  31.107  0.00  0.00    +0.000 C 
ATOM      5  C   UNL     1     -44.690 -60.861  30.710  0.00  0.00    +0.000 C 
ATOM      6  C   UNL     1     -44.415 -58.078  29.653  0.00  0.00    +0.000 C 
ATOM      7  C   UNL     1     -45.004 -59.171  33.516  0.00  0.00    +0.000 C 
ATOM      8  C   UNL     1     -45.907 -59.980  34.972  0.00  0.00    +0.000 C 
ATOM      9  C   UNL     1     -44.934 -60.463  29.194  0.00  0.00    +0.000 C 
ATOM     10  C   UNL     1     -44.150 -59.213  28.691  0.00  0.00    +0.000 C 
ATOM     11  C   UNL     1     -46.918 -61.437  34.975  0.00  0.00    +0.000 C 
ATOM     12  C   UNL     1     -43.837 -56.677  30.961  0.00  0.00    +0.000 C 
ATOM     13  C   UNL     1     -45.640 -62.462  30.981  0.00  0.00    +0.000 C 
ATOM     14  C   UNL     1     -44.765 -60.440  35.990  0.00  0.00    +0.000 C 
ATOM     15  C   UNL     1     -46.152 -62.696  34.338  0.00  0.00    +0.000 C 
ATOM     16  C   UNL     1     -43.192 -61.380  30.703  0.00  0.00    +0.000 C 
ATOM     17  C   UNL     1     -46.250 -63.241  32.628  0.00  0.00    +0.000 C 
ATOM     18  C   UNL     1     -44.257 -61.951  35.929  0.00  0.00    +0.000 C 
ATOM     19  C   UNL     1     -45.017 -63.010  35.049  0.00  0.00    +0.000 C 
ATOM     20  C   UNL     1     -47.204 -61.786  36.521  0.00  0.00    +0.000 C 
ATOM     21  C   UNL     1     -48.426 -61.320  34.581  0.00  0.00    +0.000 C 
ATOM     22  C   UNL     1     -44.255 -64.294  34.833  0.00  0.00    +0.000 C 
ENDROOT
BRANCH   9  23
ATOM     23  O   UNL     1     -46.321 -60.189  29.001  0.00  0.00    +0.000 OA
ATOM     24  H   UNL     1     -46.808 -60.912  29.445  0.00  0.00    +0.000 HD
ENDBRANCH   9  23
BRANCH   8  25
ATOM     25  O   UNL     1     -46.630 -58.915  35.618  0.00  0.00    +0.000 OA
ATOM     26  H   UNL     1     -47.479 -59.265  35.941  0.00  0.00    +0.000 HD
ENDBRANCH   8  25
BRANCH  18  27
ATOM     27  O   UNL     1     -42.876 -61.942  35.463  0.00  0.00    +0.000 OA
BRANCH  27  29
ATOM     28  O   UNL     1     -41.038 -63.228  35.760  0.00  0.00    +0.000 OA
ATOM     29  C   UNL     1     -41.962 -62.578  36.239  0.00  0.00    +0.000 C 
BRANCH  29  30
ATOM     30  C   UNL     1     -42.273 -62.551  37.738  0.00  0.00    +0.000 C 
BRANCH  30  31
ATOM     31  O   UNL     1     -41.174 -62.196  38.586  0.00  0.00    +0.000 OA
ATOM     32  H   UNL     1     -41.486 -61.454  39.136  0.00  0.00    +0.000 HD
ENDBRANCH  30  31
BRANCH  30  33
ATOM     33  C   UNL     1     -42.843 -63.941  38.138  0.00  0.00    +0.000 C 
BRANCH  33  34
ATOM     34  C   UNL     1     -43.976 -63.787  39.143  0.00  0.00    +0.000 A 
ATOM     35  C   UNL     1     -43.679 -63.415  40.466  0.00  0.00    +0.000 A 
ATOM     36  C   UNL     1     -45.314 -64.037  38.801  0.00  0.00    +0.000 A 
ATOM     37  C   UNL     1     -44.695 -63.279  41.414  0.00  0.00    +0.000 A 
ATOM     38  C   UNL     1     -46.328 -63.899  39.749  0.00  0.00    +0.000 A 
ATOM     39  C   UNL     1     -46.019 -63.518  41.054  0.00  0.00    +0.000 A 
ENDBRANCH  33  34
BRANCH  33  41
ATOM     40  O   UNL     1     -40.718 -66.767  38.898  0.00  0.00    +0.000 OA
ATOM     41  N   UNL     1     -41.777 -64.797  38.673  0.00  0.00    +0.000 N 
ATOM     42  C   UNL     1     -41.780 -66.151  38.876  0.00  0.00    +0.000 C 
ATOM     43  H   UNL     1     -40.846 -64.394  38.630  0.00  0.00    +0.000 HD
BRANCH  42  44
ATOM     44  C   UNL     1     -43.057 -66.885  39.022  0.00  0.00    +0.000 A 
ATOM     45  C   UNL     1     -43.608 -67.147  40.280  0.00  0.00    +0.000 A 
ATOM     46  C   UNL     1     -43.677 -67.383  37.870  0.00  0.00    +0.000 A 
ATOM     47  C   UNL     1     -44.809 -67.851  40.380  0.00  0.00    +0.000 A 
ATOM     48  C   UNL     1     -44.875 -68.089  37.973  0.00  0.00    +0.000 A 
ATOM     49  C   UNL     1     -45.444 -68.314  39.227  0.00  0.00    +0.000 A 
ENDBRANCH  42  44
ENDBRANCH  33  41
ENDBRANCH  30  33
ENDBRANCH  29  30
ENDBRANCH  27  29
ENDBRANCH  18  27
BRANCH  17  50
ATOM     50  O   UNL     1     -47.583 -63.786  32.522  0.00  0.00    +0.000 OA
BRANCH  50  52
ATOM     51  O   UNL     1     -48.977 -65.443  31.958  0.00  0.00    +0.000 OA
ATOM     52  C   UNL     1     -47.830 -65.073  32.192  0.00  0.00    +0.000 C 
ATOM     53  C   UNL     1     -46.680 -66.035  32.210  0.00  0.00    +0.000 C 
ENDBRANCH  50  52
ENDBRANCH  17  50
BRANCH   7  54
ATOM     54  O   UNL     1     -44.174 -60.193  33.505  0.00  0.00    +0.000 OA
BRANCH  54  56
ATOM     55  O   UNL     1     -42.172 -60.105  33.655  0.00  0.00    +0.000 OA
ATOM     56  C   UNL     1     -43.133 -59.377  33.882  0.00  0.00    +0.000 C 
BRANCH  56  57
ATOM     57  C   UNL     1     -43.349 -57.720  34.816  0.00  0.00    +0.000 A 
ATOM     58  C   UNL     1     -43.627 -56.429  34.191  0.00  0.00    +0.000 A 
ATOM     59  C   UNL     1     -43.404 -57.520  36.229  0.00  0.00    +0.000 A 
ATOM     60  C   UNL     1     -43.904 -55.202  34.844  0.00  0.00    +0.000 A 
ATOM     61  C   UNL     1     -43.679 -56.297  36.903  0.00  0.00    +0.000 A 
ATOM     62  C   UNL     1     -43.933 -55.136  36.213  0.00  0.00    +0.000 A 
ENDBRANCH  56  57
ENDBRANCH  54  56
ENDBRANCH   7  54
BRANCH   4  63
ATOM     63  O   UNL     1     -42.484 -58.824  31.139  0.00  0.00    +0.000 OA
BRANCH  63  65
ATOM     64  O   UNL     1     -40.814 -58.181  29.798  0.00  0.00    +0.000 OA
ATOM     65  C   UNL     1     -41.344 -58.134  30.907  0.00  0.00    +0.000 C 
ATOM     66  C   UNL     1     -40.678 -57.415  32.036  0.00  0.00    +0.000 C 
ENDBRANCH  63  65
ENDBRANCH   4  63
TORSDOF 17
ENDMDL
MODEL 9
REMARK VINA RESULT:      -6.3      3.407      8.497
REMARK  Name = 
REMARK  23 active torsions:
REMARK  status: ('A' for Active; 'I' for Inactive)
REMARK    1  A    between atoms: O_2  and  C_17
REMARK    2  A    between atoms: O_2  and  C_36
REMARK    3  A    between atoms: O_3  and  C_20
REMARK    4  A    between atoms: O_3  and  C_37
REMARK    5  A    between atoms: O_4  and  C_21
REMARK    6  A    between atoms: O_5  and  C_22
REMARK    7  A    between atoms: O_6  and  C_30
REMARK    8  A    between atoms: O_6  and  C_39
REMARK    9  A    between atoms: O_8  and  C_31
REMARK   10  A    between atoms: O_8  and  C_40
REMARK   11  A    between atoms: O_13  and  C_42
REMARK   12  A    between atoms: N_15  and  C_46
REMARK   13  A    between atoms: C_18  and  C_29
REMARK   14  A    between atoms: C_24  and  C_33
REMARK   15  A    between atoms: C_24  and  C_34
REMARK   16  A    between atoms: C_32  and  C_35
REMARK   17  A    between atoms: C_36  and  C_38
REMARK   18  A    between atoms: C_37  and  C_41
REMARK   19  A    between atoms: C_39  and  C_43
REMARK   20  A    between atoms: C_40  and  C_42
REMARK   21  A    between atoms: C_42  and  C_46
REMARK   22  A    between atoms: C_46  and  C_50
REMARK   23  A    between atoms: C_53  and  C_56
REMARK                            x       y       z     vdW  Elec       q    Type
REMARK                         _______ _______ _______ _____ _____    ______ ____
ROOT
ATOM      1  O   UNL     1     -44.937 -66.067  28.233  0.00  0.00    +0.000 OA
ATOM      2  O   UNL     1     -47.463 -61.099  31.893  0.00  0.00    +0.000 OA
ATOM      3  C   UNL     1     -44.627 -64.329  31.187  0.00  0.00    +0.000 C 
ATOM      4  C   UNL     1     -44.887 -65.596  30.320  0.00  0.00    +0.000 C 
ATOM      5  C   UNL     1     -46.293 -63.443  31.386  0.00  0.00    +0.000 C 
ATOM      6  C   UNL     1     -45.235 -64.848  28.969  0.00  0.00    +0.000 C 
ATOM      7  C   UNL     1     -43.522 -64.696  32.644  0.00  0.00    +0.000 C 
ATOM      8  C   UNL     1     -42.759 -63.872  34.169  0.00  0.00    +0.000 C 
ATOM      9  C   UNL     1     -46.726 -63.094  29.901  0.00  0.00    +0.000 C 
ATOM     10  C   UNL     1     -46.627 -64.265  28.877  0.00  0.00    +0.000 C 
ATOM     11  C   UNL     1     -43.137 -62.291  34.879  0.00  0.00    +0.000 C 
ATOM     12  C   UNL     1     -43.946 -66.345  29.296  0.00  0.00    +0.000 C 
ATOM     13  C   UNL     1     -46.652 -61.901  32.403  0.00  0.00    +0.000 C 
ATOM     14  C   UNL     1     -43.125 -64.818  35.403  0.00  0.00    +0.000 C 
ATOM     15  C   UNL     1     -44.705 -62.134  35.186  0.00  0.00    +0.000 C 
ATOM     16  C   UNL     1     -47.446 -64.417  31.871  0.00  0.00    +0.000 C 
ATOM     17  C   UNL     1     -45.926 -61.380  34.103  0.00  0.00    +0.000 C 
ATOM     18  C   UNL     1     -44.402 -64.452  36.287  0.00  0.00    +0.000 C 
ATOM     19  C   UNL     1     -45.141 -63.079  36.086  0.00  0.00    +0.000 C 
ATOM     20  C   UNL     1     -42.368 -62.233  36.292  0.00  0.00    +0.000 C 
ATOM     21  C   UNL     1     -42.453 -61.011  34.299  0.00  0.00    +0.000 C 
ATOM     22  C   UNL     1     -46.495 -63.003  36.747  0.00  0.00    +0.000 C 
ENDROOT
BRANCH   9  23
ATOM     23  O   UNL     1     -45.898 -62.041  29.409  0.00  0.00    +0.000 OA
ATOM     24  H   UNL     1     -45.800 -61.402  30.144  0.00  0.00    +0.000 HD
ENDBRANCH   9  23
BRANCH   8  25
ATOM     25  O   UNL     1     -41.333 -63.966  33.987  0.00  0.00    +0.000 OA
ATOM     26  H   UNL     1     -41.005 -64.738  34.480  0.00  0.00    +0.000 HD
ENDBRANCH   8  25
BRANCH  18  27
ATOM     27  O   UNL     1     -45.402 -65.492  36.082  0.00  0.00    +0.000 OA
BRANCH  27  29
ATOM     28  O   UNL     1     -45.618 -66.064  38.261  0.00  0.00    +0.000 OA
ATOM     29  C   UNL     1     -45.561 -66.397  37.082  0.00  0.00    +0.000 C 
BRANCH  29  30
ATOM     30  C   UNL     1     -45.498 -67.860  36.630  0.00  0.00    +0.000 C 
BRANCH  30  31
ATOM     31  O   UNL     1     -46.351 -68.759  37.348  0.00  0.00    +0.000 OA
ATOM     32  H   UNL     1     -46.766 -68.232  38.056  0.00  0.00    +0.000 HD
ENDBRANCH  30  31
BRANCH  30  33
ATOM     33  C   UNL     1     -44.019 -68.328  36.713  0.00  0.00    +0.000 C 
BRANCH  33  34
ATOM     34  C   UNL     1     -43.752 -69.443  35.711  0.00  0.00    +0.000 A 
ATOM     35  C   UNL     1     -42.564 -70.187  35.807  0.00  0.00    +0.000 A 
ATOM     36  C   UNL     1     -44.644 -69.734  34.667  0.00  0.00    +0.000 A 
ATOM     37  C   UNL     1     -42.285 -71.207  34.896  0.00  0.00    +0.000 A 
ATOM     38  C   UNL     1     -44.364 -70.755  33.758  0.00  0.00    +0.000 A 
ATOM     39  C   UNL     1     -43.186 -71.492  33.873  0.00  0.00    +0.000 A 
ENDBRANCH  33  34
BRANCH  33  41
ATOM     40  O   UNL     1     -43.030 -68.375  40.191  0.00  0.00    +0.000 OA
ATOM     41  N   UNL     1     -43.693 -68.758  38.079  0.00  0.00    +0.000 N 
ATOM     42  C   UNL     1     -42.863 -68.169  38.993  0.00  0.00    +0.000 C 
ATOM     43  H   UNL     1     -44.360 -69.404  38.491  0.00  0.00    +0.000 HD
BRANCH  42  44
ATOM     44  C   UNL     1     -41.794 -67.245  38.550  0.00  0.00    +0.000 A 
ATOM     45  C   UNL     1     -41.906 -65.862  38.724  0.00  0.00    +0.000 A 
ATOM     46  C   UNL     1     -40.686 -67.777  37.880  0.00  0.00    +0.000 A 
ATOM     47  C   UNL     1     -40.883 -65.021  38.285  0.00  0.00    +0.000 A 
ATOM     48  C   UNL     1     -39.666 -66.935  37.440  0.00  0.00    +0.000 A 
ATOM     49  C   UNL     1     -39.762 -65.558  37.651  0.00  0.00    +0.000 A 
ENDBRANCH  42  44
ENDBRANCH  33  41
ENDBRANCH  30  33
ENDBRANCH  29  30
ENDBRANCH  27  29
ENDBRANCH  18  27
BRANCH  17  50
ATOM     50  O   UNL     1     -45.604 -59.973  34.160  0.00  0.00    +0.000 OA
BRANCH  50  52
ATOM     51  O   UNL     1     -47.172 -59.181  35.547  0.00  0.00    +0.000 OA
ATOM     52  C   UNL     1     -46.005 -59.164  35.166  0.00  0.00    +0.000 C 
ATOM     53  C   UNL     1     -45.007 -58.196  35.727  0.00  0.00    +0.000 C 
ENDBRANCH  50  52
ENDBRANCH  17  50
BRANCH   7  54
ATOM     54  O   UNL     1     -44.635 -64.859  33.328  0.00  0.00    +0.000 OA
BRANCH  54  56
ATOM     55  O   UNL     1     -45.624 -66.586  33.597  0.00  0.00    +0.000 OA
ATOM     56  C   UNL     1     -44.503 -66.225  33.257  0.00  0.00    +0.000 C 
BRANCH  56  57
ATOM     57  C   UNL     1     -42.836 -67.133  33.012  0.00  0.00    +0.000 A 
ATOM     58  C   UNL     1     -41.737 -67.155  33.976  0.00  0.00    +0.000 A 
ATOM     59  C   UNL     1     -42.473 -68.011  31.946  0.00  0.00    +0.000 A 
ATOM     60  C   UNL     1     -40.535 -67.902  33.889  0.00  0.00    +0.000 A 
ATOM     61  C   UNL     1     -41.271 -68.767  31.840  0.00  0.00    +0.000 A 
ATOM     62  C   UNL     1     -40.301 -68.717  32.812  0.00  0.00    +0.000 A 
ENDBRANCH  56  57
ENDBRANCH  54  56
ENDBRANCH   7  54
BRANCH   4  63
ATOM     63  O   UNL     1     -45.962 -66.410  30.846  0.00  0.00    +0.000 OA
BRANCH  63  65
ATOM     64  O   UNL     1     -47.273 -67.663  29.539  0.00  0.00    +0.000 OA
ATOM     65  C   UNL     1     -46.340 -67.604  30.337  0.00  0.00    +0.000 C 
ATOM     66  C   UNL     1     -45.694 -68.855  30.841  0.00  0.00    +0.000 C 
ENDBRANCH  63  65
ENDBRANCH   4  63
TORSDOF 17
ENDMDL
