MODEL 1
REMARK VINA RESULT:      -8.5      0.000      0.000
REMARK  Name = 
REMARK  5 active torsions:
REMARK  status: ('A' for Active; 'I' for Inactive)
REMARK    1  A    between atoms: O_1  and  C_16
REMARK    2  A    between atoms: O_3  and  C_25
REMARK    3  A    between atoms: C_11  and  C_22
REMARK    4  A    between atoms: C_16  and  C_28
REMARK    5  A    between atoms: C_29  and  C_31
REMARK                            x       y       z     vdW  Elec       q    Type
REMARK                         _______ _______ _______ _____ _____    ______ ____
ROOT
ATOM      1  O   UNL     1     -39.355 -54.247  33.529  0.00  0.00    +0.000 OA
ATOM      2  N   UNL     1     -46.341 -60.271  35.777  0.00  0.00    +0.000 NA
ATOM      3  C   UNL     1     -43.759 -57.419  35.953  0.00  0.00    +0.000 C 
ATOM      4  C   UNL     1     -42.213 -57.331  36.044  0.00  0.00    +0.000 C 
ATOM      5  C   UNL     1     -43.040 -55.442  34.807  0.00  0.00    +0.000 C 
ATOM      6  C   UNL     1     -41.811 -56.352  34.928  0.00  0.00    +0.000 C 
ATOM      7  C   UNL     1     -44.286 -58.860  35.804  0.00  0.00    +0.000 C 
ATOM      8  C   UNL     1     -44.170 -56.467  34.810  0.00  0.00    +0.000 C 
ATOM      9  C   UNL     1     -42.921 -54.439  33.628  0.00  0.00    +0.000 C 
ATOM     10  C   UNL     1     -43.669 -59.745  36.909  0.00  0.00    +0.000 C 
ATOM     11  C   UNL     1     -41.524 -58.685  35.907  0.00  0.00    +0.000 C 
ATOM     12  C   UNL     1     -41.652 -53.581  33.917  0.00  0.00    +0.000 C 
ATOM     13  C   UNL     1     -42.121 -59.743  36.831  0.00  0.00    +0.000 C 
ATOM     14  C   UNL     1     -44.288 -61.173  36.896  0.00  0.00    +0.000 C 
ATOM     15  C   UNL     1     -40.536 -55.555  35.162  0.00  0.00    +0.000 C 
ATOM     16  C   UNL     1     -45.818 -58.896  35.865  0.00  0.00    +0.000 C 
ATOM     17  C   UNL     1     -45.860 -61.095  36.921  0.00  0.00    +0.000 C 
ATOM     18  C   UNL     1     -44.147 -53.492  33.609  0.00  0.00    +0.000 C 
ATOM     19  C   UNL     1     -40.418 -54.465  34.106  0.00  0.00    +0.000 C 
ATOM     20  C   UNL     1     -42.825 -55.162  32.262  0.00  0.00    +0.000 C 
ATOM     21  C   UNL     1     -41.455 -52.463  32.893  0.00  0.00    +0.000 C 
ATOM     22  C   UNL     1     -43.984 -52.317  32.640  0.00  0.00    +0.000 C 
ATOM     23  C   UNL     1     -42.680 -51.548  32.854  0.00  0.00    +0.000 C 
ATOM     24  C   UNL     1     -46.491 -62.510  36.867  0.00  0.00    +0.000 C 
ATOM     25  C   UNL     1     -47.816 -60.207  35.734  0.00  0.00    +0.000 C 
ATOM     26  C   UNL     1     -43.750 -62.010  38.066  0.00  0.00    +0.000 C 
ATOM     27  C   UNL     1     -48.468 -61.586  35.595  0.00  0.00    +0.000 C 
ATOM     28  C   UNL     1     -48.011 -62.480  36.745  0.00  0.00    +0.000 C 
ATOM     29  C   UNL     1     -48.183 -62.216  34.228  0.00  0.00    +0.000 C 
ENDROOT
BRANCH  14  30
ATOM     30  O   UNL     1     -43.883 -61.823  35.679  0.00  0.00    +0.000 OA
ATOM     31  H   UNL     1     -43.562 -61.102  35.101  0.00  0.00    +0.000 HD
ENDBRANCH  14  30
BRANCH  23  32
ATOM     32  O   UNL     1     -42.541 -50.599  31.803  0.00  0.00    +0.000 OA
ATOM     33  H   UNL     1     -42.556 -51.085  30.960  0.00  0.00    +0.000 HD
ENDBRANCH  23  32
TORSDOF 2
ENDMDL
MODEL 2
REMARK VINA RESULT:      -8.1     20.541     23.095
REMARK  Name = 
REMARK  5 active torsions:
REMARK  status: ('A' for Active; 'I' for Inactive)
REMARK    1  A    between atoms: O_1  and  C_16
REMARK    2  A    between atoms: O_3  and  C_25
REMARK    3  A    between atoms: C_11  and  C_22
REMARK    4  A    between atoms: C_16  and  C_28
REMARK    5  A    between atoms: C_29  and  C_31
REMARK                            x       y       z     vdW  Elec       q    Type
REMARK                         _______ _______ _______ _____ _____    ______ ____
ROOT
ATOM      1  O   UNL     1     -45.589 -40.017  48.383  0.00  0.00    +0.000 OA
ATOM      2  N   UNL     1     -37.077 -43.449  50.818  0.00  0.00    +0.000 NA
ATOM      3  C   UNL     1     -39.896 -41.054  49.746  0.00  0.00    +0.000 C 
ATOM      4  C   UNL     1     -40.765 -40.867  48.474  0.00  0.00    +0.000 C 
ATOM      5  C   UNL     1     -42.055 -40.253  50.408  0.00  0.00    +0.000 C 
ATOM      6  C   UNL     1     -42.212 -40.821  48.992  0.00  0.00    +0.000 C 
ATOM      7  C   UNL     1     -38.954 -42.272  49.674  0.00  0.00    +0.000 C 
ATOM      8  C   UNL     1     -40.884 -41.079  50.931  0.00  0.00    +0.000 C 
ATOM      9  C   UNL     1     -43.393 -40.241  51.193  0.00  0.00    +0.000 C 
ATOM     10  C   UNL     1     -38.142 -42.212  48.362  0.00  0.00    +0.000 C 
ATOM     11  C   UNL     1     -40.552 -41.962  47.434  0.00  0.00    +0.000 C 
ATOM     12  C   UNL     1     -44.370 -39.349  50.369  0.00  0.00    +0.000 C 
ATOM     13  C   UNL     1     -39.076 -42.199  47.124  0.00  0.00    +0.000 C 
ATOM     14  C   UNL     1     -37.067 -43.336  48.314  0.00  0.00    +0.000 C 
ATOM     15  C   UNL     1     -43.196 -40.012  48.161  0.00  0.00    +0.000 C 
ATOM     16  C   UNL     1     -38.023 -42.322  50.892  0.00  0.00    +0.000 C 
ATOM     17  C   UNL     1     -36.194 -43.323  49.624  0.00  0.00    +0.000 C 
ATOM     18  C   UNL     1     -43.192 -39.579  52.580  0.00  0.00    +0.000 C 
ATOM     19  C   UNL     1     -44.500 -39.854  48.931  0.00  0.00    +0.000 C 
ATOM     20  C   UNL     1     -43.956 -41.670  51.398  0.00  0.00    +0.000 C 
ATOM     21  C   UNL     1     -45.713 -39.147  51.071  0.00  0.00    +0.000 C 
ATOM     22  C   UNL     1     -44.509 -39.299  53.310  0.00  0.00    +0.000 C 
ATOM     23  C   UNL     1     -45.508 -38.522  52.453  0.00  0.00    +0.000 C 
ATOM     24  C   UNL     1     -35.145 -44.464  49.610  0.00  0.00    +0.000 C 
ATOM     25  C   UNL     1     -36.297 -43.486  52.071  0.00  0.00    +0.000 C 
ATOM     26  C   UNL     1     -36.193 -43.200  47.059  0.00  0.00    +0.000 C 
ATOM     27  C   UNL     1     -35.309 -44.656  52.123  0.00  0.00    +0.000 C 
ATOM     28  C   UNL     1     -34.372 -44.579  50.919  0.00  0.00    +0.000 C 
ATOM     29  C   UNL     1     -36.027 -46.005  52.209  0.00  0.00    +0.000 C 
ENDROOT
BRANCH  14  30
ATOM     30  O   UNL     1     -37.747 -44.600  48.232  0.00  0.00    +0.000 OA
ATOM     31  H   UNL     1     -38.519 -44.436  47.654  0.00  0.00    +0.000 HD
ENDBRANCH  14  30
BRANCH  23  32
ATOM     32  O   UNL     1     -46.749 -38.468  53.147  0.00  0.00    +0.000 OA
ATOM     33  H   UNL     1     -47.225 -37.675  52.846  0.00  0.00    +0.000 HD
ENDBRANCH  23  32
TORSDOF 2
ENDMDL
MODEL 3
REMARK VINA RESULT:      -7.7      7.661     12.884
REMARK  Name = 
REMARK  5 active torsions:
REMARK  status: ('A' for Active; 'I' for Inactive)
REMARK    1  A    between atoms: O_1  and  C_16
REMARK    2  A    between atoms: O_3  and  C_25
REMARK    3  A    between atoms: C_11  and  C_22
REMARK    4  A    between atoms: C_16  and  C_28
REMARK    5  A    between atoms: C_29  and  C_31
REMARK                            x       y       z     vdW  Elec       q    Type
REMARK                         _______ _______ _______ _____ _____    ______ ____
ROOT
ATOM      1  O   UNL     1     -46.049 -69.373  27.813  0.00  0.00    +0.000 OA
ATOM      2  N   UNL     1     -44.583 -59.995  28.075  0.00  0.00    +0.000 NA
ATOM      3  C   UNL     1     -46.228 -63.436  27.546  0.00  0.00    +0.000 C 
ATOM      4  C   UNL     1     -46.008 -64.631  26.580  0.00  0.00    +0.000 C 
ATOM      5  C   UNL     1     -46.798 -65.460  28.694  0.00  0.00    +0.000 C 
ATOM      6  C   UNL     1     -45.931 -65.865  27.495  0.00  0.00    +0.000 C 
ATOM      7  C   UNL     1     -45.186 -62.313  27.382  0.00  0.00    +0.000 C 
ATOM      8  C   UNL     1     -46.294 -64.046  28.962  0.00  0.00    +0.000 C 
ATOM      9  C   UNL     1     -46.761 -66.513  29.834  0.00  0.00    +0.000 C 
ATOM     10  C   UNL     1     -45.100 -61.911  25.894  0.00  0.00    +0.000 C 
ATOM     11  C   UNL     1     -44.769 -64.477  25.705  0.00  0.00    +0.000 C 
ATOM     12  C   UNL     1     -47.298 -67.839  29.215  0.00  0.00    +0.000 C 
ATOM     13  C   UNL     1     -44.708 -63.120  25.007  0.00  0.00    +0.000 C 
ATOM     14  C   UNL     1     -44.175 -60.675  25.698  0.00  0.00    +0.000 C 
ATOM     15  C   UNL     1     -46.385 -67.182  26.884  0.00  0.00    +0.000 C 
ATOM     16  C   UNL     1     -45.538 -61.102  28.256  0.00  0.00    +0.000 C 
ATOM     17  C   UNL     1     -44.596 -59.508  26.667  0.00  0.00    +0.000 C 
ATOM     18  C   UNL     1     -47.721 -66.095  30.977  0.00  0.00    +0.000 C 
ATOM     19  C   UNL     1     -46.492 -68.238  27.976  0.00  0.00    +0.000 C 
ATOM     20  C   UNL     1     -45.336 -66.687  30.415  0.00  0.00    +0.000 C 
ATOM     21  C   UNL     1     -47.427 -68.959  30.248  0.00  0.00    +0.000 C 
ATOM     22  C   UNL     1     -47.934 -67.199  32.017  0.00  0.00    +0.000 C 
ATOM     23  C   UNL     1     -48.349 -68.531  31.391  0.00  0.00    +0.000 C 
ATOM     24  C   UNL     1     -43.657 -58.285  26.513  0.00  0.00    +0.000 C 
ATOM     25  C   UNL     1     -44.930 -58.920  29.027  0.00  0.00    +0.000 C 
ATOM     26  C   UNL     1     -44.183 -60.214  24.232  0.00  0.00    +0.000 C 
ATOM     27  C   UNL     1     -43.968 -57.731  28.958  0.00  0.00    +0.000 C 
ATOM     28  C   UNL     1     -43.939 -57.186  27.532  0.00  0.00    +0.000 C 
ATOM     29  C   UNL     1     -42.569 -58.099  29.461  0.00  0.00    +0.000 C 
ENDROOT
BRANCH  14  30
ATOM     30  O   UNL     1     -42.830 -61.070  26.018  0.00  0.00    +0.000 OA
ATOM     31  H   UNL     1     -42.317 -60.236  26.035  0.00  0.00    +0.000 HD
ENDBRANCH  14  30
BRANCH  23  32
ATOM     32  O   UNL     1     -48.349 -69.525  32.410  0.00  0.00    +0.000 OA
ATOM     33  H   UNL     1     -48.022 -69.112  33.228  0.00  0.00    +0.000 HD
ENDBRANCH  23  32
TORSDOF 2
ENDMDL
MODEL 4
REMARK VINA RESULT:      -7.5      2.469      3.446
REMARK  Name = 
REMARK  5 active torsions:
REMARK  status: ('A' for Active; 'I' for Inactive)
REMARK    1  A    between atoms: O_1  and  C_16
REMARK    2  A    between atoms: O_3  and  C_25
REMARK    3  A    between atoms: C_11  and  C_22
REMARK    4  A    between atoms: C_16  and  C_28
REMARK    5  A    between atoms: C_29  and  C_31
REMARK                            x       y       z     vdW  Elec       q    Type
REMARK                         _______ _______ _______ _____ _____    ______ ____
ROOT
ATOM      1  O   UNL     1     -40.609 -56.049  32.765  0.00  0.00    +0.000 OA
ATOM      2  N   UNL     1     -44.265 -62.638  38.542  0.00  0.00    +0.000 NA
ATOM      3  C   UNL     1     -42.154 -59.721  37.178  0.00  0.00    +0.000 C 
ATOM      4  C   UNL     1     -41.006 -59.574  36.145  0.00  0.00    +0.000 C 
ATOM      5  C   UNL     1     -42.342 -57.575  36.129  0.00  0.00    +0.000 C 
ATOM      6  C   UNL     1     -41.459 -58.435  35.216  0.00  0.00    +0.000 C 
ATOM      7  C   UNL     1     -42.722 -61.150  37.268  0.00  0.00    +0.000 C 
ATOM      8  C   UNL     1     -43.194 -58.642  36.809  0.00  0.00    +0.000 C 
ATOM      9  C   UNL     1     -43.036 -56.417  35.362  0.00  0.00    +0.000 C 
ATOM     10  C   UNL     1     -41.561 -62.148  37.473  0.00  0.00    +0.000 C 
ATOM     11  C   UNL     1     -40.713 -60.863  35.385  0.00  0.00    +0.000 C 
ATOM     12  C   UNL     1     -41.889 -55.548  34.762  0.00  0.00    +0.000 C 
ATOM     13  C   UNL     1     -40.537 -62.064  36.312  0.00  0.00    +0.000 C 
ATOM     14  C   UNL     1     -42.094 -63.588  37.725  0.00  0.00    +0.000 C 
ATOM     15  C   UNL     1     -40.351 -57.620  34.565  0.00  0.00    +0.000 C 
ATOM     16  C   UNL     1     -43.748 -61.266  38.403  0.00  0.00    +0.000 C 
ATOM     17  C   UNL     1     -43.167 -63.587  38.877  0.00  0.00    +0.000 C 
ATOM     18  C   UNL     1     -43.842 -55.533  36.348  0.00  0.00    +0.000 C 
ATOM     19  C   UNL     1     -40.952 -56.392  33.895  0.00  0.00    +0.000 C 
ATOM     20  C   UNL     1     -43.993 -56.943  34.263  0.00  0.00    +0.000 C 
ATOM     21  C   UNL     1     -42.410 -54.294  34.060  0.00  0.00    +0.000 C 
ATOM     22  C   UNL     1     -44.344 -54.232  35.715  0.00  0.00    +0.000 C 
ATOM     23  C   UNL     1     -43.232 -53.440  35.027  0.00  0.00    +0.000 C 
ATOM     24  C   UNL     1     -43.738 -65.009  39.112  0.00  0.00    +0.000 C 
ATOM     25  C   UNL     1     -45.319 -62.637  39.576  0.00  0.00    +0.000 C 
ATOM     26  C   UNL     1     -40.939 -64.551  38.037  0.00  0.00    +0.000 C 
ATOM     27  C   UNL     1     -45.964 -64.013  39.771  0.00  0.00    +0.000 C 
ATOM     28  C   UNL     1     -44.882 -65.033  40.120  0.00  0.00    +0.000 C 
ATOM     29  C   UNL     1     -46.782 -64.438  38.549  0.00  0.00    +0.000 C 
ENDROOT
BRANCH  14  30
ATOM     30  O   UNL     1     -42.724 -64.047  36.517  0.00  0.00    +0.000 OA
ATOM     31  H   UNL     1     -42.023 -64.011  35.835  0.00  0.00    +0.000 HD
ENDBRANCH  14  30
BRANCH  23  32
ATOM     32  O   UNL     1     -43.824 -52.352  34.327  0.00  0.00    +0.000 OA
ATOM     33  H   UNL     1     -43.117 -51.888  33.846  0.00  0.00    +0.000 HD
ENDBRANCH  23  32
TORSDOF 2
ENDMDL
MODEL 5
REMARK VINA RESULT:      -7.4      4.908     10.289
REMARK  Name = 
REMARK  5 active torsions:
REMARK  status: ('A' for Active; 'I' for Inactive)
REMARK    1  A    between atoms: O_1  and  C_16
REMARK    2  A    between atoms: O_3  and  C_25
REMARK    3  A    between atoms: C_11  and  C_22
REMARK    4  A    between atoms: C_16  and  C_28
REMARK    5  A    between atoms: C_29  and  C_31
REMARK                            x       y       z     vdW  Elec       q    Type
REMARK                         _______ _______ _______ _____ _____    ______ ____
ROOT
ATOM      1  O   UNL     1     -46.408 -65.971  27.566  0.00  0.00    +0.000 OA
ATOM      2  N   UNL     1     -44.183 -60.102  34.690  0.00  0.00    +0.000 NA
ATOM      3  C   UNL     1     -46.138 -61.945  31.932  0.00  0.00    +0.000 C 
ATOM      4  C   UNL     1     -46.104 -61.973  30.381  0.00  0.00    +0.000 C 
ATOM      5  C   UNL     1     -46.759 -64.138  31.194  0.00  0.00    +0.000 C 
ATOM      6  C   UNL     1     -46.041 -63.465  30.017  0.00  0.00    +0.000 C 
ATOM      7  C   UNL     1     -45.029 -61.077  32.557  0.00  0.00    +0.000 C 
ATOM      8  C   UNL     1     -46.122 -63.422  32.380  0.00  0.00    +0.000 C 
ATOM      9  C   UNL     1     -46.702 -65.687  31.115  0.00  0.00    +0.000 C 
ATOM     10  C   UNL     1     -45.049 -59.678  31.903  0.00  0.00    +0.000 C 
ATOM     11  C   UNL     1     -44.941 -61.181  29.791  0.00  0.00    +0.000 C 
ATOM     12  C   UNL     1     -47.397 -66.079  29.776  0.00  0.00    +0.000 C 
ATOM     13  C   UNL     1     -44.837 -59.771  30.370  0.00  0.00    +0.000 C 
ATOM     14  C   UNL     1     -44.050 -58.714  32.607  0.00  0.00    +0.000 C 
ATOM     15  C   UNL     1     -46.653 -63.856  28.680  0.00  0.00    +0.000 C 
ATOM     16  C   UNL     1     -45.202 -60.972  34.078  0.00  0.00    +0.000 C 
ATOM     17  C   UNL     1     -44.287 -58.712  34.164  0.00  0.00    +0.000 C 
ATOM     18  C   UNL     1     -47.516 -66.310  32.278  0.00  0.00    +0.000 C 
ATOM     19  C   UNL     1     -46.742 -65.373  28.586  0.00  0.00    +0.000 C 
ATOM     20  C   UNL     1     -45.248 -66.216  31.183  0.00  0.00    +0.000 C 
ATOM     21  C   UNL     1     -47.519 -67.592  29.599  0.00  0.00    +0.000 C 
ATOM     22  C   UNL     1     -47.720 -67.821  32.127  0.00  0.00    +0.000 C 
ATOM     23  C   UNL     1     -48.295 -68.208  30.765  0.00  0.00    +0.000 C 
ATOM     24  C   UNL     1     -43.272 -57.788  34.884  0.00  0.00    +0.000 C 
ATOM     25  C   UNL     1     -44.355 -60.143  36.156  0.00  0.00    +0.000 C 
ATOM     26  C   UNL     1     -44.156 -57.297  32.024  0.00  0.00    +0.000 C 
ATOM     27  C   UNL     1     -43.311 -59.306  36.902  0.00  0.00    +0.000 C 
ATOM     28  C   UNL     1     -43.371 -57.863  36.403  0.00  0.00    +0.000 C 
ATOM     29  C   UNL     1     -41.906 -59.901  36.775  0.00  0.00    +0.000 C 
ENDROOT
BRANCH  14  30
ATOM     30  O   UNL     1     -42.717 -59.188  32.350  0.00  0.00    +0.000 OA
ATOM     31  H   UNL     1     -42.152 -58.390  32.392  0.00  0.00    +0.000 HD
ENDBRANCH  14  30
BRANCH  23  32
ATOM     32  O   UNL     1     -48.281 -69.627  30.659  0.00  0.00    +0.000 OA
ATOM     33  H   UNL     1     -49.202 -69.937  30.697  0.00  0.00    +0.000 HD
ENDBRANCH  23  32
TORSDOF 2
ENDMDL
MODEL 6
REMARK VINA RESULT:      -7.4      5.712     10.036
REMARK  Name = 
REMARK  5 active torsions:
REMARK  status: ('A' for Active; 'I' for Inactive)
REMARK    1  A    between atoms: O_1  and  C_16
REMARK    2  A    between atoms: O_3  and  C_25
REMARK    3  A    between atoms: C_11  and  C_22
REMARK    4  A    between atoms: C_16  and  C_28
REMARK    5  A    between atoms: C_29  and  C_31
REMARK                            x       y       z     vdW  Elec       q    Type
REMARK                         _______ _______ _______ _____ _____    ______ ____
ROOT
ATOM      1  O   UNL     1     -45.656 -63.749  26.667  0.00  0.00    +0.000 OA
ATOM      2  N   UNL     1     -45.831 -63.517  36.157  0.00  0.00    +0.000 NA
ATOM      3  C   UNL     1     -46.937 -63.557  32.469  0.00  0.00    +0.000 C 
ATOM      4  C   UNL     1     -46.838 -62.573  31.273  0.00  0.00    +0.000 C 
ATOM      5  C   UNL     1     -46.744 -64.829  30.448  0.00  0.00    +0.000 C 
ATOM      6  C   UNL     1     -46.257 -63.411  30.123  0.00  0.00    +0.000 C 
ATOM      7  C   UNL     1     -46.215 -63.060  33.737  0.00  0.00    +0.000 C 
ATOM      8  C   UNL     1     -46.434 -64.916  31.939  0.00  0.00    +0.000 C 
ATOM      9  C   UNL     1     -46.158 -65.893  29.481  0.00  0.00    +0.000 C 
ATOM     10  C   UNL     1     -46.687 -61.626  34.063  0.00  0.00    +0.000 C 
ATOM     11  C   UNL     1     -45.996 -61.339  31.579  0.00  0.00    +0.000 C 
ATOM     12  C   UNL     1     -46.629 -65.484  28.052  0.00  0.00    +0.000 C 
ATOM     13  C   UNL     1     -46.401 -60.660  32.885  0.00  0.00    +0.000 C 
ATOM     14  C   UNL     1     -46.104 -61.137  35.420  0.00  0.00    +0.000 C 
ATOM     15  C   UNL     1     -46.649 -62.984  28.717  0.00  0.00    +0.000 C 
ATOM     16  C   UNL     1     -46.468 -64.002  34.921  0.00  0.00    +0.000 C 
ATOM     17  C   UNL     1     -46.384 -62.192  36.555  0.00  0.00    +0.000 C 
ATOM     18  C   UNL     1     -46.752 -67.288  29.801  0.00  0.00    +0.000 C 
ATOM     19  C   UNL     1     -46.212 -64.050  27.722  0.00  0.00    +0.000 C 
ATOM     20  C   UNL     1     -44.614 -65.972  29.576  0.00  0.00    +0.000 C 
ATOM     21  C   UNL     1     -46.220 -66.502  26.987  0.00  0.00    +0.000 C 
ATOM     22  C   UNL     1     -46.423 -68.340  28.738  0.00  0.00    +0.000 C 
ATOM     23  C   UNL     1     -46.781 -67.885  27.323  0.00  0.00    +0.000 C 
ATOM     24  C   UNL     1     -45.772 -61.738  37.905  0.00  0.00    +0.000 C 
ATOM     25  C   UNL     1     -46.031 -64.530  37.213  0.00  0.00    +0.000 C 
ATOM     26  C   UNL     1     -46.666 -59.757  35.789  0.00  0.00    +0.000 C 
ATOM     27  C   UNL     1     -45.364 -64.149  38.539  0.00  0.00    +0.000 C 
ATOM     28  C   UNL     1     -45.894 -62.793  38.999  0.00  0.00    +0.000 C 
ATOM     29  C   UNL     1     -43.837 -64.163  38.433  0.00  0.00    +0.000 C 
ENDROOT
BRANCH  14  30
ATOM     30  O   UNL     1     -44.681 -60.997  35.269  0.00  0.00    +0.000 OA
ATOM     31  H   UNL     1     -44.356 -61.899  35.071  0.00  0.00    +0.000 HD
ENDBRANCH  14  30
BRANCH  23  32
ATOM     32  O   UNL     1     -46.279 -68.847  26.402  0.00  0.00    +0.000 OA
ATOM     33  H   UNL     1     -46.995 -69.478  26.211  0.00  0.00    +0.000 HD
ENDBRANCH  23  32
TORSDOF 2
ENDMDL
MODEL 7
REMARK VINA RESULT:      -7.3     11.353     14.777
REMARK  Name = 
REMARK  5 active torsions:
REMARK  status: ('A' for Active; 'I' for Inactive)
REMARK    1  A    between atoms: O_1  and  C_16
REMARK    2  A    between atoms: O_3  and  C_25
REMARK    3  A    between atoms: C_11  and  C_22
REMARK    4  A    between atoms: C_16  and  C_28
REMARK    5  A    between atoms: C_29  and  C_31
REMARK                            x       y       z     vdW  Elec       q    Type
REMARK                         _______ _______ _______ _____ _____    ______ ____
ROOT
ATOM      1  O   UNL     1     -42.095 -66.435  21.056  0.00  0.00    +0.000 OA
ATOM      2  N   UNL     1     -46.761 -67.333  29.276  0.00  0.00    +0.000 NA
ATOM      3  C   UNL     1     -45.964 -66.710  25.561  0.00  0.00    +0.000 C 
ATOM      4  C   UNL     1     -45.197 -65.624  24.760  0.00  0.00    +0.000 C 
ATOM      5  C   UNL     1     -44.972 -67.739  23.638  0.00  0.00    +0.000 C 
ATOM      6  C   UNL     1     -44.234 -66.412  23.857  0.00  0.00    +0.000 C 
ATOM      7  C   UNL     1     -45.886 -66.519  27.088  0.00  0.00    +0.000 C 
ATOM      8  C   UNL     1     -45.424 -68.065  25.058  0.00  0.00    +0.000 C 
ATOM      9  C   UNL     1     -44.118 -68.769  22.852  0.00  0.00    +0.000 C 
ATOM     10  C   UNL     1     -46.294 -65.072  27.442  0.00  0.00    +0.000 C 
ATOM     11  C   UNL     1     -44.471 -64.621  25.651  0.00  0.00    +0.000 C 
ATOM     12  C   UNL     1     -43.798 -68.107  21.477  0.00  0.00    +0.000 C 
ATOM     13  C   UNL     1     -45.373 -64.042  26.739  0.00  0.00    +0.000 C 
ATOM     14  C   UNL     1     -46.380 -64.873  28.983  0.00  0.00    +0.000 C 
ATOM     15  C   UNL     1     -43.855 -65.749  22.541  0.00  0.00    +0.000 C 
ATOM     16  C   UNL     1     -46.779 -67.532  27.817  0.00  0.00    +0.000 C 
ATOM     17  C   UNL     1     -47.284 -65.985  29.635  0.00  0.00    +0.000 C 
ATOM     18  C   UNL     1     -44.944 -70.053  22.585  0.00  0.00    +0.000 C 
ATOM     19  C   UNL     1     -43.117 -66.750  21.662  0.00  0.00    +0.000 C 
ATOM     20  C   UNL     1     -42.827 -69.154  23.617  0.00  0.00    +0.000 C 
ATOM     21  C   UNL     1     -43.047 -69.047  20.534  0.00  0.00    +0.000 C 
ATOM     22  C   UNL     1     -44.266 -71.011  21.601  0.00  0.00    +0.000 C 
ATOM     23  C   UNL     1     -43.851 -70.327  20.299  0.00  0.00    +0.000 C 
ATOM     24  C   UNL     1     -47.347 -65.825  31.175  0.00  0.00    +0.000 C 
ATOM     25  C   UNL     1     -47.553 -68.410  29.904  0.00  0.00    +0.000 C 
ATOM     26  C   UNL     1     -46.892 -63.466  29.323  0.00  0.00    +0.000 C 
ATOM     27  C   UNL     1     -47.564 -68.328  31.433  0.00  0.00    +0.000 C 
ATOM     28  C   UNL     1     -48.094 -66.962  31.862  0.00  0.00    +0.000 C 
ATOM     29  C   UNL     1     -46.184 -68.623  32.029  0.00  0.00    +0.000 C 
ENDROOT
BRANCH  14  30
ATOM     30  O   UNL     1     -45.053 -64.991  29.523  0.00  0.00    +0.000 OA
ATOM     31  H   UNL     1     -45.121 -64.659  30.440  0.00  0.00    +0.000 HD
ENDBRANCH  14  30
BRANCH  23  32
ATOM     32  O   UNL     1     -43.080 -71.247  19.534  0.00  0.00    +0.000 OA
ATOM     33  H   UNL     1     -43.477 -71.303  18.648  0.00  0.00    +0.000 HD
ENDBRANCH  23  32
TORSDOF 2
ENDMDL
MODEL 8
REMARK VINA RESULT:      -7.2      8.447     10.653
REMARK  Name = 
REMARK  5 active torsions:
REMARK  status: ('A' for Active; 'I' for Inactive)
REMARK    1  A    between atoms: O_1  and  C_16
REMARK    2  A    between atoms: O_3  and  C_25
REMARK    3  A    between atoms: C_11  and  C_22
REMARK    4  A    between atoms: C_16  and  C_28
REMARK    5  A    between atoms: C_29  and  C_31
REMARK                            x       y       z     vdW  Elec       q    Type
REMARK                         _______ _______ _______ _____ _____    ______ ____
ROOT
ATOM      1  O   UNL     1     -47.301 -69.170  30.488  0.00  0.00    +0.000 OA
ATOM      2  N   UNL     1     -45.265 -64.494  38.497  0.00  0.00    +0.000 NA
ATOM      3  C   UNL     1     -44.906 -66.488  35.222  0.00  0.00    +0.000 C 
ATOM      4  C   UNL     1     -45.250 -67.929  34.761  0.00  0.00    +0.000 C 
ATOM      5  C   UNL     1     -45.477 -66.428  32.896  0.00  0.00    +0.000 C 
ATOM      6  C   UNL     1     -46.036 -67.744  33.452  0.00  0.00    +0.000 C 
ATOM      7  C   UNL     1     -45.370 -66.174  36.658  0.00  0.00    +0.000 C 
ATOM      8  C   UNL     1     -45.487 -65.550  34.143  0.00  0.00    +0.000 C 
ATOM      9  C   UNL     1     -46.228 -65.956  31.622  0.00  0.00    +0.000 C 
ATOM     10  C   UNL     1     -44.861 -67.277  37.611  0.00  0.00    +0.000 C 
ATOM     11  C   UNL     1     -46.031 -68.724  35.802  0.00  0.00    +0.000 C 
ATOM     12  C   UNL     1     -46.053 -67.094  30.571  0.00  0.00    +0.000 C 
ATOM     13  C   UNL     1     -45.385 -68.673  37.185  0.00  0.00    +0.000 C 
ATOM     14  C   UNL     1     -45.172 -66.926  39.095  0.00  0.00    +0.000 C 
ATOM     15  C   UNL     1     -45.933 -68.877  32.442  0.00  0.00    +0.000 C 
ATOM     16  C   UNL     1     -44.878 -64.792  37.107  0.00  0.00    +0.000 C 
ATOM     17  C   UNL     1     -44.661 -65.477  39.439  0.00  0.00    +0.000 C 
ATOM     18  C   UNL     1     -45.566 -64.674  31.057  0.00  0.00    +0.000 C 
ATOM     19  C   UNL     1     -46.545 -68.435  31.120  0.00  0.00    +0.000 C 
ATOM     20  C   UNL     1     -47.722 -65.664  31.908  0.00  0.00    +0.000 C 
ATOM     21  C   UNL     1     -46.651 -66.732  29.211  0.00  0.00    +0.000 C 
ATOM     22  C   UNL     1     -46.085 -64.292  29.668  0.00  0.00    +0.000 C 
ATOM     23  C   UNL     1     -46.018 -65.449  28.671  0.00  0.00    +0.000 C 
ATOM     24  C   UNL     1     -45.001 -65.097  40.903  0.00  0.00    +0.000 C 
ATOM     25  C   UNL     1     -44.849 -63.112  38.810  0.00  0.00    +0.000 C 
ATOM     26  C   UNL     1     -44.565 -67.973  40.041  0.00  0.00    +0.000 C 
ATOM     27  C   UNL     1     -45.247 -62.676  40.224  0.00  0.00    +0.000 C 
ATOM     28  C   UNL     1     -44.653 -63.651  41.239  0.00  0.00    +0.000 C 
ATOM     29  C   UNL     1     -46.765 -62.544  40.374  0.00  0.00    +0.000 C 
ENDROOT
BRANCH  14  30
ATOM     30  O   UNL     1     -46.598 -66.961  39.271  0.00  0.00    +0.000 OA
ATOM     31  H   UNL     1     -46.734 -66.962  40.240  0.00  0.00    +0.000 HD
ENDBRANCH  14  30
BRANCH  23  32
ATOM     32  O   UNL     1     -46.679 -65.050  27.476  0.00  0.00    +0.000 OA
ATOM     33  H   UNL     1     -46.509 -64.101  27.344  0.00  0.00    +0.000 HD
ENDBRANCH  23  32
TORSDOF 2
ENDMDL
MODEL 9
REMARK VINA RESULT:      -7.2     11.300     15.346
REMARK  Name = 
REMARK  5 active torsions:
REMARK  status: ('A' for Active; 'I' for Inactive)
REMARK    1  A    between atoms: O_1  and  C_16
REMARK    2  A    between atoms: O_3  and  C_25
REMARK    3  A    between atoms: C_11  and  C_22
REMARK    4  A    between atoms: C_16  and  C_28
REMARK    5  A    between atoms: C_29  and  C_31
REMARK                            x       y       z     vdW  Elec       q    Type
REMARK                         _______ _______ _______ _____ _____    ______ ____
ROOT
ATOM      1  O   UNL     1     -45.731 -69.510  30.163  0.00  0.00    +0.000 OA
ATOM      2  N   UNL     1     -43.886 -64.699  22.188  0.00  0.00    +0.000 NA
ATOM      3  C   UNL     1     -45.645 -66.871  24.837  0.00  0.00    +0.000 C 
ATOM      4  C   UNL     1     -45.426 -68.289  25.428  0.00  0.00    +0.000 C 
ATOM      5  C   UNL     1     -46.359 -66.862  27.124  0.00  0.00    +0.000 C 
ATOM      6  C   UNL     1     -45.449 -68.085  26.952  0.00  0.00    +0.000 C 
ATOM      7  C   UNL     1     -44.549 -66.444  23.841  0.00  0.00    +0.000 C 
ATOM      8  C   UNL     1     -45.810 -65.930  26.048  0.00  0.00    +0.000 C 
ATOM      9  C   UNL     1     -46.426 -66.375  28.596  0.00  0.00    +0.000 C 
ATOM     10  C   UNL     1     -44.369 -67.548  22.776  0.00  0.00    +0.000 C 
ATOM     11  C   UNL     1     -44.137 -68.948  24.948  0.00  0.00    +0.000 C 
ATOM     12  C   UNL     1     -46.985 -67.573  29.422  0.00  0.00    +0.000 C 
ATOM     13  C   UNL     1     -43.983 -68.900  23.430  0.00  0.00    +0.000 C 
ATOM     14  C   UNL     1     -43.384 -67.097  21.660  0.00  0.00    +0.000 C 
ATOM     15  C   UNL     1     -45.926 -69.269  27.781  0.00  0.00    +0.000 C 
ATOM     16  C   UNL     1     -44.895 -65.101  23.183  0.00  0.00    +0.000 C 
ATOM     17  C   UNL     1     -43.805 -65.694  21.082  0.00  0.00    +0.000 C 
ATOM     18  C   UNL     1     -47.425 -65.197  28.723  0.00  0.00    +0.000 C 
ATOM     19  C   UNL     1     -46.133 -68.828  29.223  0.00  0.00    +0.000 C 
ATOM     20  C   UNL     1     -45.041 -65.916  29.116  0.00  0.00    +0.000 C 
ATOM     21  C   UNL     1     -47.215 -67.215  30.891  0.00  0.00    +0.000 C 
ATOM     22  C   UNL     1     -47.738 -64.828  30.176  0.00  0.00    +0.000 C 
ATOM     23  C   UNL     1     -48.176 -66.031  31.011  0.00  0.00    +0.000 C 
ATOM     24  C   UNL     1     -42.809 -65.213  19.997  0.00  0.00    +0.000 C 
ATOM     25  C   UNL     1     -44.236 -63.355  21.686  0.00  0.00    +0.000 C 
ATOM     26  C   UNL     1     -43.296 -68.155  20.550  0.00  0.00    +0.000 C 
ATOM     27  C   UNL     1     -43.222 -62.814  20.673  0.00  0.00    +0.000 C 
ATOM     28  C   UNL     1     -43.097 -63.797  19.511  0.00  0.00    +0.000 C 
ATOM     29  C   UNL     1     -41.869 -62.518  21.325  0.00  0.00    +0.000 C 
ENDROOT
BRANCH  14  30
ATOM     30  O   UNL     1     -42.075 -66.975  22.243  0.00  0.00    +0.000 OA
ATOM     31  H   UNL     1     -41.453 -67.192  21.520  0.00  0.00    +0.000 HD
ENDBRANCH  14  30
BRANCH  23  32
ATOM     32  O   UNL     1     -48.271 -65.622  32.371  0.00  0.00    +0.000 OA
ATOM     33  H   UNL     1     -47.879 -64.735  32.443  0.00  0.00    +0.000 HD
ENDBRANCH  23  32
TORSDOF 2
ENDMDL
