MODEL 1
REMARK VINA RESULT:      -8.1      0.000      0.000
REMARK  Name = PhIP.pdbqt.pdb
REMARK  2 active torsions:
REMARK  status: ('A' for Active; 'I' for Inactive)
REMARK    1  A    between atoms: N_4  and  C_9
REMARK    2  A    between atoms: C_7  and  C_10
REMARK                            x       y       z     vdW  Elec       q    Type
REMARK                         _______ _______ _______ _____ _____    ______ ____
ROOT
ATOM      1  N   UNL     1     -60.426 -64.681  41.158  0.00  0.00    +0.000 N 
ATOM      2  N   UNL     1     -61.609 -63.494  42.851  0.00  0.00    +0.000 NA
ATOM      3  N   UNL     1     -60.089 -61.608  43.002  0.00  0.00    +0.000 NA
ATOM      4  C   UNL     1     -59.745 -63.521  41.373  0.00  0.00    +0.000 C 
ATOM      5  C   UNL     1     -60.556 -62.817  42.471  0.00  0.00    +0.000 C 
ATOM      6  C   UNL     1     -57.999 -61.854  41.690  0.00  0.00    +0.000 C 
ATOM      7  C   UNL     1     -58.564 -63.040  41.126  0.00  0.00    +0.000 C 
ATOM      8  C   UNL     1     -61.488 -64.627  42.064  0.00  0.00    +0.000 C 
ATOM      9  C   UNL     1     -59.761 -65.923  40.807  0.00  0.00    +0.000 C 
ATOM     10  C   UNL     1     -59.011 -61.369  42.586  0.00  0.00    +0.000 C 
ENDROOT
BRANCH   6  11
ATOM     11  C   UNL     1     -56.726 -61.235  41.371  0.00  0.00    +0.000 A 
ATOM     12  C   UNL     1     -56.472 -60.753  40.085  0.00  0.00    +0.000 A 
ATOM     13  C   UNL     1     -55.733 -61.109  42.344  0.00  0.00    +0.000 A 
ATOM     14  C   UNL     1     -55.250 -60.157  39.776  0.00  0.00    +0.000 A 
ATOM     15  C   UNL     1     -54.509 -60.515  42.040  0.00  0.00    +0.000 A 
ATOM     16  C   UNL     1     -54.269 -60.039  40.754  0.00  0.00    +0.000 A 
ENDBRANCH   6  11
BRANCH   8  17
ATOM     17  N   UNL     1     -62.393 -65.673  42.313  0.00  0.00    +0.000 NA
ATOM     18  H   UNL     1     -61.944 -66.543  42.578  0.00  0.00    +0.000 HD
ATOM     19  H   UNL     1     -63.153 -65.398  42.923  0.00  0.00    +0.000 HD
ENDBRANCH   8  17
TORSDOF 2
ENDMDL
MODEL 2
REMARK VINA RESULT:      -6.8      2.644      4.354
REMARK  Name = PhIP.pdbqt.pdb
REMARK  2 active torsions:
REMARK  status: ('A' for Active; 'I' for Inactive)
REMARK    1  A    between atoms: N_4  and  C_9
REMARK    2  A    between atoms: C_7  and  C_10
REMARK                            x       y       z     vdW  Elec       q    Type
REMARK                         _______ _______ _______ _____ _____    ______ ____
ROOT
ATOM      1  N   UNL     1     -64.125 -65.997  42.014  0.00  0.00    +0.000 N 
ATOM      2  N   UNL     1     -65.229 -65.088  40.109  0.00  0.00    +0.000 NA
ATOM      3  N   UNL     1     -63.411 -63.660  39.372  0.00  0.00    +0.000 NA
ATOM      4  C   UNL     1     -63.233 -65.170  41.401  0.00  0.00    +0.000 C 
ATOM      5  C   UNL     1     -64.010 -64.621  40.196  0.00  0.00    +0.000 C 
ATOM      6  C   UNL     1     -61.493 -63.530  40.940  0.00  0.00    +0.000 C 
ATOM      7  C   UNL     1     -62.120 -64.569  41.697  0.00  0.00    +0.000 C 
ATOM      8  C   UNL     1     -65.280 -65.892  41.236  0.00  0.00    +0.000 C 
ATOM      9  C   UNL     1     -64.167 -66.169  43.456  0.00  0.00    +0.000 C 
ATOM     10  C   UNL     1     -62.387 -63.306  39.837  0.00  0.00    +0.000 C 
ENDROOT
BRANCH   6  11
ATOM     11  C   UNL     1     -60.210 -62.901  41.184  0.00  0.00    +0.000 A 
ATOM     12  C   UNL     1     -60.130 -61.693  41.880  0.00  0.00    +0.000 A 
ATOM     13  C   UNL     1     -59.029 -63.492  40.729  0.00  0.00    +0.000 A 
ATOM     14  C   UNL     1     -58.898 -61.086  42.117  0.00  0.00    +0.000 A 
ATOM     15  C   UNL     1     -57.794 -62.890  40.962  0.00  0.00    +0.000 A 
ATOM     16  C   UNL     1     -57.730 -61.685  41.657  0.00  0.00    +0.000 A 
ENDBRANCH   6  11
BRANCH   8  17
ATOM     17  N   UNL     1     -66.525 -66.460  41.555  0.00  0.00    +0.000 NA
ATOM     18  H   UNL     1     -66.902 -67.048  40.819  0.00  0.00    +0.000 HD
ATOM     19  H   UNL     1     -66.539 -66.888  42.472  0.00  0.00    +0.000 HD
ENDBRANCH   8  17
TORSDOF 2
ENDMDL
MODEL 3
REMARK VINA RESULT:      -6.5      3.561      6.651
REMARK  Name = PhIP.pdbqt.pdb
REMARK  2 active torsions:
REMARK  status: ('A' for Active; 'I' for Inactive)
REMARK    1  A    between atoms: N_4  and  C_9
REMARK    2  A    between atoms: C_7  and  C_10
REMARK                            x       y       z     vdW  Elec       q    Type
REMARK                         _______ _______ _______ _____ _____    ______ ____
ROOT
ATOM      1  N   UNL     1     -61.943 -62.704  43.149  0.00  0.00    +0.000 N 
ATOM      2  N   UNL     1     -59.606 -62.448  42.761  0.00  0.00    +0.000 NA
ATOM      3  N   UNL     1     -59.537 -63.596  40.624  0.00  0.00    +0.000 NA
ATOM      4  C   UNL     1     -61.683 -63.259  41.932  0.00  0.00    +0.000 C 
ATOM      5  C   UNL     1     -60.171 -63.064  41.754  0.00  0.00    +0.000 C 
ATOM      6  C   UNL     1     -61.657 -64.710  39.977  0.00  0.00    +0.000 C 
ATOM      7  C   UNL     1     -62.264 -64.074  41.105  0.00  0.00    +0.000 C 
ATOM      8  C   UNL     1     -60.694 -62.271  43.601  0.00  0.00    +0.000 C 
ATOM      9  C   UNL     1     -62.959 -63.226  44.045  0.00  0.00    +0.000 C 
ATOM     10  C   UNL     1     -60.292 -64.264  40.011  0.00  0.00    +0.000 C 
ENDROOT
BRANCH   6  11
ATOM     11  C   UNL     1     -62.292 -65.550  38.979  0.00  0.00    +0.000 A 
ATOM     12  C   UNL     1     -63.045 -64.984  37.949  0.00  0.00    +0.000 A 
ATOM     13  C   UNL     1     -62.160 -66.939  39.030  0.00  0.00    +0.000 A 
ATOM     14  C   UNL     1     -63.656 -65.788  36.988  0.00  0.00    +0.000 A 
ATOM     15  C   UNL     1     -62.769 -67.748  38.073  0.00  0.00    +0.000 A 
ATOM     16  C   UNL     1     -63.518 -67.171  37.051  0.00  0.00    +0.000 A 
ENDBRANCH   6  11
BRANCH   8  17
ATOM     17  N   UNL     1     -60.430 -61.754  44.881  0.00  0.00    +0.000 NA
ATOM     18  H   UNL     1     -60.876 -62.276  45.627  0.00  0.00    +0.000 HD
ATOM     19  H   UNL     1     -59.447 -61.570  45.036  0.00  0.00    +0.000 HD
ENDBRANCH   8  17
TORSDOF 2
ENDMDL
MODEL 4
REMARK VINA RESULT:      -6.3     15.916     18.012
REMARK  Name = PhIP.pdbqt.pdb
REMARK  2 active torsions:
REMARK  status: ('A' for Active; 'I' for Inactive)
REMARK    1  A    between atoms: N_4  and  C_9
REMARK    2  A    between atoms: C_7  and  C_10
REMARK                            x       y       z     vdW  Elec       q    Type
REMARK                         _______ _______ _______ _____ _____    ______ ____
ROOT
ATOM      1  N   UNL     1     -47.549 -67.209  30.659  0.00  0.00    +0.000 N 
ATOM      2  N   UNL     1     -46.984 -68.693  28.884  0.00  0.00    +0.000 NA
ATOM      3  N   UNL     1     -46.164 -67.007  27.343  0.00  0.00    +0.000 NA
ATOM      4  C   UNL     1     -47.006 -66.448  29.669  0.00  0.00    +0.000 C 
ATOM      5  C   UNL     1     -46.675 -67.463  28.565  0.00  0.00    +0.000 C 
ATOM      6  C   UNL     1     -46.526 -64.666  28.079  0.00  0.00    +0.000 C 
ATOM      7  C   UNL     1     -46.965 -65.193  29.334  0.00  0.00    +0.000 C 
ATOM      8  C   UNL     1     -47.538 -68.506  30.140  0.00  0.00    +0.000 C 
ATOM      9  C   UNL     1     -48.610 -66.724  31.525  0.00  0.00    +0.000 C 
ATOM     10  C   UNL     1     -46.191 -65.829  27.304  0.00  0.00    +0.000 C 
ENDROOT
BRANCH   6  11
ATOM     11  C   UNL     1     -46.377 -63.274  27.701  0.00  0.00    +0.000 A 
ATOM     12  C   UNL     1     -47.130 -62.281  28.331  0.00  0.00    +0.000 A 
ATOM     13  C   UNL     1     -45.476 -62.901  26.702  0.00  0.00    +0.000 A 
ATOM     14  C   UNL     1     -46.988 -60.942  27.970  0.00  0.00    +0.000 A 
ATOM     15  C   UNL     1     -45.330 -61.564  26.336  0.00  0.00    +0.000 A 
ATOM     16  C   UNL     1     -46.088 -60.584  26.972  0.00  0.00    +0.000 A 
ENDBRANCH   6  11
BRANCH   8  17
ATOM     17  N   UNL     1     -48.129 -69.626  30.747  0.00  0.00    +0.000 NA
ATOM     18  H   UNL     1     -47.460 -70.331  31.037  0.00  0.00    +0.000 HD
ATOM     19  H   UNL     1     -48.802 -69.377  31.461  0.00  0.00    +0.000 HD
ENDBRANCH   8  17
TORSDOF 2
ENDMDL
MODEL 5
REMARK VINA RESULT:      -6.1      4.630      6.491
REMARK  Name = PhIP.pdbqt.pdb
REMARK  2 active torsions:
REMARK  status: ('A' for Active; 'I' for Inactive)
REMARK    1  A    between atoms: N_4  and  C_9
REMARK    2  A    between atoms: C_7  and  C_10
REMARK                            x       y       z     vdW  Elec       q    Type
REMARK                         _______ _______ _______ _____ _____    ______ ____
ROOT
ATOM      1  N   UNL     1     -63.806 -65.154  40.028  0.00  0.00    +0.000 N 
ATOM      2  N   UNL     1     -62.483 -63.180  40.201  0.00  0.00    +0.000 NA
ATOM      3  N   UNL     1     -60.327 -64.286  40.352  0.00  0.00    +0.000 NA
ATOM      4  C   UNL     1     -62.506 -65.556  40.080  0.00  0.00    +0.000 C 
ATOM      5  C   UNL     1     -61.719 -64.242  40.195  0.00  0.00    +0.000 C 
ATOM      6  C   UNL     1     -60.441 -66.754  40.562  0.00  0.00    +0.000 C 
ATOM      7  C   UNL     1     -61.847 -66.649  40.320  0.00  0.00    +0.000 C 
ATOM      8  C   UNL     1     -63.738 -63.762  40.130  0.00  0.00    +0.000 C 
ATOM      9  C   UNL     1     -64.887 -65.927  40.614  0.00  0.00    +0.000 C 
ATOM     10  C   UNL     1     -59.970 -65.398  40.509  0.00  0.00    +0.000 C 
ENDROOT
BRANCH   6  11
ATOM     11  C   UNL     1     -59.656 -67.961  40.741  0.00  0.00    +0.000 A 
ATOM     12  C   UNL     1     -60.181 -69.055  41.431  0.00  0.00    +0.000 A 
ATOM     13  C   UNL     1     -58.362 -68.050  40.224  0.00  0.00    +0.000 A 
ATOM     14  C   UNL     1     -59.429 -70.216  41.604  0.00  0.00    +0.000 A 
ATOM     15  C   UNL     1     -57.605 -69.208  40.394  0.00  0.00    +0.000 A 
ATOM     16  C   UNL     1     -58.140 -70.292  41.085  0.00  0.00    +0.000 A 
ENDBRANCH   6  11
BRANCH   8  17
ATOM     17  N   UNL     1     -64.844 -62.905  40.263  0.00  0.00    +0.000 NA
ATOM     18  H   UNL     1     -64.896 -62.449  41.167  0.00  0.00    +0.000 HD
ATOM     19  H   UNL     1     -64.951 -62.277  39.477  0.00  0.00    +0.000 HD
ENDBRANCH   8  17
TORSDOF 2
ENDMDL
MODEL 6
REMARK VINA RESULT:      -6.0     16.797     18.974
REMARK  Name = PhIP.pdbqt.pdb
REMARK  2 active torsions:
REMARK  status: ('A' for Active; 'I' for Inactive)
REMARK    1  A    between atoms: N_4  and  C_9
REMARK    2  A    between atoms: C_7  and  C_10
REMARK                            x       y       z     vdW  Elec       q    Type
REMARK                         _______ _______ _______ _____ _____    ______ ____
ROOT
ATOM      1  N   UNL     1     -41.916 -53.522  34.120  0.00  0.00    +0.000 N 
ATOM      2  N   UNL     1     -44.036 -52.885  35.001  0.00  0.00    +0.000 NA
ATOM      3  N   UNL     1     -44.427 -54.896  36.303  0.00  0.00    +0.000 NA
ATOM      4  C   UNL     1     -42.315 -54.527  34.948  0.00  0.00    +0.000 C 
ATOM      5  C   UNL     1     -43.679 -54.054  35.470  0.00  0.00    +0.000 C 
ATOM      6  C   UNL     1     -42.768 -56.704  35.941  0.00  0.00    +0.000 C 
ATOM      7  C   UNL     1     -42.012 -55.772  35.164  0.00  0.00    +0.000 C 
ATOM      8  C   UNL     1     -42.967 -52.603  34.166  0.00  0.00    +0.000 C 
ATOM      9  C   UNL     1     -41.142 -53.764  32.914  0.00  0.00    +0.000 C 
ATOM     10  C   UNL     1     -43.916 -55.957  36.373  0.00  0.00    +0.000 C 
ENDROOT
BRANCH   6  11
ATOM     11  C   UNL     1     -42.418 -58.070  36.282  0.00  0.00    +0.000 A 
ATOM     12  C   UNL     1     -43.226 -58.818  37.140  0.00  0.00    +0.000 A 
ATOM     13  C   UNL     1     -41.268 -58.662  35.757  0.00  0.00    +0.000 A 
ATOM     14  C   UNL     1     -42.892 -60.131  37.470  0.00  0.00    +0.000 A 
ATOM     15  C   UNL     1     -40.928 -59.974  36.084  0.00  0.00    +0.000 A 
ATOM     16  C   UNL     1     -41.743 -60.708  36.941  0.00  0.00    +0.000 A 
ENDBRANCH   6  11
BRANCH   8  17
ATOM     17  N   UNL     1     -43.076 -51.457  33.360  0.00  0.00    +0.000 NA
ATOM     18  H   UNL     1     -43.728 -51.564  32.590  0.00  0.00    +0.000 HD
ATOM     19  H   UNL     1     -43.207 -50.610  33.897  0.00  0.00    +0.000 HD
ENDBRANCH   8  17
TORSDOF 2
ENDMDL
MODEL 7
REMARK VINA RESULT:      -5.9     27.454     28.558
REMARK  Name = PhIP.pdbqt.pdb
REMARK  2 active torsions:
REMARK  status: ('A' for Active; 'I' for Inactive)
REMARK    1  A    between atoms: N_4  and  C_9
REMARK    2  A    between atoms: C_7  and  C_10
REMARK                            x       y       z     vdW  Elec       q    Type
REMARK                         _______ _______ _______ _____ _____    ______ ____
ROOT
ATOM      1  N   UNL     1     -38.065 -42.971  49.155  0.00  0.00    +0.000 N 
ATOM      2  N   UNL     1     -38.297 -43.808  46.936  0.00  0.00    +0.000 NA
ATOM      3  N   UNL     1     -40.408 -42.721  46.433  0.00  0.00    +0.000 NA
ATOM      4  C   UNL     1     -39.207 -42.429  48.648  0.00  0.00    +0.000 C 
ATOM      5  C   UNL     1     -39.293 -43.012  47.230  0.00  0.00    +0.000 C 
ATOM      6  C   UNL     1     -41.472 -41.580  48.362  0.00  0.00    +0.000 C 
ATOM      7  C   UNL     1     -40.274 -41.840  49.099  0.00  0.00    +0.000 C 
ATOM      8  C   UNL     1     -37.589 -43.788  48.127  0.00  0.00    +0.000 C 
ATOM      9  C   UNL     1     -37.922 -43.318  50.558  0.00  0.00    +0.000 C 
ATOM     10  C   UNL     1     -41.219 -42.141  47.064  0.00  0.00    +0.000 C 
ENDROOT
BRANCH   6  11
ATOM     11  C   UNL     1     -42.644 -40.846  48.798  0.00  0.00    +0.000 A 
ATOM     12  C   UNL     1     -43.183 -41.057  50.070  0.00  0.00    +0.000 A 
ATOM     13  C   UNL     1     -43.254 -39.914  47.957  0.00  0.00    +0.000 A 
ATOM     14  C   UNL     1     -44.309 -40.353  50.492  0.00  0.00    +0.000 A 
ATOM     15  C   UNL     1     -44.381 -39.207  48.373  0.00  0.00    +0.000 A 
ATOM     16  C   UNL     1     -44.908 -39.428  49.643  0.00  0.00    +0.000 A 
ENDBRANCH   6  11
BRANCH   8  17
ATOM     17  N   UNL     1     -36.499 -44.669  48.232  0.00  0.00    +0.000 NA
ATOM     18  H   UNL     1     -36.108 -44.939  47.335  0.00  0.00    +0.000 HD
ATOM     19  H   UNL     1     -35.810 -44.363  48.907  0.00  0.00    +0.000 HD
ENDBRANCH   8  17
TORSDOF 2
ENDMDL
MODEL 8
REMARK VINA RESULT:      -5.9     29.657     31.936
REMARK  Name = PhIP.pdbqt.pdb
REMARK  2 active torsions:
REMARK  status: ('A' for Active; 'I' for Inactive)
REMARK    1  A    between atoms: N_4  and  C_9
REMARK    2  A    between atoms: C_7  and  C_10
REMARK                            x       y       z     vdW  Elec       q    Type
REMARK                         _______ _______ _______ _____ _____    ______ ____
ROOT
ATOM      1  N   UNL     1     -33.030 -43.606  53.421  0.00  0.00    +0.000 N 
ATOM      2  N   UNL     1     -35.138 -43.092  52.437  0.00  0.00    +0.000 NA
ATOM      3  N   UNL     1     -35.905 -45.381  52.178  0.00  0.00    +0.000 NA
ATOM      4  C   UNL     1     -33.672 -44.791  53.227  0.00  0.00    +0.000 C 
ATOM      5  C   UNL     1     -35.009 -44.385  52.590  0.00  0.00    +0.000 C 
ATOM      6  C   UNL     1     -34.204 -47.109  52.701  0.00  0.00    +0.000 C 
ATOM      7  C   UNL     1     -33.367 -46.053  53.179  0.00  0.00    +0.000 C 
ATOM      8  C   UNL     1     -33.917 -42.650  52.919  0.00  0.00    +0.000 C 
ATOM      9  C   UNL     1     -31.589 -43.470  53.307  0.00  0.00    +0.000 C 
ATOM     10  C   UNL     1     -35.404 -46.444  52.274  0.00  0.00    +0.000 C 
ENDROOT
BRANCH   6  11
ATOM     11  C   UNL     1     -33.937 -48.534  52.718  0.00  0.00    +0.000 A 
ATOM     12  C   UNL     1     -34.773 -49.406  53.420  0.00  0.00    +0.000 A 
ATOM     13  C   UNL     1     -32.841 -49.061  52.032  0.00  0.00    +0.000 A 
ATOM     14  C   UNL     1     -34.518 -50.777  53.438  0.00  0.00    +0.000 A 
ATOM     15  C   UNL     1     -32.582 -50.431  52.046  0.00  0.00    +0.000 A 
ATOM     16  C   UNL     1     -33.423 -51.288  52.751  0.00  0.00    +0.000 A 
ENDBRANCH   6  11
BRANCH   8  17
ATOM     17  N   UNL     1     -33.634 -41.282  52.772  0.00  0.00    +0.000 NA
ATOM     18  H   UNL     1     -34.460 -40.693  52.793  0.00  0.00    +0.000 HD
ATOM     19  H   UNL     1     -32.888 -40.967  53.379  0.00  0.00    +0.000 HD
ENDBRANCH   8  17
TORSDOF 2
ENDMDL
MODEL 9
REMARK VINA RESULT:      -5.8      6.481     10.528
REMARK  Name = PhIP.pdbqt.pdb
REMARK  2 active torsions:
REMARK  status: ('A' for Active; 'I' for Inactive)
REMARK    1  A    between atoms: N_4  and  C_9
REMARK    2  A    between atoms: C_7  and  C_10
REMARK                            x       y       z     vdW  Elec       q    Type
REMARK                         _______ _______ _______ _____ _____    ______ ____
ROOT
ATOM      1  N   UNL     1     -63.552 -65.372  38.983  0.00  0.00    +0.000 N 
ATOM      2  N   UNL     1     -64.237 -64.448  41.069  0.00  0.00    +0.000 NA
ATOM      3  N   UNL     1     -65.527 -66.360  41.826  0.00  0.00    +0.000 NA
ATOM      4  C   UNL     1     -64.279 -66.333  39.618  0.00  0.00    +0.000 C 
ATOM      5  C   UNL     1     -64.688 -65.670  40.941  0.00  0.00    +0.000 C 
ATOM      6  C   UNL     1     -65.814 -68.151  40.134  0.00  0.00    +0.000 C 
ATOM      7  C   UNL     1     -64.890 -67.437  39.309  0.00  0.00    +0.000 C 
ATOM      8  C   UNL     1     -63.581 -64.285  39.860  0.00  0.00    +0.000 C 
ATOM      9  C   UNL     1     -63.562 -65.212  37.539  0.00  0.00    +0.000 C 
ATOM     10  C   UNL     1     -65.916 -67.354  41.325  0.00  0.00    +0.000 C 
ENDROOT
BRANCH   6  11
ATOM     11  C   UNL     1     -66.444 -69.430  39.865  0.00  0.00    +0.000 A 
ATOM     12  C   UNL     1     -67.788 -69.496  39.492  0.00  0.00    +0.000 A 
ATOM     13  C   UNL     1     -65.717 -70.617  39.973  0.00  0.00    +0.000 A 
ATOM     14  C   UNL     1     -68.396 -70.724  39.233  0.00  0.00    +0.000 A 
ATOM     15  C   UNL     1     -66.320 -71.848  39.715  0.00  0.00    +0.000 A 
ATOM     16  C   UNL     1     -67.661 -71.900  39.345  0.00  0.00    +0.000 A 
ENDBRANCH   6  11
BRANCH   8  17
ATOM     17  N   UNL     1     -63.081 -63.003  39.576  0.00  0.00    +0.000 NA
ATOM     18  H   UNL     1     -62.156 -63.012  39.162  0.00  0.00    +0.000 HD
ATOM     19  H   UNL     1     -63.748 -62.421  39.085  0.00  0.00    +0.000 HD
ENDBRANCH   8  17
TORSDOF 2
ENDMDL
