MODEL 1
REMARK VINA RESULT:      -7.3      0.000      0.000
REMARK  Name = Piroxicam.pdbqt.pdb
REMARK  3 active torsions:
REMARK  status: ('A' for Active; 'I' for Inactive)
REMARK    1  A    between atoms: C_7  and  C_14
REMARK    2  A    between atoms: C_8  and  O_24
REMARK    3  A    between atoms: N_16  and  C_18
REMARK                            x       y       z     vdW  Elec       q    Type
REMARK                         _______ _______ _______ _____ _____    ______ ____
ROOT
ATOM      1  S   UNL     1     -31.907 -49.374  50.709  0.00  0.00    +0.000 S 
ATOM      2  O   UNL     1     -32.813 -49.782  49.651  0.00  0.00    +0.000 OA
ATOM      3  O   UNL     1     -30.485 -49.248  50.458  0.00  0.00    +0.000 OA
ATOM      4  N   UNL     1     -32.519 -47.935  51.431  0.00  0.00    +0.000 N 
ATOM      5  C   UNL     1     -32.126 -50.520  52.015  0.00  0.00    +0.000 A 
ATOM      6  C   UNL     1     -33.219 -50.332  52.859  0.00  0.00    +0.000 A 
ATOM      7  C   UNL     1     -33.836 -48.087  51.983  0.00  0.00    +0.000 C 
ATOM      8  C   UNL     1     -34.164 -49.218  52.650  0.00  0.00    +0.000 C 
ATOM      9  C   UNL     1     -31.208 -51.548  52.192  0.00  0.00    +0.000 A 
ATOM     10  C   UNL     1     -31.633 -47.156  52.313  0.00  0.00    +0.000 C 
ATOM     11  C   UNL     1     -33.400 -51.251  53.894  0.00  0.00    +0.000 A 
ATOM     12  C   UNL     1     -31.401 -52.443  53.238  0.00  0.00    +0.000 A 
ATOM     13  C   UNL     1     -32.498 -52.299  54.084  0.00  0.00    +0.000 A 
ENDROOT
BRANCH   7  14
ATOM     14  C   UNL     1     -34.828 -46.980  51.788  0.00  0.00    +0.000 C 
ATOM     15  O   UNL     1     -35.673 -46.769  52.656  0.00  0.00    +0.000 OA
ATOM     16  N   UNL     1     -34.699 -46.285  50.613  0.00  0.00    +0.000 N 
ATOM     17  H   UNL     1     -33.932 -46.482  49.980  0.00  0.00    +0.000 HD
BRANCH  16  18
ATOM     18  C   UNL     1     -35.507 -45.234  50.177  0.00  0.00    +0.000 A 
ATOM     19  N   UNL     1     -34.829 -44.126  49.815  0.00  0.00    +0.000 NA
ATOM     20  C   UNL     1     -35.563 -43.077  49.380  0.00  0.00    +0.000 A 
ATOM     21  C   UNL     1     -36.944 -43.076  49.285  0.00  0.00    +0.000 A 
ATOM     22  C   UNL     1     -37.611 -44.233  49.663  0.00  0.00    +0.000 A 
ATOM     23  C   UNL     1     -36.890 -45.331  50.115  0.00  0.00    +0.000 A 
ENDBRANCH  16  18
ENDBRANCH   7  14
BRANCH   8  24
ATOM     24  O   UNL     1     -35.408 -49.443  53.216  0.00  0.00    +0.000 OA
ATOM     25  H   UNL     1     -36.103 -49.382  52.521  0.00  0.00    +0.000 HD
ENDBRANCH   8  24
TORSDOF 3
ENDMDL
MODEL 2
REMARK VINA RESULT:      -6.6     22.346     26.416
REMARK  Name = Piroxicam.pdbqt.pdb
REMARK  3 active torsions:
REMARK  status: ('A' for Active; 'I' for Inactive)
REMARK    1  A    between atoms: C_7  and  C_14
REMARK    2  A    between atoms: C_8  and  O_24
REMARK    3  A    between atoms: N_16  and  C_18
REMARK                            x       y       z     vdW  Elec       q    Type
REMARK                         _______ _______ _______ _____ _____    ______ ____
ROOT
ATOM      1  S   UNL     1     -56.802 -38.648  38.859  0.00  0.00    +0.000 S 
ATOM      2  O   UNL     1     -56.157 -37.937  39.947  0.00  0.00    +0.000 OA
ATOM      3  O   UNL     1     -57.112 -37.972  37.614  0.00  0.00    +0.000 OA
ATOM      4  N   UNL     1     -55.922 -40.096  38.553  0.00  0.00    +0.000 N 
ATOM      5  C   UNL     1     -58.293 -39.296  39.508  0.00  0.00    +0.000 A 
ATOM      6  C   UNL     1     -58.214 -40.473  40.249  0.00  0.00    +0.000 A 
ATOM      7  C   UNL     1     -55.841 -40.968  39.690  0.00  0.00    +0.000 C 
ATOM      8  C   UNL     1     -56.920 -41.140  40.490  0.00  0.00    +0.000 C 
ATOM      9  C   UNL     1     -59.497 -38.650  39.248  0.00  0.00    +0.000 A 
ATOM     10  C   UNL     1     -56.188 -40.833  37.305  0.00  0.00    +0.000 C 
ATOM     11  C   UNL     1     -59.402 -40.985  40.775  0.00  0.00    +0.000 A 
ATOM     12  C   UNL     1     -60.667 -39.186  39.772  0.00  0.00    +0.000 A 
ATOM     13  C   UNL     1     -60.621 -40.348  40.539  0.00  0.00    +0.000 A 
ENDROOT
BRANCH   7  14
ATOM     14  C   UNL     1     -54.542 -41.661  39.974  0.00  0.00    +0.000 C 
ATOM     15  O   UNL     1     -54.486 -42.888  39.910  0.00  0.00    +0.000 OA
ATOM     16  N   UNL     1     -53.499 -40.830  40.295  0.00  0.00    +0.000 N 
ATOM     17  H   UNL     1     -53.614 -39.823  40.260  0.00  0.00    +0.000 HD
BRANCH  16  18
ATOM     18  C   UNL     1     -52.201 -41.218  40.627  0.00  0.00    +0.000 A 
ATOM     19  N   UNL     1     -51.341 -41.224  39.589  0.00  0.00    +0.000 NA
ATOM     20  C   UNL     1     -50.065 -41.588  39.856  0.00  0.00    +0.000 A 
ATOM     21  C   UNL     1     -49.602 -41.946  41.109  0.00  0.00    +0.000 A 
ATOM     22  C   UNL     1     -50.512 -41.927  42.157  0.00  0.00    +0.000 A 
ATOM     23  C   UNL     1     -51.831 -41.558  41.921  0.00  0.00    +0.000 A 
ENDBRANCH  16  18
ENDBRANCH   7  14
BRANCH   8  24
ATOM     24  O   UNL     1     -56.928 -41.964  41.603  0.00  0.00    +0.000 OA
ATOM     25  H   UNL     1     -56.135 -42.548  41.588  0.00  0.00    +0.000 HD
ENDBRANCH   8  24
TORSDOF 3
ENDMDL
MODEL 3
REMARK VINA RESULT:      -6.3     35.420     36.445
REMARK  Name = Piroxicam.pdbqt.pdb
REMARK  3 active torsions:
REMARK  status: ('A' for Active; 'I' for Inactive)
REMARK    1  A    between atoms: C_7  and  C_14
REMARK    2  A    between atoms: C_8  and  O_24
REMARK    3  A    between atoms: N_16  and  C_18
REMARK                            x       y       z     vdW  Elec       q    Type
REMARK                         _______ _______ _______ _____ _____    ______ ____
ROOT
ATOM      1  S   UNL     1     -58.531 -70.681  64.065  0.00  0.00    +0.000 S 
ATOM      2  O   UNL     1     -57.659 -70.129  63.046  0.00  0.00    +0.000 OA
ATOM      3  O   UNL     1     -59.971 -70.548  63.958  0.00  0.00    +0.000 OA
ATOM      4  N   UNL     1     -58.098 -72.328  64.324  0.00  0.00    +0.000 N 
ATOM      5  C   UNL     1     -58.033 -69.964  65.583  0.00  0.00    +0.000 A 
ATOM      6  C   UNL     1     -56.920 -70.512  66.218  0.00  0.00    +0.000 A 
ATOM      7  C   UNL     1     -56.735 -72.503  64.739  0.00  0.00    +0.000 C 
ATOM      8  C   UNL     1     -56.182 -71.644  65.626  0.00  0.00    +0.000 C 
ATOM      9  C   UNL     1     -58.762 -68.909  66.120  0.00  0.00    +0.000 A 
ATOM     10  C   UNL     1     -59.024 -73.191  65.078  0.00  0.00    +0.000 C 
ATOM     11  C   UNL     1     -56.517 -69.935  67.423  0.00  0.00    +0.000 A 
ATOM     12  C   UNL     1     -58.348 -68.359  67.327  0.00  0.00    +0.000 A 
ATOM     13  C   UNL     1     -57.224 -68.866  67.976  0.00  0.00    +0.000 A 
ENDROOT
BRANCH   7  14
ATOM     14  C   UNL     1     -55.947 -73.638  64.156  0.00  0.00    +0.000 C 
ATOM     15  O   UNL     1     -55.067 -74.170  64.831  0.00  0.00    +0.000 OA
ATOM     16  N   UNL     1     -56.291 -73.986  62.874  0.00  0.00    +0.000 N 
ATOM     17  H   UNL     1     -57.075 -73.539  62.413  0.00  0.00    +0.000 HD
BRANCH  16  18
ATOM     18  C   UNL     1     -55.699 -74.982  62.098  0.00  0.00    +0.000 A 
ATOM     19  N   UNL     1     -56.490 -76.049  61.866  0.00  0.00    +0.000 NA
ATOM     20  C   UNL     1     -55.967 -77.045  61.114  0.00  0.00    +0.000 A 
ATOM     21  C   UNL     1     -54.692 -77.029  60.577  0.00  0.00    +0.000 A 
ATOM     22  C   UNL     1     -53.904 -75.916  60.832  0.00  0.00    +0.000 A 
ATOM     23  C   UNL     1     -54.407 -74.874  61.602  0.00  0.00    +0.000 A 
ENDBRANCH  16  18
ENDBRANCH   7  14
BRANCH   8  24
ATOM     24  O   UNL     1     -54.877 -71.744  66.081  0.00  0.00    +0.000 OA
ATOM     25  H   UNL     1     -54.761 -71.179  66.879  0.00  0.00    +0.000 HD
ENDBRANCH   8  24
TORSDOF 3
ENDMDL
MODEL 4
REMARK VINA RESULT:      -6.1     21.353     22.535
REMARK  Name = Piroxicam.pdbqt.pdb
REMARK  3 active torsions:
REMARK  status: ('A' for Active; 'I' for Inactive)
REMARK    1  A    between atoms: C_7  and  C_14
REMARK    2  A    between atoms: C_8  and  O_24
REMARK    3  A    between atoms: N_16  and  C_18
REMARK                            x       y       z     vdW  Elec       q    Type
REMARK                         _______ _______ _______ _____ _____    ______ ____
ROOT
ATOM      1  S   UNL     1     -45.325 -47.936  71.594  0.00  0.00    +0.000 S 
ATOM      2  O   UNL     1     -44.053 -48.247  70.970  0.00  0.00    +0.000 OA
ATOM      3  O   UNL     1     -45.696 -48.539  72.859  0.00  0.00    +0.000 OA
ATOM      4  N   UNL     1     -45.492 -46.224  71.672  0.00  0.00    +0.000 N 
ATOM      5  C   UNL     1     -46.561 -48.337  70.420  0.00  0.00    +0.000 A 
ATOM      6  C   UNL     1     -46.814 -47.411  69.410  0.00  0.00    +0.000 A 
ATOM      7  C   UNL     1     -45.439 -45.584  70.388  0.00  0.00    +0.000 C 
ATOM      8  C   UNL     1     -46.057 -46.147  69.324  0.00  0.00    +0.000 C 
ATOM      9  C   UNL     1     -47.266 -49.529  70.541  0.00  0.00    +0.000 A 
ATOM     10  C   UNL     1     -46.545 -45.656  72.532  0.00  0.00    +0.000 C 
ATOM     11  C   UNL     1     -47.792 -47.735  68.468  0.00  0.00    +0.000 A 
ATOM     12  C   UNL     1     -48.244 -49.824  69.599  0.00  0.00    +0.000 A 
ATOM     13  C   UNL     1     -48.504 -48.932  68.561  0.00  0.00    +0.000 A 
ENDROOT
BRANCH   7  14
ATOM     14  C   UNL     1     -44.674 -44.300  70.257  0.00  0.00    +0.000 C 
ATOM     15  O   UNL     1     -45.186 -43.353  69.663  0.00  0.00    +0.000 OA
ATOM     16  N   UNL     1     -43.428 -44.306  70.828  0.00  0.00    +0.000 N 
ATOM     17  H   UNL     1     -43.108 -45.109  71.358  0.00  0.00    +0.000 HD
BRANCH  16  18
ATOM     18  C   UNL     1     -42.508 -43.257  70.823  0.00  0.00    +0.000 A 
ATOM     19  N   UNL     1     -41.469 -43.433  69.982  0.00  0.00    +0.000 NA
ATOM     20  C   UNL     1     -40.548 -42.443  69.934  0.00  0.00    +0.000 A 
ATOM     21  C   UNL     1     -40.612 -41.282  70.683  0.00  0.00    +0.000 A 
ATOM     22  C   UNL     1     -41.695 -41.130  71.537  0.00  0.00    +0.000 A 
ATOM     23  C   UNL     1     -42.661 -42.126  71.614  0.00  0.00    +0.000 A 
ENDBRANCH  16  18
ENDBRANCH   7  14
BRANCH   8  24
ATOM     24  O   UNL     1     -46.057 -45.595  68.054  0.00  0.00    +0.000 OA
ATOM     25  H   UNL     1     -46.641 -46.123  67.463  0.00  0.00    +0.000 HD
ENDBRANCH   8  24
TORSDOF 3
ENDMDL
MODEL 5
REMARK VINA RESULT:      -6.1     21.764     22.638
REMARK  Name = Piroxicam.pdbqt.pdb
REMARK  3 active torsions:
REMARK  status: ('A' for Active; 'I' for Inactive)
REMARK    1  A    between atoms: C_7  and  C_14
REMARK    2  A    between atoms: C_8  and  O_24
REMARK    3  A    between atoms: N_16  and  C_18
REMARK                            x       y       z     vdW  Elec       q    Type
REMARK                         _______ _______ _______ _____ _____    ______ ____
ROOT
ATOM      1  S   UNL     1     -45.223 -48.038  71.561  0.00  0.00    +0.000 S 
ATOM      2  O   UNL     1     -43.973 -48.346  70.892  0.00  0.00    +0.000 OA
ATOM      3  O   UNL     1     -45.570 -48.681  72.814  0.00  0.00    +0.000 OA
ATOM      4  N   UNL     1     -45.361 -46.328  71.705  0.00  0.00    +0.000 N 
ATOM      5  C   UNL     1     -46.496 -48.379  70.409  0.00  0.00    +0.000 A 
ATOM      6  C   UNL     1     -46.761 -47.413  69.439  0.00  0.00    +0.000 A 
ATOM      7  C   UNL     1     -45.332 -45.643  70.444  0.00  0.00    +0.000 C 
ATOM      8  C   UNL     1     -45.987 -46.159  69.377  0.00  0.00    +0.000 C 
ATOM      9  C   UNL     1     -47.216 -49.564  70.506  0.00  0.00    +0.000 A 
ATOM     10  C   UNL     1     -46.381 -45.776  72.613  0.00  0.00    +0.000 C 
ATOM     11  C   UNL     1     -47.770 -47.689  68.514  0.00  0.00    +0.000 A 
ATOM     12  C   UNL     1     -48.225 -49.810  69.582  0.00  0.00    +0.000 A 
ATOM     13  C   UNL     1     -48.498 -48.877  68.583  0.00  0.00    +0.000 A 
ENDROOT
BRANCH   7  14
ATOM     14  C   UNL     1     -44.551 -44.367  70.337  0.00  0.00    +0.000 C 
ATOM     15  O   UNL     1     -43.322 -44.410  70.350  0.00  0.00    +0.000 OA
ATOM     16  N   UNL     1     -45.309 -43.229  70.238  0.00  0.00    +0.000 N 
ATOM     17  H   UNL     1     -46.319 -43.288  70.168  0.00  0.00    +0.000 HD
BRANCH  16  18
ATOM     18  C   UNL     1     -44.834 -41.919  70.155  0.00  0.00    +0.000 A 
ATOM     19  N   UNL     1     -44.591 -41.341  71.349  0.00  0.00    +0.000 NA
ATOM     20  C   UNL     1     -44.124 -40.071  71.328  0.00  0.00    +0.000 A 
ATOM     21  C   UNL     1     -43.884 -39.348  70.173  0.00  0.00    +0.000 A 
ATOM     22  C   UNL     1     -44.142 -39.973  68.962  0.00  0.00    +0.000 A 
ATOM     23  C   UNL     1     -44.623 -41.277  68.944  0.00  0.00    +0.000 A 
ENDBRANCH  16  18
ENDBRANCH   7  14
BRANCH   8  24
ATOM     24  O   UNL     1     -46.012 -45.561  68.129  0.00  0.00    +0.000 OA
ATOM     25  H   UNL     1     -45.206 -45.815  67.624  0.00  0.00    +0.000 HD
ENDBRANCH   8  24
TORSDOF 3
ENDMDL
MODEL 6
REMARK VINA RESULT:      -5.9     18.786     20.037
REMARK  Name = Piroxicam.pdbqt.pdb
REMARK  3 active torsions:
REMARK  status: ('A' for Active; 'I' for Inactive)
REMARK    1  A    between atoms: C_7  and  C_14
REMARK    2  A    between atoms: C_8  and  O_24
REMARK    3  A    between atoms: N_16  and  C_18
REMARK                            x       y       z     vdW  Elec       q    Type
REMARK                         _______ _______ _______ _____ _____    ______ ____
ROOT
ATOM      1  S   UNL     1     -30.755 -61.652  62.417  0.00  0.00    +0.000 S 
ATOM      2  O   UNL     1     -31.648 -61.040  61.451  0.00  0.00    +0.000 OA
ATOM      3  O   UNL     1     -29.424 -61.120  62.636  0.00  0.00    +0.000 OA
ATOM      4  N   UNL     1     -31.593 -61.811  63.913  0.00  0.00    +0.000 N 
ATOM      5  C   UNL     1     -30.596 -63.331  61.946  0.00  0.00    +0.000 A 
ATOM      6  C   UNL     1     -31.618 -64.203  62.316  0.00  0.00    +0.000 A 
ATOM      7  C   UNL     1     -32.786 -62.603  63.820  0.00  0.00    +0.000 C 
ATOM      8  C   UNL     1     -32.797 -63.725  63.064  0.00  0.00    +0.000 C 
ATOM      9  C   UNL     1     -29.464 -63.750  61.256  0.00  0.00    +0.000 A 
ATOM     10  C   UNL     1     -30.816 -62.116  65.127  0.00  0.00    +0.000 C 
ATOM     11  C   UNL     1     -31.496 -65.540  61.933  0.00  0.00    +0.000 A 
ATOM     12  C   UNL     1     -29.359 -65.088  60.896  0.00  0.00    +0.000 A 
ATOM     13  C   UNL     1     -30.375 -65.981  61.228  0.00  0.00    +0.000 A 
ENDROOT
BRANCH   7  14
ATOM     14  C   UNL     1     -34.009 -62.149  64.561  0.00  0.00    +0.000 C 
ATOM     15  O   UNL     1     -34.546 -61.089  64.244  0.00  0.00    +0.000 OA
ATOM     16  N   UNL     1     -34.425 -62.987  65.563  0.00  0.00    +0.000 N 
ATOM     17  H   UNL     1     -33.963 -63.876  65.716  0.00  0.00    +0.000 HD
BRANCH  16  18
ATOM     18  C   UNL     1     -35.511 -62.785  66.416  0.00  0.00    +0.000 A 
ATOM     19  N   UNL     1     -36.701 -63.143  65.892  0.00  0.00    +0.000 NA
ATOM     20  C   UNL     1     -37.789 -62.972  66.678  0.00  0.00    +0.000 A 
ATOM     21  C   UNL     1     -37.750 -62.464  67.965  0.00  0.00    +0.000 A 
ATOM     22  C   UNL     1     -36.510 -62.109  68.474  0.00  0.00    +0.000 A 
ATOM     23  C   UNL     1     -35.370 -62.269  67.696  0.00  0.00    +0.000 A 
ENDBRANCH  16  18
ENDBRANCH   7  14
BRANCH   8  24
ATOM     24  O   UNL     1     -33.903 -64.546  62.924  0.00  0.00    +0.000 OA
ATOM     25  H   UNL     1     -34.277 -64.752  63.811  0.00  0.00    +0.000 HD
ENDBRANCH   8  24
TORSDOF 3
ENDMDL
MODEL 7
REMARK VINA RESULT:      -5.8     36.343     38.042
REMARK  Name = Piroxicam.pdbqt.pdb
REMARK  3 active torsions:
REMARK  status: ('A' for Active; 'I' for Inactive)
REMARK    1  A    between atoms: C_7  and  C_14
REMARK    2  A    between atoms: C_8  and  O_24
REMARK    3  A    between atoms: N_16  and  C_18
REMARK                            x       y       z     vdW  Elec       q    Type
REMARK                         _______ _______ _______ _____ _____    ______ ____
ROOT
ATOM      1  S   UNL     1     -59.263 -77.628  50.886  0.00  0.00    +0.000 S 
ATOM      2  O   UNL     1     -58.413 -78.526  51.646  0.00  0.00    +0.000 OA
ATOM      3  O   UNL     1     -60.150 -78.140  49.860  0.00  0.00    +0.000 OA
ATOM      4  N   UNL     1     -60.132 -76.632  51.990  0.00  0.00    +0.000 N 
ATOM      5  C   UNL     1     -58.199 -76.452  50.144  0.00  0.00    +0.000 A 
ATOM      6  C   UNL     1     -57.762 -75.391  50.934  0.00  0.00    +0.000 A 
ATOM      7  C   UNL     1     -59.285 -75.851  52.846  0.00  0.00    +0.000 C 
ATOM      8  C   UNL     1     -58.167 -75.272  52.348  0.00  0.00    +0.000 C 
ATOM      9  C   UNL     1     -57.850 -76.586  48.805  0.00  0.00    +0.000 A 
ATOM     10  C   UNL     1     -61.280 -75.857  51.486  0.00  0.00    +0.000 C 
ATOM     11  C   UNL     1     -56.906 -74.459  50.345  0.00  0.00    +0.000 A 
ATOM     12  C   UNL     1     -57.008 -75.638  48.237  0.00  0.00    +0.000 A 
ATOM     13  C   UNL     1     -56.531 -74.579  49.006  0.00  0.00    +0.000 A 
ENDROOT
BRANCH   7  14
ATOM     14  C   UNL     1     -59.659 -75.710  54.291  0.00  0.00    +0.000 C 
ATOM     15  O   UNL     1     -59.059 -76.373  55.136  0.00  0.00    +0.000 OA
ATOM     16  N   UNL     1     -60.678 -74.828  54.545  0.00  0.00    +0.000 N 
ATOM     17  H   UNL     1     -61.075 -74.272  53.796  0.00  0.00    +0.000 HD
BRANCH  16  18
ATOM     18  C   UNL     1     -61.232 -74.535  55.792  0.00  0.00    +0.000 A 
ATOM     19  N   UNL     1     -62.337 -75.248  56.088  0.00  0.00    +0.000 NA
ATOM     20  C   UNL     1     -62.914 -75.007  57.288  0.00  0.00    +0.000 A 
ATOM     21  C   UNL     1     -62.441 -74.091  58.211  0.00  0.00    +0.000 A 
ATOM     22  C   UNL     1     -61.300 -73.377  57.876  0.00  0.00    +0.000 A 
ATOM     23  C   UNL     1     -60.680 -73.597  56.652  0.00  0.00    +0.000 A 
ENDBRANCH  16  18
ENDBRANCH   7  14
BRANCH   8  24
ATOM     24  O   UNL     1     -57.299 -74.502  53.103  0.00  0.00    +0.000 OA
ATOM     25  H   UNL     1     -56.534 -74.226  52.549  0.00  0.00    +0.000 HD
ENDBRANCH   8  24
TORSDOF 3
ENDMDL
MODEL 8
REMARK VINA RESULT:      -5.6     31.997     33.864
REMARK  Name = Piroxicam.pdbqt.pdb
REMARK  3 active torsions:
REMARK  status: ('A' for Active; 'I' for Inactive)
REMARK    1  A    between atoms: C_7  and  C_14
REMARK    2  A    between atoms: C_8  and  O_24
REMARK    3  A    between atoms: N_16  and  C_18
REMARK                            x       y       z     vdW  Elec       q    Type
REMARK                         _______ _______ _______ _____ _____    ______ ____
ROOT
ATOM      1  S   UNL     1     -47.805 -77.431  40.522  0.00  0.00    +0.000 S 
ATOM      2  O   UNL     1     -47.572 -75.999  40.537  0.00  0.00    +0.000 OA
ATOM      3  O   UNL     1     -47.119 -78.283  39.570  0.00  0.00    +0.000 OA
ATOM      4  N   UNL     1     -47.605 -78.036  42.122  0.00  0.00    +0.000 N 
ATOM      5  C   UNL     1     -49.528 -77.648  40.298  0.00  0.00    +0.000 A 
ATOM      6  C   UNL     1     -50.345 -77.512  41.419  0.00  0.00    +0.000 A 
ATOM      7  C   UNL     1     -48.491 -77.434  43.077  0.00  0.00    +0.000 C 
ATOM      8  C   UNL     1     -49.779 -77.183  42.742  0.00  0.00    +0.000 C 
ATOM      9  C   UNL     1     -50.025 -77.973  39.041  0.00  0.00    +0.000 A 
ATOM     10  C   UNL     1     -47.485 -79.491  42.316  0.00  0.00    +0.000 C 
ATOM     11  C   UNL     1     -51.719 -77.675  41.240  0.00  0.00    +0.000 A 
ATOM     12  C   UNL     1     -51.396 -78.143  38.890  0.00  0.00    +0.000 A 
ATOM     13  C   UNL     1     -52.244 -77.989  39.985  0.00  0.00    +0.000 A 
ENDROOT
BRANCH   7  14
ATOM     14  C   UNL     1     -47.954 -77.078  44.431  0.00  0.00    +0.000 C 
ATOM     15  O   UNL     1     -48.458 -77.586  45.431  0.00  0.00    +0.000 OA
ATOM     16  N   UNL     1     -46.917 -76.182  44.427  0.00  0.00    +0.000 N 
ATOM     17  H   UNL     1     -46.517 -75.861  43.552  0.00  0.00    +0.000 HD
BRANCH  16  18
ATOM     18  C   UNL     1     -46.260 -75.667  45.545  0.00  0.00    +0.000 A 
ATOM     19  N   UNL     1     -45.247 -76.436  45.996  0.00  0.00    +0.000 NA
ATOM     20  C   UNL     1     -44.572 -75.982  47.077  0.00  0.00    +0.000 A 
ATOM     21  C   UNL     1     -44.855 -74.797  47.733  0.00  0.00    +0.000 A 
ATOM     22  C   UNL     1     -45.900 -74.029  47.242  0.00  0.00    +0.000 A 
ATOM     23  C   UNL     1     -46.617 -74.462  46.133  0.00  0.00    +0.000 A 
ENDBRANCH  16  18
ENDBRANCH   7  14
BRANCH   8  24
ATOM     24  O   UNL     1     -50.699 -76.609  43.603  0.00  0.00    +0.000 OA
ATOM     25  H   UNL     1     -50.488 -75.656  43.725  0.00  0.00    +0.000 HD
ENDBRANCH   8  24
TORSDOF 3
ENDMDL
MODEL 9
REMARK VINA RESULT:      -5.5     35.552     36.743
REMARK  Name = Piroxicam.pdbqt.pdb
REMARK  3 active torsions:
REMARK  status: ('A' for Active; 'I' for Inactive)
REMARK    1  A    between atoms: C_7  and  C_14
REMARK    2  A    between atoms: C_8  and  O_24
REMARK    3  A    between atoms: N_16  and  C_18
REMARK                            x       y       z     vdW  Elec       q    Type
REMARK                         _______ _______ _______ _____ _____    ______ ____
ROOT
ATOM      1  S   UNL     1     -58.430 -70.904  64.267  0.00  0.00    +0.000 S 
ATOM      2  O   UNL     1     -57.608 -70.340  63.212  0.00  0.00    +0.000 OA
ATOM      3  O   UNL     1     -59.876 -70.823  64.202  0.00  0.00    +0.000 OA
ATOM      4  N   UNL     1     -57.931 -72.530  64.540  0.00  0.00    +0.000 N 
ATOM      5  C   UNL     1     -57.912 -70.143  65.756  0.00  0.00    +0.000 A 
ATOM      6  C   UNL     1     -56.762 -70.640  66.366  0.00  0.00    +0.000 A 
ATOM      7  C   UNL     1     -56.551 -72.650  64.916  0.00  0.00    +0.000 C 
ATOM      8  C   UNL     1     -56.002 -71.757  65.772  0.00  0.00    +0.000 C 
ATOM      9  C   UNL     1     -58.661 -69.105  66.297  0.00  0.00    +0.000 A 
ATOM     10  C   UNL     1     -58.803 -73.411  65.337  0.00  0.00    +0.000 C 
ATOM     11  C   UNL     1     -56.343 -70.027  67.549  0.00  0.00    +0.000 A 
ATOM     12  C   UNL     1     -58.231 -68.519  67.482  0.00  0.00    +0.000 A 
ATOM     13  C   UNL     1     -57.071 -68.974  68.104  0.00  0.00    +0.000 A 
ENDROOT
BRANCH   7  14
ATOM     14  C   UNL     1     -55.741 -73.767  64.328  0.00  0.00    +0.000 C 
ATOM     15  O   UNL     1     -55.715 -73.915  63.108  0.00  0.00    +0.000 OA
ATOM     16  N   UNL     1     -55.086 -74.552  65.242  0.00  0.00    +0.000 N 
ATOM     17  H   UNL     1     -55.108 -74.320  66.229  0.00  0.00    +0.000 HD
BRANCH  16  18
ATOM     18  C   UNL     1     -54.294 -75.666  64.963  0.00  0.00    +0.000 A 
ATOM     19  N   UNL     1     -52.967 -75.431  65.019  0.00  0.00    +0.000 NA
ATOM     20  C   UNL     1     -52.151 -76.479  64.761  0.00  0.00    +0.000 A 
ATOM     21  C   UNL     1     -52.591 -77.753  64.450  0.00  0.00    +0.000 A 
ATOM     22  C   UNL     1     -53.962 -77.962  64.403  0.00  0.00    +0.000 A 
ATOM     23  C   UNL     1     -54.832 -76.909  64.662  0.00  0.00    +0.000 A 
ENDBRANCH  16  18
ENDBRANCH   7  14
BRANCH   8  24
ATOM     24  O   UNL     1     -54.682 -71.802  66.187  0.00  0.00    +0.000 OA
ATOM     25  H   UNL     1     -54.568 -72.522  66.849  0.00  0.00    +0.000 HD
ENDBRANCH   8  24
TORSDOF 3
ENDMDL
