MODEL 1
REMARK VINA RESULT:      -6.8      0.000      0.000
REMARK  Name = PKR_Inhibitor.pdbqt.pdb
REMARK  0 active torsions:
REMARK  status: ('A' for Active; 'I' for Inactive)
REMARK                            x       y       z     vdW  Elec       q    Type
REMARK                         _______ _______ _______ _____ _____    ______ ____
ROOT
ATOM      1  S   UNL     1     -30.724 -47.005  52.937  0.00  0.00    +0.000 S 
ATOM      2  O   UNL     1     -35.669 -49.989  53.212  0.00  0.00    +0.000 OA
ATOM      3  N   UNL     1     -33.563 -50.966  53.545  0.00  0.00    +0.000 N 
ATOM      4  N   UNL     1     -28.652 -48.515  53.375  0.00  0.00    +0.000 NA
ATOM      5  C   UNL     1     -32.188 -49.164  53.274  0.00  0.00    +0.000 A 
ATOM      6  C   UNL     1     -32.239 -50.554  53.549  0.00  0.00    +0.000 A 
ATOM      7  C   UNL     1     -33.596 -48.714  53.092  0.00  0.00    +0.000 C 
ATOM      8  C   UNL     1     -30.944 -48.628  53.248  0.00  0.00    +0.000 A 
ATOM      9  C   UNL     1     -34.457 -49.928  53.279  0.00  0.00    +0.000 C 
ATOM     10  C   UNL     1     -29.773 -49.322  53.463  0.00  0.00    +0.000 A 
ATOM     11  C   UNL     1     -31.128 -51.361  53.783  0.00  0.00    +0.000 A 
ATOM     12  C   UNL     1     -34.071 -47.538  52.826  0.00  0.00    +0.000 C 
ATOM     13  C   UNL     1     -29.876 -50.707  53.734  0.00  0.00    +0.000 A 
ATOM     14  C   UNL     1     -29.041 -47.287  53.104  0.00  0.00    +0.000 A 
ATOM     15  H   UNL     1     -33.874 -51.912  53.715  0.00  0.00    +0.000 HD
ATOM     16  C   UNL     1     -34.667 -46.288  52.536  0.00  0.00    +0.000 C 
ATOM     17  N   UNL     1     -36.010 -46.071  52.407  0.00  0.00    +0.000 N 
ATOM     18  C   UNL     1     -36.190 -44.745  52.128  0.00  0.00    +0.000 C 
ATOM     19  H   UNL     1     -36.743 -46.761  52.498  0.00  0.00    +0.000 HD
ATOM     20  N   UNL     1     -35.041 -44.107  52.074  0.00  0.00    +0.000 NA
ATOM     21  C   UNL     1     -34.084 -45.060  52.326  0.00  0.00    +0.000 C 
ENDROOT
TORSDOF 0
ENDMDL
MODEL 2
REMARK VINA RESULT:      -6.6      1.867      2.185
REMARK  Name = PKR_Inhibitor.pdbqt.pdb
REMARK  0 active torsions:
REMARK  status: ('A' for Active; 'I' for Inactive)
REMARK                            x       y       z     vdW  Elec       q    Type
REMARK                         _______ _______ _______ _____ _____    ______ ____
ROOT
ATOM      1  S   UNL     1     -29.879 -49.361  52.457  0.00  0.00    +0.000 S 
ATOM      2  O   UNL     1     -35.569 -49.871  53.349  0.00  0.00    +0.000 OA
ATOM      3  N   UNL     1     -34.135 -51.715  53.134  0.00  0.00    +0.000 N 
ATOM      4  N   UNL     1     -28.710 -51.680  52.287  0.00  0.00    +0.000 NA
ATOM      5  C   UNL     1     -32.125 -50.683  52.815  0.00  0.00    +0.000 A 
ATOM      6  C   UNL     1     -32.782 -51.934  52.924  0.00  0.00    +0.000 A 
ATOM      7  C   UNL     1     -33.173 -49.635  52.973  0.00  0.00    +0.000 C 
ATOM      8  C   UNL     1     -30.789 -50.751  52.606  0.00  0.00    +0.000 A 
ATOM      9  C   UNL     1     -34.469 -50.361  53.179  0.00  0.00    +0.000 C 
ATOM     10  C   UNL     1     -30.058 -51.914  52.499  0.00  0.00    +0.000 A 
ATOM     11  C   UNL     1     -32.155 -53.174  52.833  0.00  0.00    +0.000 A 
ATOM     12  C   UNL     1     -33.075 -48.344  52.952  0.00  0.00    +0.000 C 
ATOM     13  C   UNL     1     -30.759 -53.138  52.615  0.00  0.00    +0.000 A 
ATOM     14  C   UNL     1     -28.513 -50.378  52.250  0.00  0.00    +0.000 A 
ATOM     15  H   UNL     1     -34.827 -52.443  53.246  0.00  0.00    +0.000 HD
ATOM     16  C   UNL     1     -33.052 -46.929  52.940  0.00  0.00    +0.000 C 
ATOM     17  N   UNL     1     -34.145 -46.125  53.108  0.00  0.00    +0.000 N 
ATOM     18  C   UNL     1     -33.719 -44.828  53.034  0.00  0.00    +0.000 C 
ATOM     19  H   UNL     1     -35.097 -46.428  53.259  0.00  0.00    +0.000 HD
ATOM     20  N   UNL     1     -32.422 -44.760  52.830  0.00  0.00    +0.000 NA
ATOM     21  C   UNL     1     -31.995 -46.065  52.769  0.00  0.00    +0.000 C 
ENDROOT
TORSDOF 0
ENDMDL
MODEL 3
REMARK VINA RESULT:      -6.0     22.564     25.590
REMARK  Name = PKR_Inhibitor.pdbqt.pdb
REMARK  0 active torsions:
REMARK  status: ('A' for Active; 'I' for Inactive)
REMARK                            x       y       z     vdW  Elec       q    Type
REMARK                         _______ _______ _______ _____ _____    ______ ____
ROOT
ATOM      1  S   UNL     1     -50.272 -41.925  38.348  0.00  0.00    +0.000 S 
ATOM      2  O   UNL     1     -55.959 -41.211  39.112  0.00  0.00    +0.000 OA
ATOM      3  N   UNL     1     -54.423 -41.251  40.885  0.00  0.00    +0.000 N 
ATOM      4  N   UNL     1     -48.977 -41.899  40.605  0.00  0.00    +0.000 NA
ATOM      5  C   UNL     1     -52.459 -41.563  39.765  0.00  0.00    +0.000 A 
ATOM      6  C   UNL     1     -53.053 -41.397  41.042  0.00  0.00    +0.000 A 
ATOM      7  C   UNL     1     -53.566 -41.513  38.769  0.00  0.00    +0.000 C 
ATOM      8  C   UNL     1     -51.113 -41.718  39.773  0.00  0.00    +0.000 A 
ATOM      9  C   UNL     1     -54.829 -41.307  39.551  0.00  0.00    +0.000 C 
ATOM     10  C   UNL     1     -50.319 -41.722  40.899  0.00  0.00    +0.000 A 
ATOM     11  C   UNL     1     -52.359 -41.383  42.248  0.00  0.00    +0.000 A 
ATOM     12  C   UNL     1     -53.535 -41.616  37.479  0.00  0.00    +0.000 C 
ATOM     13  C   UNL     1     -50.958 -41.552  42.150  0.00  0.00    +0.000 A 
ATOM     14  C   UNL     1     -48.848 -42.015  39.299  0.00  0.00    +0.000 A 
ATOM     15  H   UNL     1     -55.080 -41.117  41.641  0.00  0.00    +0.000 HD
ATOM     16  C   UNL     1     -53.586 -41.720  36.068  0.00  0.00    +0.000 C 
ATOM     17  N   UNL     1     -54.725 -41.645  35.317  0.00  0.00    +0.000 N 
ATOM     18  C   UNL     1     -54.366 -41.788  34.006  0.00  0.00    +0.000 C 
ATOM     19  H   UNL     1     -55.666 -41.509  35.661  0.00  0.00    +0.000 HD
ATOM     20  N   UNL     1     -53.067 -41.949  33.880  0.00  0.00    +0.000 NA
ATOM     21  C   UNL     1     -52.570 -41.908  35.160  0.00  0.00    +0.000 C 
ENDROOT
TORSDOF 0
ENDMDL
MODEL 4
REMARK VINA RESULT:      -6.0     36.602     38.710
REMARK  Name = PKR_Inhibitor.pdbqt.pdb
REMARK  0 active torsions:
REMARK  status: ('A' for Active; 'I' for Inactive)
REMARK                            x       y       z     vdW  Elec       q    Type
REMARK                         _______ _______ _______ _____ _____    ______ ____
ROOT
ATOM      1  S   UNL     1     -64.331 -67.161  38.761  0.00  0.00    +0.000 S 
ATOM      2  O   UNL     1     -63.910 -65.798  44.364  0.00  0.00    +0.000 OA
ATOM      3  N   UNL     1     -63.144 -64.400  42.644  0.00  0.00    +0.000 N 
ATOM      4  N   UNL     1     -63.346 -65.302  37.231  0.00  0.00    +0.000 NA
ATOM      5  C   UNL     1     -63.670 -65.634  40.798  0.00  0.00    +0.000 A 
ATOM      6  C   UNL     1     -63.093 -64.423  41.258  0.00  0.00    +0.000 A 
ATOM      7  C   UNL     1     -64.097 -66.391  42.008  0.00  0.00    +0.000 C 
ATOM      8  C   UNL     1     -63.685 -65.788  39.452  0.00  0.00    +0.000 A 
ATOM      9  C   UNL     1     -63.731 -65.541  43.189  0.00  0.00    +0.000 C 
ATOM     10  C   UNL     1     -63.196 -64.878  38.540  0.00  0.00    +0.000 A 
ATOM     11  C   UNL     1     -62.567 -63.429  40.438  0.00  0.00    +0.000 A 
ATOM     12  C   UNL     1     -64.671 -67.547  42.112  0.00  0.00    +0.000 C 
ATOM     13  C   UNL     1     -62.631 -63.685  39.049  0.00  0.00    +0.000 A 
ATOM     14  C   UNL     1     -63.929 -66.483  37.239  0.00  0.00    +0.000 A 
ATOM     15  H   UNL     1     -62.798 -63.645  43.221  0.00  0.00    +0.000 HD
ATOM     16  C   UNL     1     -65.297 -68.800  42.310  0.00  0.00    +0.000 C 
ATOM     17  N   UNL     1     -65.616 -69.334  43.528  0.00  0.00    +0.000 N 
ATOM     18  C   UNL     1     -66.204 -70.548  43.306  0.00  0.00    +0.000 C 
ATOM     19  H   UNL     1     -65.450 -68.913  44.432  0.00  0.00    +0.000 HD
ATOM     20  N   UNL     1     -66.277 -70.817  42.021  0.00  0.00    +0.000 NA
ATOM     21  C   UNL     1     -65.714 -69.734  41.390  0.00  0.00    +0.000 C 
ENDROOT
TORSDOF 0
ENDMDL
MODEL 5
REMARK VINA RESULT:      -5.9     12.813     14.757
REMARK  Name = PKR_Inhibitor.pdbqt.pdb
REMARK  0 active torsions:
REMARK  status: ('A' for Active; 'I' for Inactive)
REMARK                            x       y       z     vdW  Elec       q    Type
REMARK                         _______ _______ _______ _____ _____    ______ ____
ROOT
ATOM      1  S   UNL     1     -31.796 -60.315  43.787  0.00  0.00    +0.000 S 
ATOM      2  O   UNL     1     -35.005 -60.304  48.596  0.00  0.00    +0.000 OA
ATOM      3  N   UNL     1     -35.564 -61.545  46.686  0.00  0.00    +0.000 N 
ATOM      4  N   UNL     1     -32.816 -61.839  41.941  0.00  0.00    +0.000 NA
ATOM      5  C   UNL     1     -33.839 -61.014  45.289  0.00  0.00    +0.000 A 
ATOM      6  C   UNL     1     -35.036 -61.761  45.422  0.00  0.00    +0.000 A 
ATOM      7  C   UNL     1     -33.639 -60.295  46.579  0.00  0.00    +0.000 C 
ATOM      8  C   UNL     1     -33.216 -61.134  44.093  0.00  0.00    +0.000 A 
ATOM      9  C   UNL     1     -34.793 -60.676  47.459  0.00  0.00    +0.000 C 
ATOM     10  C   UNL     1     -33.655 -61.908  43.040  0.00  0.00    +0.000 A 
ATOM     11  C   UNL     1     -35.581 -62.576  44.433  0.00  0.00    +0.000 A 
ATOM     12  C   UNL     1     -32.695 -59.491  46.950  0.00  0.00    +0.000 C 
ATOM     13  C   UNL     1     -34.855 -62.635  43.221  0.00  0.00    +0.000 A 
ATOM     14  C   UNL     1     -31.815 -61.033  42.230  0.00  0.00    +0.000 A 
ATOM     15  H   UNL     1     -36.415 -61.962  47.035  0.00  0.00    +0.000 HD
ATOM     16  C   UNL     1     -31.703 -58.603  47.431  0.00  0.00    +0.000 C 
ATOM     17  N   UNL     1     -31.694 -58.036  48.674  0.00  0.00    +0.000 N 
ATOM     18  C   UNL     1     -30.581 -57.246  48.760  0.00  0.00    +0.000 C 
ATOM     19  H   UNL     1     -32.381 -58.171  49.403  0.00  0.00    +0.000 HD
ATOM     20  N   UNL     1     -29.884 -57.278  47.646  0.00  0.00    +0.000 NA
ATOM     21  C   UNL     1     -30.574 -58.121  46.810  0.00  0.00    +0.000 C 
ENDROOT
TORSDOF 0
ENDMDL
MODEL 6
REMARK VINA RESULT:      -5.9     45.880     47.645
REMARK  Name = PKR_Inhibitor.pdbqt.pdb
REMARK  0 active torsions:
REMARK  status: ('A' for Active; 'I' for Inactive)
REMARK                            x       y       z     vdW  Elec       q    Type
REMARK                         _______ _______ _______ _____ _____    ______ ____
ROOT
ATOM      1  S   UNL     1     -66.269 -72.223  31.138  0.00  0.00    +0.000 S 
ATOM      2  O   UNL     1     -66.524 -70.229  25.717  0.00  0.00    +0.000 OA
ATOM      3  N   UNL     1     -64.844 -69.609  27.233  0.00  0.00    +0.000 N 
ATOM      4  N   UNL     1     -64.232 -71.255  32.436  0.00  0.00    +0.000 NA
ATOM      5  C   UNL     1     -65.452 -70.799  29.083  0.00  0.00    +0.000 A 
ATOM      6  C   UNL     1     -64.505 -69.890  28.548  0.00  0.00    +0.000 A 
ATOM      7  C   UNL     1     -66.434 -71.081  27.998  0.00  0.00    +0.000 C 
ATOM      8  C   UNL     1     -65.238 -71.160  30.371  0.00  0.00    +0.000 A 
ATOM      9  C   UNL     1     -65.992 -70.279  26.809  0.00  0.00    +0.000 C 
ATOM     10  C   UNL     1     -64.199 -70.718  31.160  0.00  0.00    +0.000 A 
ATOM     11  C   UNL     1     -63.416 -69.373  29.243  0.00  0.00    +0.000 A 
ATOM     12  C   UNL     1     -67.479 -71.845  27.994  0.00  0.00    +0.000 C 
ATOM     13  C   UNL     1     -63.279 -69.812  30.580  0.00  0.00    +0.000 A 
ATOM     14  C   UNL     1     -65.275 -72.054  32.525  0.00  0.00    +0.000 A 
ATOM     15  H   UNL     1     -64.330 -68.988  26.624  0.00  0.00    +0.000 HD
ATOM     16  C   UNL     1     -68.636 -72.656  27.909  0.00  0.00    +0.000 C 
ATOM     17  N   UNL     1     -69.422 -72.787  26.799  0.00  0.00    +0.000 N 
ATOM     18  C   UNL     1     -70.435 -73.652  27.109  0.00  0.00    +0.000 C 
ATOM     19  H   UNL     1     -69.286 -72.330  25.907  0.00  0.00    +0.000 HD
ATOM     20  N   UNL     1     -70.338 -74.078  28.349  0.00  0.00    +0.000 NA
ATOM     21  C   UNL     1     -69.220 -73.463  28.858  0.00  0.00    +0.000 C 
ENDROOT
TORSDOF 0
ENDMDL
MODEL 7
REMARK VINA RESULT:      -5.7     34.753     37.047
REMARK  Name = PKR_Inhibitor.pdbqt.pdb
REMARK  0 active torsions:
REMARK  status: ('A' for Active; 'I' for Inactive)
REMARK                            x       y       z     vdW  Elec       q    Type
REMARK                         _______ _______ _______ _____ _____    ______ ____
ROOT
ATOM      1  S   UNL     1     -63.516 -68.124  40.581  0.00  0.00    +0.000 S 
ATOM      2  O   UNL     1     -58.989 -64.543  40.929  0.00  0.00    +0.000 OA
ATOM      3  N   UNL     1     -61.183 -63.803  40.550  0.00  0.00    +0.000 N 
ATOM      4  N   UNL     1     -65.739 -66.842  40.152  0.00  0.00    +0.000 NA
ATOM      5  C   UNL     1     -62.327 -65.778  40.553  0.00  0.00    +0.000 A 
ATOM      6  C   UNL     1     -62.440 -64.371  40.417  0.00  0.00    +0.000 A 
ATOM      7  C   UNL     1     -60.884 -66.069  40.786  0.00  0.00    +0.000 C 
ATOM      8  C   UNL     1     -63.490 -66.462  40.443  0.00  0.00    +0.000 A 
ATOM      9  C   UNL     1     -60.178 -64.745  40.775  0.00  0.00    +0.000 C 
ATOM     10  C   UNL     1     -64.727 -65.899  40.218  0.00  0.00    +0.000 A 
ATOM     11  C   UNL     1     -63.631 -63.687  40.188  0.00  0.00    +0.000 A 
ATOM     12  C   UNL     1     -60.277 -67.198  40.969  0.00  0.00    +0.000 C 
ATOM     13  C   UNL     1     -64.790 -64.491  40.089  0.00  0.00    +0.000 A 
ATOM     14  C   UNL     1     -65.209 -68.035  40.330  0.00  0.00    +0.000 A 
ATOM     15  H   UNL     1     -60.988 -62.813  40.494  0.00  0.00    +0.000 HD
ATOM     16  C   UNL     1     -59.542 -68.389  41.176  0.00  0.00    +0.000 C 
ATOM     17  N   UNL     1     -58.191 -68.451  41.378  0.00  0.00    +0.000 N 
ATOM     18  C   UNL     1     -57.857 -69.768  41.537  0.00  0.00    +0.000 C 
ATOM     19  H   UNL     1     -57.549 -67.671  41.405  0.00  0.00    +0.000 HD
ATOM     20  N   UNL     1     -58.915 -70.544  41.449  0.00  0.00    +0.000 NA
ATOM     21  C   UNL     1     -59.971 -69.695  41.224  0.00  0.00    +0.000 C 
ENDROOT
TORSDOF 0
ENDMDL
MODEL 8
REMARK VINA RESULT:      -5.6     45.698     47.471
REMARK  Name = PKR_Inhibitor.pdbqt.pdb
REMARK  0 active torsions:
REMARK  status: ('A' for Active; 'I' for Inactive)
REMARK                            x       y       z     vdW  Elec       q    Type
REMARK                         _______ _______ _______ _____ _____    ______ ____
ROOT
ATOM      1  S   UNL     1     -66.786 -72.596  30.104  0.00  0.00    +0.000 S 
ATOM      2  O   UNL     1     -64.034 -69.723  25.909  0.00  0.00    +0.000 OA
ATOM      3  N   UNL     1     -63.432 -69.575  28.171  0.00  0.00    +0.000 N 
ATOM      4  N   UNL     1     -65.760 -72.115  32.447  0.00  0.00    +0.000 NA
ATOM      5  C   UNL     1     -64.964 -70.967  29.133  0.00  0.00    +0.000 A 
ATOM      6  C   UNL     1     -63.863 -70.108  29.377  0.00  0.00    +0.000 A 
ATOM      7  C   UNL     1     -65.207 -70.942  27.662  0.00  0.00    +0.000 C 
ATOM      8  C   UNL     1     -65.487 -71.558  30.233  0.00  0.00    +0.000 A 
ATOM      9  C   UNL     1     -64.179 -70.018  27.079  0.00  0.00    +0.000 C 
ATOM     10  C   UNL     1     -65.033 -71.385  31.522  0.00  0.00    +0.000 A 
ATOM     11  C   UNL     1     -63.315 -69.852  30.631  0.00  0.00    +0.000 A 
ATOM     12  C   UNL     1     -66.096 -71.558  26.951  0.00  0.00    +0.000 C 
ATOM     13  C   UNL     1     -63.931 -70.518  31.715  0.00  0.00    +0.000 A 
ATOM     14  C   UNL     1     -66.699 -72.782  31.807  0.00  0.00    +0.000 A 
ATOM     15  H   UNL     1     -62.659 -68.932  28.068  0.00  0.00    +0.000 HD
ATOM     16  C   UNL     1     -67.036 -72.194  26.105  0.00  0.00    +0.000 C 
ATOM     17  N   UNL     1     -67.099 -72.041  24.749  0.00  0.00    +0.000 N 
ATOM     18  C   UNL     1     -68.132 -72.812  24.293  0.00  0.00    +0.000 C 
ATOM     19  H   UNL     1     -66.494 -71.465  24.179  0.00  0.00    +0.000 HD
ATOM     20  N   UNL     1     -68.729 -73.444  25.279  0.00  0.00    +0.000 NA
ATOM     21  C   UNL     1     -68.054 -73.066  26.414  0.00  0.00    +0.000 C 
ENDROOT
TORSDOF 0
ENDMDL
MODEL 9
REMARK VINA RESULT:      -5.5     23.070     25.014
REMARK  Name = PKR_Inhibitor.pdbqt.pdb
REMARK  0 active torsions:
REMARK  status: ('A' for Active; 'I' for Inactive)
REMARK                            x       y       z     vdW  Elec       q    Type
REMARK                         _______ _______ _______ _____ _____    ______ ____
ROOT
ATOM      1  S   UNL     1     -47.288 -61.787  36.407  0.00  0.00    +0.000 S 
ATOM      2  O   UNL     1     -41.976 -62.151  38.661  0.00  0.00    +0.000 OA
ATOM      3  N   UNL     1     -42.740 -60.276  37.476  0.00  0.00    +0.000 N 
ATOM      4  N   UNL     1     -47.673 -59.522  35.186  0.00  0.00    +0.000 NA
ATOM      5  C   UNL     1     -44.865 -60.918  36.947  0.00  0.00    +0.000 A 
ATOM      6  C   UNL     1     -43.904 -59.882  36.834  0.00  0.00    +0.000 A 
ATOM      7  C   UNL     1     -44.219 -62.017  37.718  0.00  0.00    +0.000 C 
ATOM      8  C   UNL     1     -46.058 -60.663  36.358  0.00  0.00    +0.000 A 
ATOM      9  C   UNL     1     -42.831 -61.549  38.041  0.00  0.00    +0.000 C 
ATOM     10  C   UNL     1     -46.382 -59.505  35.685  0.00  0.00    +0.000 A 
ATOM     11  C   UNL     1     -44.112 -58.671  36.180  0.00  0.00    +0.000 A 
ATOM     12  C   UNL     1     -44.684 -63.170  38.081  0.00  0.00    +0.000 C 
ATOM     13  C   UNL     1     -45.389 -58.500  35.599  0.00  0.00    +0.000 A 
ATOM     14  C   UNL     1     -48.231 -60.670  35.510  0.00  0.00    +0.000 A 
ATOM     15  H   UNL     1     -41.900 -59.718  37.542  0.00  0.00    +0.000 HD
ATOM     16  C   UNL     1     -45.117 -64.446  38.513  0.00  0.00    +0.000 C 
ATOM     17  N   UNL     1     -44.360 -65.330  39.229  0.00  0.00    +0.000 N 
ATOM     18  C   UNL     1     -45.124 -66.442  39.453  0.00  0.00    +0.000 C 
ATOM     19  H   UNL     1     -43.408 -65.195  39.539  0.00  0.00    +0.000 HD
ATOM     20  N   UNL     1     -46.320 -66.316  38.923  0.00  0.00    +0.000 NA
ATOM     21  C   UNL     1     -46.328 -65.075  38.333  0.00  0.00    +0.000 C 
ENDROOT
TORSDOF 0
ENDMDL
