MODEL 1
REMARK VINA RESULT:      -8.8      0.000      0.000
REMARK  Name = 
REMARK  14 active torsions:
REMARK  status: ('A' for Active; 'I' for Inactive)
REMARK    1  A    between atoms: O_1  and  C_14
REMARK    2  A    between atoms: O_1  and  C_15
REMARK    3  A    between atoms: O_4  and  C_16
REMARK    4  A    between atoms: O_5  and  C_18
REMARK    5  A    between atoms: O_6  and  C_26
REMARK    6  A    between atoms: O_7  and  C_29
REMARK    7  A    between atoms: O_8  and  C_35
REMARK    8  A    between atoms: O_9  and  C_36
REMARK    9  A    between atoms: O_10  and  C_39
REMARK   10  A    between atoms: O_11  and  C_40
REMARK   11  A    between atoms: O_12  and  C_41
REMARK   12  A    between atoms: O_13  and  C_43
REMARK   13  A    between atoms: C_14  and  C_20
REMARK   14  A    between atoms: C_17  and  C_24
REMARK                            x       y       z     vdW  Elec       q    Type
REMARK                         _______ _______ _______ _____ _____    ______ ____
ROOT
ATOM      1  O   UNL     1     -63.710 -69.452  41.427  0.00  0.00    +0.000 OA
ATOM      2  C   UNL     1     -63.401 -68.086  41.118  0.00  0.00    +0.000 C 
ATOM      3  C   UNL     1     -64.339 -67.110  41.891  0.00  0.00    +0.000 C 
ATOM      4  C   UNL     1     -65.802 -67.435  41.604  0.00  0.00    +0.000 C 
ATOM      5  C   UNL     1     -66.070 -68.904  41.744  0.00  0.00    +0.000 A 
ATOM      6  C   UNL     1     -65.013 -69.811  41.635  0.00  0.00    +0.000 A 
ATOM      7  C   UNL     1     -67.363 -69.413  41.941  0.00  0.00    +0.000 A 
ATOM      8  C   UNL     1     -65.242 -71.185  41.738  0.00  0.00    +0.000 A 
ATOM      9  C   UNL     1     -67.604 -70.781  42.025  0.00  0.00    +0.000 A 
ATOM     10  C   UNL     1     -66.535 -71.659  41.927  0.00  0.00    +0.000 A 
ENDROOT
BRANCH   2  11
ATOM     11  C   UNL     1     -63.424 -67.792  39.606  0.00  0.00    +0.000 A 
ATOM     12  C   UNL     1     -62.841 -68.695  38.688  0.00  0.00    +0.000 A 
ATOM     13  C   UNL     1     -64.036 -66.629  39.092  0.00  0.00    +0.000 A 
ATOM     14  C   UNL     1     -62.867 -68.424  37.324  0.00  0.00    +0.000 A 
ATOM     15  C   UNL     1     -64.044 -66.359  37.721  0.00  0.00    +0.000 A 
ATOM     16  C   UNL     1     -63.453 -67.256  36.850  0.00  0.00    +0.000 A 
BRANCH  14  17
ATOM     17  O   UNL     1     -62.335 -69.276  36.397  0.00  0.00    +0.000 OA
ATOM     18  H   UNL     1     -62.308 -70.183  36.764  0.00  0.00    +0.000 HD
ENDBRANCH  14  17
BRANCH  16  19
ATOM     19  O   UNL     1     -63.465 -66.995  35.510  0.00  0.00    +0.000 OA
ATOM     20  H   UNL     1     -62.522 -67.024  35.249  0.00  0.00    +0.000 HD
ENDBRANCH  16  19
ENDBRANCH   2  11
BRANCH   3  21
ATOM     21  O   UNL     1     -64.128 -67.174  43.330  0.00  0.00    +0.000 OA
ATOM     22  H   UNL     1     -63.478 -66.468  43.520  0.00  0.00    +0.000 HD
ENDBRANCH   3  21
BRANCH   4  23
ATOM     23  O   UNL     1     -66.642 -66.708  42.517  0.00  0.00    +0.000 OA
ATOM     24  H   UNL     1     -66.046 -66.025  42.899  0.00  0.00    +0.000 HD
ENDBRANCH   4  23
BRANCH   7  25
ATOM     25  O   UNL     1     -68.446 -68.587  42.079  0.00  0.00    +0.000 OA
ATOM     26  H   UNL     1     -68.665 -68.246  41.183  0.00  0.00    +0.000 HD
ENDBRANCH   7  25
BRANCH  10  27
ATOM     27  O   UNL     1     -66.713 -73.009  42.011  0.00  0.00    +0.000 OA
ATOM     28  H   UNL     1     -65.958 -73.389  42.492  0.00  0.00    +0.000 HD
ENDBRANCH  10  27
BRANCH   2  29
ATOM     29  O   UNL     1     -62.087 -67.783  41.666  0.00  0.00    +0.000 OA
BRANCH  29  31
ATOM     30  O   UNL     1     -58.709 -67.240  40.245  0.00  0.00    +0.000 OA
ATOM     31  C   UNL     1     -60.945 -68.108  40.850  0.00  0.00    +0.000 C 
ATOM     32  C   UNL     1     -59.855 -67.032  41.081  0.00  0.00    +0.000 C 
ATOM     33  C   UNL     1     -60.342 -69.463  41.233  0.00  0.00    +0.000 C 
ATOM     34  C   UNL     1     -58.918 -69.610  40.771  0.00  0.00    +0.000 A 
ATOM     35  C   UNL     1     -58.195 -68.507  40.307  0.00  0.00    +0.000 A 
ATOM     36  C   UNL     1     -58.284 -70.858  40.802  0.00  0.00    +0.000 A 
ATOM     37  C   UNL     1     -56.886 -68.654  39.842  0.00  0.00    +0.000 A 
ATOM     38  C   UNL     1     -56.974 -71.014  40.357  0.00  0.00    +0.000 A 
ATOM     39  C   UNL     1     -56.287 -69.908  39.874  0.00  0.00    +0.000 A 
BRANCH  32  40
ATOM     40  C   UNL     1     -60.389 -65.637  40.785  0.00  0.00    +0.000 A 
ATOM     41  C   UNL     1     -60.288 -64.608  41.735  0.00  0.00    +0.000 A 
ATOM     42  C   UNL     1     -60.918 -65.343  39.516  0.00  0.00    +0.000 A 
ATOM     43  C   UNL     1     -60.664 -63.310  41.397  0.00  0.00    +0.000 A 
ATOM     44  C   UNL     1     -61.312 -64.043  39.189  0.00  0.00    +0.000 A 
ATOM     45  C   UNL     1     -61.168 -63.027  40.129  0.00  0.00    +0.000 A 
BRANCH  43  46
ATOM     46  O   UNL     1     -60.479 -62.288  42.284  0.00  0.00    +0.000 OA
ATOM     47  H   UNL     1     -60.681 -62.604  43.180  0.00  0.00    +0.000 HD
ENDBRANCH  43  46
BRANCH  45  48
ATOM     48  O   UNL     1     -61.487 -61.738  39.810  0.00  0.00    +0.000 OA
ATOM     49  H   UNL     1     -61.585 -61.664  38.847  0.00  0.00    +0.000 HD
ENDBRANCH  45  48
ENDBRANCH  32  40
BRANCH  36  50
ATOM     50  O   UNL     1     -58.981 -71.933  41.279  0.00  0.00    +0.000 OA
ATOM     51  H   UNL     1     -59.467 -72.344  40.544  0.00  0.00    +0.000 HD
ENDBRANCH  36  50
BRANCH  39  52
ATOM     52  O   UNL     1     -55.008 -70.096  39.437  0.00  0.00    +0.000 OA
ATOM     53  H   UNL     1     -54.626 -69.231  39.210  0.00  0.00    +0.000 HD
ENDBRANCH  39  52
ENDBRANCH  29  31
ENDBRANCH   2  29
TORSDOF 14
ENDMDL
MODEL 2
REMARK VINA RESULT:      -8.2     35.954     38.598
REMARK  Name = 
REMARK  14 active torsions:
REMARK  status: ('A' for Active; 'I' for Inactive)
REMARK    1  A    between atoms: O_1  and  C_14
REMARK    2  A    between atoms: O_1  and  C_15
REMARK    3  A    between atoms: O_4  and  C_16
REMARK    4  A    between atoms: O_5  and  C_18
REMARK    5  A    between atoms: O_6  and  C_26
REMARK    6  A    between atoms: O_7  and  C_29
REMARK    7  A    between atoms: O_8  and  C_35
REMARK    8  A    between atoms: O_9  and  C_36
REMARK    9  A    between atoms: O_10  and  C_39
REMARK   10  A    between atoms: O_11  and  C_40
REMARK   11  A    between atoms: O_12  and  C_41
REMARK   12  A    between atoms: O_13  and  C_43
REMARK   13  A    between atoms: C_14  and  C_20
REMARK   14  A    between atoms: C_17  and  C_24
REMARK                            x       y       z     vdW  Elec       q    Type
REMARK                         _______ _______ _______ _____ _____    ______ ____
ROOT
ATOM      1  O   UNL     1     -30.401 -51.764  54.575  0.00  0.00    +0.000 OA
ATOM      2  C   UNL     1     -31.163 -52.444  53.568  0.00  0.00    +0.000 C 
ATOM      3  C   UNL     1     -32.440 -53.099  54.176  0.00  0.00    +0.000 C 
ATOM      4  C   UNL     1     -32.067 -54.030  55.326  0.00  0.00    +0.000 C 
ATOM      5  C   UNL     1     -31.113 -53.369  56.275  0.00  0.00    +0.000 A 
ATOM      6  C   UNL     1     -30.339 -52.292  55.834  0.00  0.00    +0.000 A 
ATOM      7  C   UNL     1     -30.933 -53.819  57.591  0.00  0.00    +0.000 A 
ATOM      8  C   UNL     1     -29.426 -51.675  56.693  0.00  0.00    +0.000 A 
ATOM      9  C   UNL     1     -30.012 -53.224  58.448  0.00  0.00    +0.000 A 
ATOM     10  C   UNL     1     -29.266 -52.148  57.990  0.00  0.00    +0.000 A 
ENDROOT
BRANCH   2  11
ATOM     11  C   UNL     1     -30.333 -53.478  52.783  0.00  0.00    +0.000 A 
ATOM     12  C   UNL     1     -30.883 -54.144  51.665  0.00  0.00    +0.000 A 
ATOM     13  C   UNL     1     -29.002 -53.779  53.144  0.00  0.00    +0.000 A 
ATOM     14  C   UNL     1     -30.127 -55.075  50.959  0.00  0.00    +0.000 A 
ATOM     15  C   UNL     1     -28.255 -54.726  52.437  0.00  0.00    +0.000 A 
ATOM     16  C   UNL     1     -28.828 -55.370  51.356  0.00  0.00    +0.000 A 
BRANCH  14  17
ATOM     17  O   UNL     1     -30.609 -55.729  49.860  0.00  0.00    +0.000 OA
ATOM     18  H   UNL     1     -31.586 -55.763  49.902  0.00  0.00    +0.000 HD
ENDBRANCH  14  17
BRANCH  16  19
ATOM     19  O   UNL     1     -28.098 -56.293  50.662  0.00  0.00    +0.000 OA
ATOM     20  H   UNL     1     -27.304 -55.802  50.367  0.00  0.00    +0.000 HD
ENDBRANCH  16  19
ENDBRANCH   2  11
BRANCH   3  21
ATOM     21  O   UNL     1     -33.378 -52.105  54.678  0.00  0.00    +0.000 OA
ATOM     22  H   UNL     1     -33.840 -52.547  55.419  0.00  0.00    +0.000 HD
ENDBRANCH   3  21
BRANCH   4  23
ATOM     23  O   UNL     1     -33.256 -54.415  56.036  0.00  0.00    +0.000 OA
ATOM     24  H   UNL     1     -33.406 -53.678  56.670  0.00  0.00    +0.000 HD
ENDBRANCH   4  23
BRANCH   7  25
ATOM     25  O   UNL     1     -31.669 -54.855  58.102  0.00  0.00    +0.000 OA
ATOM     26  H   UNL     1     -32.611 -54.574  58.089  0.00  0.00    +0.000 HD
ENDBRANCH   7  25
BRANCH  10  27
ATOM     27  O   UNL     1     -28.356 -51.521  58.790  0.00  0.00    +0.000 OA
ATOM     28  H   UNL     1     -28.403 -50.566  58.619  0.00  0.00    +0.000 HD
ENDBRANCH  10  27
BRANCH   2  29
ATOM     29  O   UNL     1     -31.707 -51.446  52.658  0.00  0.00    +0.000 OA
BRANCH  29  31
ATOM     30  O   UNL     1     -30.143 -48.195  51.815  0.00  0.00    +0.000 OA
ATOM     31  C   UNL     1     -31.337 -50.074  52.894  0.00  0.00    +0.000 C 
ATOM     32  C   UNL     1     -30.613 -49.538  51.634  0.00  0.00    +0.000 C 
ATOM     33  C   UNL     1     -32.565 -49.188  53.130  0.00  0.00    +0.000 C 
ATOM     34  C   UNL     1     -32.277 -47.732  52.894  0.00  0.00    +0.000 A 
ATOM     35  C   UNL     1     -31.098 -47.324  52.262  0.00  0.00    +0.000 A 
ATOM     36  C   UNL     1     -33.190 -46.750  53.299  0.00  0.00    +0.000 A 
ATOM     37  C   UNL     1     -30.816 -45.968  52.080  0.00  0.00    +0.000 A 
ATOM     38  C   UNL     1     -32.928 -45.396  53.108  0.00  0.00    +0.000 A 
ATOM     39  C   UNL     1     -31.736 -45.016  52.503  0.00  0.00    +0.000 A 
BRANCH  32  40
ATOM     40  C   UNL     1     -29.409 -50.401  51.283  0.00  0.00    +0.000 A 
ATOM     41  C   UNL     1     -29.426 -51.244  50.161  0.00  0.00    +0.000 A 
ATOM     42  C   UNL     1     -28.227 -50.298  52.040  0.00  0.00    +0.000 A 
ATOM     43  C   UNL     1     -28.270 -51.926  49.785  0.00  0.00    +0.000 A 
ATOM     44  C   UNL     1     -27.077 -50.999  51.669  0.00  0.00    +0.000 A 
ATOM     45  C   UNL     1     -27.100 -51.799  50.531  0.00  0.00    +0.000 A 
BRANCH  43  46
ATOM     46  O   UNL     1     -28.254 -52.672  48.641  0.00  0.00    +0.000 OA
ATOM     47  H   UNL     1     -27.365 -53.044  48.518  0.00  0.00    +0.000 HD
ENDBRANCH  43  46
BRANCH  45  48
ATOM     48  O   UNL     1     -25.971 -52.443  50.114  0.00  0.00    +0.000 OA
ATOM     49  H   UNL     1     -25.202 -52.064  50.571  0.00  0.00    +0.000 HD
ENDBRANCH  45  48
ENDBRANCH  32  40
BRANCH  36  50
ATOM     50  O   UNL     1     -34.355 -47.147  53.894  0.00  0.00    +0.000 OA
ATOM     51  H   UNL     1     -34.526 -48.076  53.663  0.00  0.00    +0.000 HD
ENDBRANCH  36  50
BRANCH  39  52
ATOM     52  O   UNL     1     -31.506 -43.682  52.338  0.00  0.00    +0.000 OA
ATOM     53  H   UNL     1     -31.809 -43.211  53.133  0.00  0.00    +0.000 HD
ENDBRANCH  39  52
ENDBRANCH  29  31
ENDBRANCH   2  29
TORSDOF 14
ENDMDL
MODEL 3
REMARK VINA RESULT:      -7.9     36.012     40.134
REMARK  Name = 
REMARK  14 active torsions:
REMARK  status: ('A' for Active; 'I' for Inactive)
REMARK    1  A    between atoms: O_1  and  C_14
REMARK    2  A    between atoms: O_1  and  C_15
REMARK    3  A    between atoms: O_4  and  C_16
REMARK    4  A    between atoms: O_5  and  C_18
REMARK    5  A    between atoms: O_6  and  C_26
REMARK    6  A    between atoms: O_7  and  C_29
REMARK    7  A    between atoms: O_8  and  C_35
REMARK    8  A    between atoms: O_9  and  C_36
REMARK    9  A    between atoms: O_10  and  C_39
REMARK   10  A    between atoms: O_11  and  C_40
REMARK   11  A    between atoms: O_12  and  C_41
REMARK   12  A    between atoms: O_13  and  C_43
REMARK   13  A    between atoms: C_14  and  C_20
REMARK   14  A    between atoms: C_17  and  C_24
REMARK                            x       y       z     vdW  Elec       q    Type
REMARK                         _______ _______ _______ _____ _____    ______ ____
ROOT
ATOM      1  O   UNL     1     -30.578 -49.190  53.584  0.00  0.00    +0.000 OA
ATOM      2  C   UNL     1     -30.006 -50.437  53.165  0.00  0.00    +0.000 C 
ATOM      3  C   UNL     1     -29.830 -50.480  51.616  0.00  0.00    +0.000 C 
ATOM      4  C   UNL     1     -31.159 -50.206  50.919  0.00  0.00    +0.000 C 
ATOM      5  C   UNL     1     -31.841 -49.005  51.501  0.00  0.00    +0.000 A 
ATOM      6  C   UNL     1     -31.515 -48.585  52.793  0.00  0.00    +0.000 A 
ATOM      7  C   UNL     1     -32.837 -48.300  50.807  0.00  0.00    +0.000 A 
ATOM      8  C   UNL     1     -32.154 -47.483  53.365  0.00  0.00    +0.000 A 
ATOM      9  C   UNL     1     -33.494 -47.213  51.376  0.00  0.00    +0.000 A 
ATOM     10  C   UNL     1     -33.141 -46.809  52.655  0.00  0.00    +0.000 A 
ENDROOT
BRANCH   2  11
ATOM     11  C   UNL     1     -30.800 -51.659  53.665  0.00  0.00    +0.000 A 
ATOM     12  C   UNL     1     -31.824 -51.508  54.626  0.00  0.00    +0.000 A 
ATOM     13  C   UNL     1     -30.540 -52.955  53.171  0.00  0.00    +0.000 A 
ATOM     14  C   UNL     1     -32.538 -52.616  55.072  0.00  0.00    +0.000 A 
ATOM     15  C   UNL     1     -31.254 -54.064  53.635  0.00  0.00    +0.000 A 
ATOM     16  C   UNL     1     -32.241 -53.885  54.586  0.00  0.00    +0.000 A 
BRANCH  14  17
ATOM     17  O   UNL     1     -33.551 -52.518  55.984  0.00  0.00    +0.000 OA
ATOM     18  H   UNL     1     -33.674 -53.380  56.430  0.00  0.00    +0.000 HD
ENDBRANCH  14  17
BRANCH  16  19
ATOM     19  O   UNL     1     -32.941 -54.967  55.037  0.00  0.00    +0.000 OA
ATOM     20  H   UNL     1     -32.492 -55.734  54.628  0.00  0.00    +0.000 HD
ENDBRANCH  16  19
ENDBRANCH   2  11
BRANCH   3  21
ATOM     21  O   UNL     1     -28.857 -49.503  51.149  0.00  0.00    +0.000 OA
ATOM     22  H   UNL     1     -28.391 -49.207  51.957  0.00  0.00    +0.000 HD
ENDBRANCH   3  21
BRANCH   4  23
ATOM     23  O   UNL     1     -30.929 -49.991  49.516  0.00  0.00    +0.000 OA
ATOM     24  H   UNL     1     -30.642 -49.052  49.461  0.00  0.00    +0.000 HD
ENDBRANCH   4  23
BRANCH   7  25
ATOM     25  O   UNL     1     -33.197 -48.637  49.530  0.00  0.00    +0.000 OA
ATOM     26  H   UNL     1     -32.982 -49.588  49.410  0.00  0.00    +0.000 HD
ENDBRANCH   7  25
BRANCH  10  27
ATOM     27  O   UNL     1     -33.746 -45.745  53.258  0.00  0.00    +0.000 OA
ATOM     28  H   UNL     1     -33.296 -44.932  52.969  0.00  0.00    +0.000 HD
ENDBRANCH  10  27
BRANCH   2  29
ATOM     29  O   UNL     1     -28.637 -50.496  53.653  0.00  0.00    +0.000 OA
BRANCH  29  31
ATOM     30  O   UNL     1     -27.070 -49.365  56.815  0.00  0.00    +0.000 OA
ATOM     31  C   UNL     1     -28.253 -49.526  54.648  0.00  0.00    +0.000 C 
ATOM     32  C   UNL     1     -27.428 -50.248  55.743  0.00  0.00    +0.000 C 
ATOM     33  C   UNL     1     -27.367 -48.426  54.055  0.00  0.00    +0.000 C 
ATOM     34  C   UNL     1     -26.568 -47.704  55.105  0.00  0.00    +0.000 A 
ATOM     35  C   UNL     1     -26.469 -48.206  56.406  0.00  0.00    +0.000 A 
ATOM     36  C   UNL     1     -25.899 -46.513  54.796  0.00  0.00    +0.000 A 
ATOM     37  C   UNL     1     -25.758 -47.512  57.388  0.00  0.00    +0.000 A 
ATOM     38  C   UNL     1     -25.173 -45.820  55.763  0.00  0.00    +0.000 A 
ATOM     39  C   UNL     1     -25.115 -46.325  57.055  0.00  0.00    +0.000 A 
BRANCH  32  40
ATOM     40  C   UNL     1     -28.211 -51.406  56.347  0.00  0.00    +0.000 A 
ATOM     41  C   UNL     1     -29.234 -51.177  57.280  0.00  0.00    +0.000 A 
ATOM     42  C   UNL     1     -27.969 -52.721  55.909  0.00  0.00    +0.000 A 
ATOM     43  C   UNL     1     -30.023 -52.238  57.722  0.00  0.00    +0.000 A 
ATOM     44  C   UNL     1     -28.751 -53.783  56.370  0.00  0.00    +0.000 A 
ATOM     45  C   UNL     1     -29.787 -53.533  57.264  0.00  0.00    +0.000 A 
BRANCH  43  46
ATOM     46  O   UNL     1     -31.080 -52.007  58.555  0.00  0.00    +0.000 OA
ATOM     47  H   UNL     1     -31.568 -52.837  58.686  0.00  0.00    +0.000 HD
ENDBRANCH  43  46
BRANCH  45  48
ATOM     48  O   UNL     1     -30.604 -54.545  57.679  0.00  0.00    +0.000 OA
ATOM     49  H   UNL     1     -31.391 -54.571  57.111  0.00  0.00    +0.000 HD
ENDBRANCH  45  48
ENDBRANCH  32  40
BRANCH  36  50
ATOM     50  O   UNL     1     -25.973 -46.034  53.518  0.00  0.00    +0.000 OA
ATOM     51  H   UNL     1     -26.886 -46.129  53.199  0.00  0.00    +0.000 HD
ENDBRANCH  36  50
BRANCH  39  52
ATOM     52  O   UNL     1     -24.403 -45.619  57.981  0.00  0.00    +0.000 OA
ATOM     53  H   UNL     1     -24.954 -44.887  58.306  0.00  0.00    +0.000 HD
ENDBRANCH  39  52
ENDBRANCH  29  31
ENDBRANCH   2  29
TORSDOF 14
ENDMDL
MODEL 4
REMARK VINA RESULT:      -7.7      3.073      5.033
REMARK  Name = 
REMARK  14 active torsions:
REMARK  status: ('A' for Active; 'I' for Inactive)
REMARK    1  A    between atoms: O_1  and  C_14
REMARK    2  A    between atoms: O_1  and  C_15
REMARK    3  A    between atoms: O_4  and  C_16
REMARK    4  A    between atoms: O_5  and  C_18
REMARK    5  A    between atoms: O_6  and  C_26
REMARK    6  A    between atoms: O_7  and  C_29
REMARK    7  A    between atoms: O_8  and  C_35
REMARK    8  A    between atoms: O_9  and  C_36
REMARK    9  A    between atoms: O_10  and  C_39
REMARK   10  A    between atoms: O_11  and  C_40
REMARK   11  A    between atoms: O_12  and  C_41
REMARK   12  A    between atoms: O_13  and  C_43
REMARK   13  A    between atoms: C_14  and  C_20
REMARK   14  A    between atoms: C_17  and  C_24
REMARK                            x       y       z     vdW  Elec       q    Type
REMARK                         _______ _______ _______ _____ _____    ______ ____
ROOT
ATOM      1  O   UNL     1     -65.980 -69.587  40.225  0.00  0.00    +0.000 OA
ATOM      2  C   UNL     1     -64.917 -69.306  41.146  0.00  0.00    +0.000 C 
ATOM      3  C   UNL     1     -65.177 -69.979  42.527  0.00  0.00    +0.000 C 
ATOM      4  C   UNL     1     -66.532 -69.552  43.083  0.00  0.00    +0.000 C 
ATOM      5  C   UNL     1     -67.608 -69.669  42.046  0.00  0.00    +0.000 A 
ATOM      6  C   UNL     1     -67.263 -69.668  40.692  0.00  0.00    +0.000 A 
ATOM      7  C   UNL     1     -68.968 -69.740  42.383  0.00  0.00    +0.000 A 
ATOM      8  C   UNL     1     -68.250 -69.752  39.707  0.00  0.00    +0.000 A 
ATOM      9  C   UNL     1     -69.960 -69.805  41.408  0.00  0.00    +0.000 A 
ATOM     10  C   UNL     1     -69.589 -69.815  40.072  0.00  0.00    +0.000 A 
ENDROOT
BRANCH   2  11
ATOM     11  C   UNL     1     -64.647 -67.797  41.309  0.00  0.00    +0.000 A 
ATOM     12  C   UNL     1     -65.368 -66.851  40.547  0.00  0.00    +0.000 A 
ATOM     13  C   UNL     1     -63.690 -67.318  42.228  0.00  0.00    +0.000 A 
ATOM     14  C   UNL     1     -65.121 -65.490  40.702  0.00  0.00    +0.000 A 
ATOM     15  C   UNL     1     -63.439 -65.949  42.366  0.00  0.00    +0.000 A 
ATOM     16  C   UNL     1     -64.153 -65.049  41.596  0.00  0.00    +0.000 A 
BRANCH  14  17
ATOM     17  O   UNL     1     -65.807 -64.537  40.003  0.00  0.00    +0.000 OA
ATOM     18  H   UNL     1     -66.545 -64.956  39.516  0.00  0.00    +0.000 HD
ENDBRANCH  14  17
BRANCH  16  19
ATOM     19  O   UNL     1     -63.911 -63.712  41.733  0.00  0.00    +0.000 OA
ATOM     20  H   UNL     1     -63.490 -63.630  42.613  0.00  0.00    +0.000 HD
ENDBRANCH  16  19
ENDBRANCH   2  11
BRANCH   3  21
ATOM     21  O   UNL     1     -65.155 -71.433  42.439  0.00  0.00    +0.000 OA
ATOM     22  H   UNL     1     -64.338 -71.700  42.907  0.00  0.00    +0.000 HD
ENDBRANCH   3  21
BRANCH   4  23
ATOM     23  O   UNL     1     -66.867 -70.375  44.214  0.00  0.00    +0.000 OA
ATOM     24  H   UNL     1     -67.265 -71.181  43.814  0.00  0.00    +0.000 HD
ENDBRANCH   4  23
BRANCH   7  25
ATOM     25  O   UNL     1     -69.384 -69.768  43.687  0.00  0.00    +0.000 OA
ATOM     26  H   UNL     1     -70.137 -69.141  43.764  0.00  0.00    +0.000 HD
ENDBRANCH   7  25
BRANCH  10  27
ATOM     27  O   UNL     1     -70.519 -69.886  39.076  0.00  0.00    +0.000 OA
ATOM     28  H   UNL     1     -71.075 -70.668  39.230  0.00  0.00    +0.000 HD
ENDBRANCH  10  27
BRANCH   2  29
ATOM     29  O   UNL     1     -63.716 -69.979  40.672  0.00  0.00    +0.000 OA
BRANCH  29  31
ATOM     30  O   UNL     1     -62.540 -70.632  37.220  0.00  0.00    +0.000 OA
ATOM     31  C   UNL     1     -63.774 -70.579  39.363  0.00  0.00    +0.000 C 
ATOM     32  C   UNL     1     -62.522 -70.137  38.566  0.00  0.00    +0.000 C 
ATOM     33  C   UNL     1     -63.754 -72.109  39.439  0.00  0.00    +0.000 C 
ATOM     34  C   UNL     1     -63.327 -72.743  38.144  0.00  0.00    +0.000 A 
ATOM     35  C   UNL     1     -62.756 -71.979  37.123  0.00  0.00    +0.000 A 
ATOM     36  C   UNL     1     -63.488 -74.119  37.938  0.00  0.00    +0.000 A 
ATOM     37  C   UNL     1     -62.396 -72.565  35.906  0.00  0.00    +0.000 A 
ATOM     38  C   UNL     1     -63.118 -74.718  36.736  0.00  0.00    +0.000 A 
ATOM     39  C   UNL     1     -62.579 -73.931  35.726  0.00  0.00    +0.000 A 
BRANCH  32  40
ATOM     40  C   UNL     1     -62.424 -68.619  38.494  0.00  0.00    +0.000 A 
ATOM     41  C   UNL     1     -63.273 -67.879  37.658  0.00  0.00    +0.000 A 
ATOM     42  C   UNL     1     -61.529 -67.933  39.336  0.00  0.00    +0.000 A 
ATOM     43  C   UNL     1     -63.255 -66.487  37.704  0.00  0.00    +0.000 A 
ATOM     44  C   UNL     1     -61.502 -66.537  39.363  0.00  0.00    +0.000 A 
ATOM     45  C   UNL     1     -62.379 -65.819  38.557  0.00  0.00    +0.000 A 
BRANCH  43  46
ATOM     46  O   UNL     1     -64.145 -65.763  36.963  0.00  0.00    +0.000 OA
ATOM     47  H   UNL     1     -64.728 -65.267  37.562  0.00  0.00    +0.000 HD
ENDBRANCH  43  46
BRANCH  45  48
ATOM     48  O   UNL     1     -62.414 -64.455  38.614  0.00  0.00    +0.000 OA
ATOM     49  H   UNL     1     -62.712 -64.109  37.757  0.00  0.00    +0.000 HD
ENDBRANCH  45  48
ENDBRANCH  32  40
BRANCH  36  50
ATOM     50  O   UNL     1     -64.023 -74.873  38.945  0.00  0.00    +0.000 OA
ATOM     51  H   UNL     1     -64.591 -75.560  38.556  0.00  0.00    +0.000 HD
ENDBRANCH  36  50
BRANCH  39  52
ATOM     52  O   UNL     1     -62.234 -74.546  34.558  0.00  0.00    +0.000 OA
ATOM     53  H   UNL     1     -61.427 -75.068  34.707  0.00  0.00    +0.000 HD
ENDBRANCH  39  52
ENDBRANCH  29  31
ENDBRANCH   2  29
TORSDOF 14
ENDMDL
MODEL 5
REMARK VINA RESULT:      -7.7     35.345     38.875
REMARK  Name = 
REMARK  14 active torsions:
REMARK  status: ('A' for Active; 'I' for Inactive)
REMARK    1  A    between atoms: O_1  and  C_14
REMARK    2  A    between atoms: O_1  and  C_15
REMARK    3  A    between atoms: O_4  and  C_16
REMARK    4  A    between atoms: O_5  and  C_18
REMARK    5  A    between atoms: O_6  and  C_26
REMARK    6  A    between atoms: O_7  and  C_29
REMARK    7  A    between atoms: O_8  and  C_35
REMARK    8  A    between atoms: O_9  and  C_36
REMARK    9  A    between atoms: O_10  and  C_39
REMARK   10  A    between atoms: O_11  and  C_40
REMARK   11  A    between atoms: O_12  and  C_41
REMARK   12  A    between atoms: O_13  and  C_43
REMARK   13  A    between atoms: C_14  and  C_20
REMARK   14  A    between atoms: C_17  and  C_24
REMARK                            x       y       z     vdW  Elec       q    Type
REMARK                         _______ _______ _______ _____ _____    ______ ____
ROOT
ATOM      1  O   UNL     1     -30.730 -50.755  53.030  0.00  0.00    +0.000 OA
ATOM      2  C   UNL     1     -31.073 -52.122  53.293  0.00  0.00    +0.000 C 
ATOM      3  C   UNL     1     -32.487 -52.465  52.733  0.00  0.00    +0.000 C 
ATOM      4  C   UNL     1     -33.531 -51.504  53.296  0.00  0.00    +0.000 C 
ATOM      5  C   UNL     1     -33.074 -50.080  53.189  0.00  0.00    +0.000 A 
ATOM      6  C   UNL     1     -31.709 -49.801  53.075  0.00  0.00    +0.000 A 
ATOM      7  C   UNL     1     -33.968 -49.001  53.241  0.00  0.00    +0.000 A 
ATOM      8  C   UNL     1     -31.258 -48.482  52.998  0.00  0.00    +0.000 A 
ATOM      9  C   UNL     1     -33.527 -47.682  53.185  0.00  0.00    +0.000 A 
ATOM     10  C   UNL     1     -32.168 -47.433  53.059  0.00  0.00    +0.000 A 
ENDROOT
BRANCH   2  11
ATOM     11  C   UNL     1     -30.965 -52.493  54.785  0.00  0.00    +0.000 A 
ATOM     12  C   UNL     1     -30.604 -51.519  55.743  0.00  0.00    +0.000 A 
ATOM     13  C   UNL     1     -31.235 -53.801  55.238  0.00  0.00    +0.000 A 
ATOM     14  C   UNL     1     -30.511 -51.860  57.089  0.00  0.00    +0.000 A 
ATOM     15  C   UNL     1     -31.125 -54.137  56.591  0.00  0.00    +0.000 A 
ATOM     16  C   UNL     1     -30.757 -53.164  57.502  0.00  0.00    +0.000 A 
BRANCH  14  17
ATOM     17  O   UNL     1     -30.186 -50.950  58.055  0.00  0.00    +0.000 OA
ATOM     18  H   UNL     1     -29.835 -50.139  57.635  0.00  0.00    +0.000 HD
ENDBRANCH  14  17
BRANCH  16  19
ATOM     19  O   UNL     1     -30.653 -53.491  58.824  0.00  0.00    +0.000 OA
ATOM     20  H   UNL     1     -29.701 -53.384  59.027  0.00  0.00    +0.000 HD
ENDBRANCH  16  19
ENDBRANCH   2  11
BRANCH   3  21
ATOM     21  O   UNL     1     -32.532 -52.392  51.280  0.00  0.00    +0.000 OA
ATOM     22  H   UNL     1     -33.461 -52.166  51.069  0.00  0.00    +0.000 HD
ENDBRANCH   3  21
BRANCH   4  23
ATOM     23  O   UNL     1     -34.766 -51.664  52.576  0.00  0.00    +0.000 OA
ATOM     24  H   UNL     1     -35.459 -51.563  53.266  0.00  0.00    +0.000 HD
ENDBRANCH   4  23
BRANCH   7  25
ATOM     25  O   UNL     1     -35.321 -49.194  53.331  0.00  0.00    +0.000 OA
ATOM     26  H   UNL     1     -35.502 -50.114  53.038  0.00  0.00    +0.000 HD
ENDBRANCH   7  25
BRANCH  10  27
ATOM     27  O   UNL     1     -31.681 -46.161  52.991  0.00  0.00    +0.000 OA
ATOM     28  H   UNL     1     -31.055 -46.032  53.723  0.00  0.00    +0.000 HD
ENDBRANCH  10  27
BRANCH   2  29
ATOM     29  O   UNL     1     -30.192 -52.971  52.503  0.00  0.00    +0.000 OA
BRANCH  29  31
ATOM     30  O   UNL     1     -26.611 -52.669  51.601  0.00  0.00    +0.000 OA
ATOM     31  C   UNL     1     -29.046 -52.342  51.897  0.00  0.00    +0.000 C 
ATOM     32  C   UNL     1     -27.816 -53.260  52.109  0.00  0.00    +0.000 C 
ATOM     33  C   UNL     1     -29.230 -52.161  50.387  0.00  0.00    +0.000 C 
ATOM     34  C   UNL     1     -27.922 -51.977  49.668  0.00  0.00    +0.000 A 
ATOM     35  C   UNL     1     -26.706 -52.235  50.307  0.00  0.00    +0.000 A 
ATOM     36  C   UNL     1     -27.897 -51.548  48.335  0.00  0.00    +0.000 A 
ATOM     37  C   UNL     1     -25.492 -52.025  49.647  0.00  0.00    +0.000 A 
ATOM     38  C   UNL     1     -26.694 -51.351  47.661  0.00  0.00    +0.000 A 
ATOM     39  C   UNL     1     -25.499 -51.587  48.328  0.00  0.00    +0.000 A 
BRANCH  32  40
ATOM     40  C   UNL     1     -27.594 -53.549  53.588  0.00  0.00    +0.000 A 
ATOM     41  C   UNL     1     -27.256 -52.521  54.482  0.00  0.00    +0.000 A 
ATOM     42  C   UNL     1     -27.809 -54.846  54.089  0.00  0.00    +0.000 A 
ATOM     43  C   UNL     1     -27.185 -52.784  55.849  0.00  0.00    +0.000 A 
ATOM     44  C   UNL     1     -27.717 -55.107  55.458  0.00  0.00    +0.000 A 
ATOM     45  C   UNL     1     -27.421 -54.068  56.335  0.00  0.00    +0.000 A 
BRANCH  43  46
ATOM     46  O   UNL     1     -26.951 -51.769  56.732  0.00  0.00    +0.000 OA
ATOM     47  H   UNL     1     -26.381 -52.096  57.448  0.00  0.00    +0.000 HD
ENDBRANCH  43  46
BRANCH  45  48
ATOM     48  O   UNL     1     -27.389 -54.287  57.683  0.00  0.00    +0.000 OA
ATOM     49  H   UNL     1     -26.840 -55.068  57.865  0.00  0.00    +0.000 HD
ENDBRANCH  45  48
ENDBRANCH  32  40
BRANCH  36  50
ATOM     50  O   UNL     1     -29.085 -51.319  47.699  0.00  0.00    +0.000 OA
ATOM     51  H   UNL     1     -29.238 -52.028  47.052  0.00  0.00    +0.000 HD
ENDBRANCH  36  50
BRANCH  39  52
ATOM     52  O   UNL     1     -24.337 -51.377  47.643  0.00  0.00    +0.000 OA
ATOM     53  H   UNL     1     -24.539 -50.876  46.834  0.00  0.00    +0.000 HD
ENDBRANCH  39  52
ENDBRANCH  29  31
ENDBRANCH   2  29
TORSDOF 14
ENDMDL
MODEL 6
REMARK VINA RESULT:      -7.6      1.556      2.283
REMARK  Name = 
REMARK  14 active torsions:
REMARK  status: ('A' for Active; 'I' for Inactive)
REMARK    1  A    between atoms: O_1  and  C_14
REMARK    2  A    between atoms: O_1  and  C_15
REMARK    3  A    between atoms: O_4  and  C_16
REMARK    4  A    between atoms: O_5  and  C_18
REMARK    5  A    between atoms: O_6  and  C_26
REMARK    6  A    between atoms: O_7  and  C_29
REMARK    7  A    between atoms: O_8  and  C_35
REMARK    8  A    between atoms: O_9  and  C_36
REMARK    9  A    between atoms: O_10  and  C_39
REMARK   10  A    between atoms: O_11  and  C_40
REMARK   11  A    between atoms: O_12  and  C_41
REMARK   12  A    between atoms: O_13  and  C_43
REMARK   13  A    between atoms: C_14  and  C_20
REMARK   14  A    between atoms: C_17  and  C_24
REMARK                            x       y       z     vdW  Elec       q    Type
REMARK                         _______ _______ _______ _____ _____    ______ ____
ROOT
ATOM      1  O   UNL     1     -64.043 -69.953  42.551  0.00  0.00    +0.000 OA
ATOM      2  C   UNL     1     -63.548 -69.148  41.473  0.00  0.00    +0.000 C 
ATOM      3  C   UNL     1     -64.459 -67.905  41.236  0.00  0.00    +0.000 C 
ATOM      4  C   UNL     1     -65.902 -68.339  40.999  0.00  0.00    +0.000 C 
ATOM      5  C   UNL     1     -66.348 -69.334  42.028  0.00  0.00    +0.000 A 
ATOM      6  C   UNL     1     -65.393 -70.079  42.724  0.00  0.00    +0.000 A 
ATOM      7  C   UNL     1     -67.703 -69.579  42.295  0.00  0.00    +0.000 A 
ATOM      8  C   UNL     1     -65.785 -71.029  43.671  0.00  0.00    +0.000 A 
ATOM      9  C   UNL     1     -68.104 -70.537  43.222  0.00  0.00    +0.000 A 
ATOM     10  C   UNL     1     -67.136 -71.254  43.908  0.00  0.00    +0.000 A 
ENDROOT
BRANCH   2  11
ATOM     11  C   UNL     1     -63.351 -69.945  40.169  0.00  0.00    +0.000 A 
ATOM     12  C   UNL     1     -62.981 -69.289  38.973  0.00  0.00    +0.000 A 
ATOM     13  C   UNL     1     -63.518 -71.345  40.132  0.00  0.00    +0.000 A 
ATOM     14  C   UNL     1     -62.803 -70.015  37.800  0.00  0.00    +0.000 A 
ATOM     15  C   UNL     1     -63.350 -72.064  38.945  0.00  0.00    +0.000 A 
ATOM     16  C   UNL     1     -63.001 -71.391  37.789  0.00  0.00    +0.000 A 
BRANCH  14  17
ATOM     17  O   UNL     1     -62.425 -69.429  36.625  0.00  0.00    +0.000 OA
ATOM     18  H   UNL     1     -62.234 -68.481  36.779  0.00  0.00    +0.000 HD
ENDBRANCH  14  17
BRANCH  16  19
ATOM     19  O   UNL     1     -62.833 -72.093  36.630  0.00  0.00    +0.000 OA
ATOM     20  H   UNL     1     -62.011 -72.605  36.772  0.00  0.00    +0.000 HD
ENDBRANCH  16  19
ENDBRANCH   2  11
BRANCH   3  21
ATOM     21  O   UNL     1     -64.436 -66.987  42.365  0.00  0.00    +0.000 OA
ATOM     22  H   UNL     1     -65.019 -66.247  42.099  0.00  0.00    +0.000 HD
ENDBRANCH   3  21
BRANCH   4  23
ATOM     23  O   UNL     1     -66.762 -67.187  41.045  0.00  0.00    +0.000 OA
ATOM     24  H   UNL     1     -66.715 -66.816  40.135  0.00  0.00    +0.000 HD
ENDBRANCH   4  23
BRANCH   7  25
ATOM     25  O   UNL     1     -68.697 -68.875  41.669  0.00  0.00    +0.000 OA
ATOM     26  H   UNL     1     -69.545 -69.131  42.094  0.00  0.00    +0.000 HD
ENDBRANCH   7  25
BRANCH  10  27
ATOM     27  O   UNL     1     -67.472 -72.198  44.834  0.00  0.00    +0.000 OA
ATOM     28  H   UNL     1     -67.160 -71.899  45.705  0.00  0.00    +0.000 HD
ENDBRANCH  10  27
BRANCH   2  29
ATOM     29  O   UNL     1     -62.286 -68.555  41.891  0.00  0.00    +0.000 OA
BRANCH  29  31
ATOM     30  O   UNL     1     -59.211 -67.475  40.127  0.00  0.00    +0.000 OA
ATOM     31  C   UNL     1     -61.159 -68.721  41.008  0.00  0.00    +0.000 C 
ATOM     32  C   UNL     1     -60.315 -67.422  41.041  0.00  0.00    +0.000 C 
ATOM     33  C   UNL     1     -60.251 -69.870  41.456  0.00  0.00    +0.000 C 
ATOM     34  C   UNL     1     -58.865 -69.765  40.883  0.00  0.00    +0.000 A 
ATOM     35  C   UNL     1     -58.432 -68.592  40.258  0.00  0.00    +0.000 A 
ATOM     36  C   UNL     1     -57.975 -70.842  40.970  0.00  0.00    +0.000 A 
ATOM     37  C   UNL     1     -57.157 -68.511  39.692  0.00  0.00    +0.000 A 
ATOM     38  C   UNL     1     -56.695 -70.769  40.424  0.00  0.00    +0.000 A 
ATOM     39  C   UNL     1     -56.300 -69.602  39.783  0.00  0.00    +0.000 A 
BRANCH  32  40
ATOM     40  C   UNL     1     -61.158 -66.209  40.670  0.00  0.00    +0.000 A 
ATOM     41  C   UNL     1     -61.712 -66.080  39.387  0.00  0.00    +0.000 A 
ATOM     42  C   UNL     1     -61.460 -65.240  41.643  0.00  0.00    +0.000 A 
ATOM     43  C   UNL     1     -62.585 -65.031  39.108  0.00  0.00    +0.000 A 
ATOM     44  C   UNL     1     -62.321 -64.178  41.352  0.00  0.00    +0.000 A 
ATOM     45  C   UNL     1     -62.893 -64.088  40.087  0.00  0.00    +0.000 A 
BRANCH  43  46
ATOM     46  O   UNL     1     -63.202 -64.954  37.892  0.00  0.00    +0.000 OA
ATOM     47  H   UNL     1     -63.063 -64.066  37.521  0.00  0.00    +0.000 HD
ENDBRANCH  43  46
BRANCH  45  48
ATOM     48  O   UNL     1     -63.786 -63.095  39.800  0.00  0.00    +0.000 OA
ATOM     49  H   UNL     1     -63.299 -62.289  39.563  0.00  0.00    +0.000 HD
ENDBRANCH  45  48
ENDBRANCH  32  40
BRANCH  36  50
ATOM     50  O   UNL     1     -58.387 -71.981  41.602  0.00  0.00    +0.000 OA
ATOM     51  H   UNL     1     -59.234 -72.266  41.218  0.00  0.00    +0.000 HD
ENDBRANCH  36  50
BRANCH  39  52
ATOM     52  O   UNL     1     -55.043 -69.564  39.252  0.00  0.00    +0.000 OA
ATOM     53  H   UNL     1     -55.011 -70.160  38.483  0.00  0.00    +0.000 HD
ENDBRANCH  39  52
ENDBRANCH  29  31
ENDBRANCH   2  29
TORSDOF 14
ENDMDL
MODEL 7
REMARK VINA RESULT:      -7.5     15.837     18.636
REMARK  Name = 
REMARK  14 active torsions:
REMARK  status: ('A' for Active; 'I' for Inactive)
REMARK    1  A    between atoms: O_1  and  C_14
REMARK    2  A    between atoms: O_1  and  C_15
REMARK    3  A    between atoms: O_4  and  C_16
REMARK    4  A    between atoms: O_5  and  C_18
REMARK    5  A    between atoms: O_6  and  C_26
REMARK    6  A    between atoms: O_7  and  C_29
REMARK    7  A    between atoms: O_8  and  C_35
REMARK    8  A    between atoms: O_9  and  C_36
REMARK    9  A    between atoms: O_10  and  C_39
REMARK   10  A    between atoms: O_11  and  C_40
REMARK   11  A    between atoms: O_12  and  C_41
REMARK   12  A    between atoms: O_13  and  C_43
REMARK   13  A    between atoms: C_14  and  C_20
REMARK   14  A    between atoms: C_17  and  C_24
REMARK                            x       y       z     vdW  Elec       q    Type
REMARK                         _______ _______ _______ _____ _____    ______ ____
ROOT
ATOM      1  O   UNL     1     -46.092 -63.839  35.895  0.00  0.00    +0.000 OA
ATOM      2  C   UNL     1     -45.031 -64.032  34.949  0.00  0.00    +0.000 C 
ATOM      3  C   UNL     1     -44.150 -62.752  34.826  0.00  0.00    +0.000 C 
ATOM      4  C   UNL     1     -45.009 -61.543  34.470  0.00  0.00    +0.000 C 
ATOM      5  C   UNL     1     -46.224 -61.461  35.345  0.00  0.00    +0.000 A 
ATOM      6  C   UNL     1     -46.689 -62.612  35.987  0.00  0.00    +0.000 A 
ATOM      7  C   UNL     1     -46.946 -60.271  35.515  0.00  0.00    +0.000 A 
ATOM      8  C   UNL     1     -47.832 -62.566  36.790  0.00  0.00    +0.000 A 
ATOM      9  C   UNL     1     -48.097 -60.218  36.296  0.00  0.00    +0.000 A 
ATOM     10  C   UNL     1     -48.529 -61.372  36.933  0.00  0.00    +0.000 A 
ENDROOT
BRANCH   2  11
ATOM     11  C   UNL     1     -45.534 -64.491  33.567  0.00  0.00    +0.000 A 
ATOM     12  C   UNL     1     -46.808 -65.086  33.426  0.00  0.00    +0.000 A 
ATOM     13  C   UNL     1     -44.751 -64.319  32.406  0.00  0.00    +0.000 A 
ATOM     14  C   UNL     1     -47.257 -65.496  32.175  0.00  0.00    +0.000 A 
ATOM     15  C   UNL     1     -45.205 -64.747  31.155  0.00  0.00    +0.000 A 
ATOM     16  C   UNL     1     -46.451 -65.338  31.053  0.00  0.00    +0.000 A 
BRANCH  14  17
ATOM     17  O   UNL     1     -48.488 -66.057  31.985  0.00  0.00    +0.000 OA
ATOM     18  H   UNL     1     -49.126 -65.364  31.719  0.00  0.00    +0.000 HD
ENDBRANCH  14  17
BRANCH  16  19
ATOM     19  O   UNL     1     -46.897 -65.753  29.831  0.00  0.00    +0.000 OA
ATOM     20  H   UNL     1     -46.990 -66.723  29.923  0.00  0.00    +0.000 HD
ENDBRANCH  16  19
ENDBRANCH   2  11
BRANCH   3  21
ATOM     21  O   UNL     1     -43.436 -62.459  36.061  0.00  0.00    +0.000 OA
ATOM     22  H   UNL     1     -43.879 -61.666  36.425  0.00  0.00    +0.000 HD
ENDBRANCH   3  21
BRANCH   4  23
ATOM     23  O   UNL     1     -44.233 -60.342  34.618  0.00  0.00    +0.000 OA
ATOM     24  H   UNL     1     -43.495 -60.453  33.977  0.00  0.00    +0.000 HD
ENDBRANCH   4  23
BRANCH   7  25
ATOM     25  O   UNL     1     -46.541 -59.097  34.936  0.00  0.00    +0.000 OA
ATOM     26  H   UNL     1     -46.853 -59.113  34.004  0.00  0.00    +0.000 HD
ENDBRANCH   7  25
BRANCH  10  27
ATOM     27  O   UNL     1     -49.645 -61.376  37.717  0.00  0.00    +0.000 OA
ATOM     28  H   UNL     1     -50.122 -62.210  37.568  0.00  0.00    +0.000 HD
ENDBRANCH  10  27
BRANCH   2  29
ATOM     29  O   UNL     1     -44.108 -65.015  35.497  0.00  0.00    +0.000 OA
BRANCH  29  31
ATOM     30  O   UNL     1     -44.537 -68.056  37.570  0.00  0.00    +0.000 OA
ATOM     31  C   UNL     1     -44.551 -65.760  36.648  0.00  0.00    +0.000 C 
ATOM     32  C   UNL     1     -44.071 -67.225  36.498  0.00  0.00    +0.000 C 
ATOM     33  C   UNL     1     -43.949 -65.210  37.945  0.00  0.00    +0.000 C 
ATOM     34  C   UNL     1     -43.982 -66.214  39.064  0.00  0.00    +0.000 A 
ATOM     35  C   UNL     1     -44.272 -67.559  38.817  0.00  0.00    +0.000 A 
ATOM     36  C   UNL     1     -43.714 -65.821  40.381  0.00  0.00    +0.000 A 
ATOM     37  C   UNL     1     -44.340 -68.481  39.864  0.00  0.00    +0.000 A 
ATOM     38  C   UNL     1     -43.762 -66.735  41.432  0.00  0.00    +0.000 A 
ATOM     39  C   UNL     1     -44.081 -68.059  41.163  0.00  0.00    +0.000 A 
BRANCH  32  40
ATOM     40  C   UNL     1     -44.571 -67.837  35.195  0.00  0.00    +0.000 A 
ATOM     41  C   UNL     1     -45.767 -68.570  35.154  0.00  0.00    +0.000 A 
ATOM     42  C   UNL     1     -43.875 -67.599  33.996  0.00  0.00    +0.000 A 
ATOM     43  C   UNL     1     -46.271 -69.009  33.932  0.00  0.00    +0.000 A 
ATOM     44  C   UNL     1     -44.376 -68.059  32.776  0.00  0.00    +0.000 A 
ATOM     45  C   UNL     1     -45.583 -68.749  32.748  0.00  0.00    +0.000 A 
BRANCH  43  46
ATOM     46  O   UNL     1     -47.482 -69.639  33.874  0.00  0.00    +0.000 OA
ATOM     47  H   UNL     1     -48.034 -69.205  33.202  0.00  0.00    +0.000 HD
ENDBRANCH  43  46
BRANCH  45  48
ATOM     48  O   UNL     1     -46.124 -69.152  31.560  0.00  0.00    +0.000 OA
ATOM     49  H   UNL     1     -46.687 -69.928  31.715  0.00  0.00    +0.000 HD
ENDBRANCH  45  48
ENDBRANCH  32  40
BRANCH  36  50
ATOM     50  O   UNL     1     -43.405 -64.512  40.623  0.00  0.00    +0.000 OA
ATOM     51  H   UNL     1     -42.550 -64.308  40.207  0.00  0.00    +0.000 HD
ENDBRANCH  36  50
BRANCH  39  52
ATOM     52  O   UNL     1     -44.128 -68.927  42.215  0.00  0.00    +0.000 OA
ATOM     53  H   UNL     1     -44.617 -69.722  41.942  0.00  0.00    +0.000 HD
ENDBRANCH  39  52
ENDBRANCH  29  31
ENDBRANCH   2  29
TORSDOF 14
ENDMDL
MODEL 8
REMARK VINA RESULT:      -7.5     36.348     40.238
REMARK  Name = 
REMARK  14 active torsions:
REMARK  status: ('A' for Active; 'I' for Inactive)
REMARK    1  A    between atoms: O_1  and  C_14
REMARK    2  A    between atoms: O_1  and  C_15
REMARK    3  A    between atoms: O_4  and  C_16
REMARK    4  A    between atoms: O_5  and  C_18
REMARK    5  A    between atoms: O_6  and  C_26
REMARK    6  A    between atoms: O_7  and  C_29
REMARK    7  A    between atoms: O_8  and  C_35
REMARK    8  A    between atoms: O_9  and  C_36
REMARK    9  A    between atoms: O_10  and  C_39
REMARK   10  A    between atoms: O_11  and  C_40
REMARK   11  A    between atoms: O_12  and  C_41
REMARK   12  A    between atoms: O_13  and  C_43
REMARK   13  A    between atoms: C_14  and  C_20
REMARK   14  A    between atoms: C_17  and  C_24
REMARK                            x       y       z     vdW  Elec       q    Type
REMARK                         _______ _______ _______ _____ _____    ______ ____
ROOT
ATOM      1  O   UNL     1     -31.446 -59.164  65.252  0.00  0.00    +0.000 OA
ATOM      2  C   UNL     1     -32.762 -59.217  65.820  0.00  0.00    +0.000 C 
ATOM      3  C   UNL     1     -33.553 -57.907  65.525  0.00  0.00    +0.000 C 
ATOM      4  C   UNL     1     -32.776 -56.690  66.017  0.00  0.00    +0.000 C 
ATOM      5  C   UNL     1     -31.344 -56.744  65.575  0.00  0.00    +0.000 A 
ATOM      6  C   UNL     1     -30.774 -57.974  65.234  0.00  0.00    +0.000 A 
ATOM      7  C   UNL     1     -30.531 -55.602  65.528  0.00  0.00    +0.000 A 
ATOM      8  C   UNL     1     -29.435 -58.052  64.842  0.00  0.00    +0.000 A 
ATOM      9  C   UNL     1     -29.191 -55.672  65.158  0.00  0.00    +0.000 A 
ATOM     10  C   UNL     1     -28.654 -56.903  64.812  0.00  0.00    +0.000 A 
ENDROOT
BRANCH   2  11
ATOM     11  C   UNL     1     -32.752 -59.529  67.329  0.00  0.00    +0.000 A 
ATOM     12  C   UNL     1     -31.557 -59.914  67.977  0.00  0.00    +0.000 A 
ATOM     13  C   UNL     1     -33.924 -59.425  68.108  0.00  0.00    +0.000 A 
ATOM     14  C   UNL     1     -31.555 -60.191  69.341  0.00  0.00    +0.000 A 
ATOM     15  C   UNL     1     -33.915 -59.720  69.474  0.00  0.00    +0.000 A 
ATOM     16  C   UNL     1     -32.732 -60.107  70.076  0.00  0.00    +0.000 A 
BRANCH  14  17
ATOM     17  O   UNL     1     -30.421 -60.547  70.015  0.00  0.00    +0.000 OA
ATOM     18  H   UNL     1     -30.386 -61.521  70.105  0.00  0.00    +0.000 HD
ENDBRANCH  14  17
BRANCH  16  19
ATOM     19  O   UNL     1     -32.721 -60.391  71.412  0.00  0.00    +0.000 OA
ATOM     20  H   UNL     1     -33.274 -59.690  71.814  0.00  0.00    +0.000 HD
ENDBRANCH  16  19
ENDBRANCH   2  11
BRANCH   3  21
ATOM     21  O   UNL     1     -33.820 -57.738  64.104  0.00  0.00    +0.000 OA
ATOM     22  H   UNL     1     -33.556 -58.588  63.696  0.00  0.00    +0.000 HD
ENDBRANCH   3  21
BRANCH   4  23
ATOM     23  O   UNL     1     -33.387 -55.493  65.508  0.00  0.00    +0.000 OA
ATOM     24  H   UNL     1     -32.813 -54.769  65.845  0.00  0.00    +0.000 HD
ENDBRANCH   4  23
BRANCH   7  25
ATOM     25  O   UNL     1     -31.023 -54.359  65.827  0.00  0.00    +0.000 OA
ATOM     26  H   UNL     1     -30.550 -54.046  66.630  0.00  0.00    +0.000 HD
ENDBRANCH   7  25
BRANCH  10  27
ATOM     27  O   UNL     1     -27.349 -57.029  64.433  0.00  0.00    +0.000 OA
ATOM     28  H   UNL     1     -26.859 -56.257  64.763  0.00  0.00    +0.000 HD
ENDBRANCH  10  27
BRANCH   2  29
ATOM     29  O   UNL     1     -33.524 -60.231  65.106  0.00  0.00    +0.000 OA
BRANCH  29  31
ATOM     30  O   UNL     1     -33.305 -63.813  64.184  0.00  0.00    +0.000 OA
ATOM     31  C   UNL     1     -32.841 -61.456  64.778  0.00  0.00    +0.000 C 
ATOM     32  C   UNL     1     -33.902 -62.535  64.448  0.00  0.00    +0.000 C 
ATOM     33  C   UNL     1     -31.948 -61.295  63.544  0.00  0.00    +0.000 C 
ATOM     34  C   UNL     1     -31.620 -62.613  62.897  0.00  0.00    +0.000 A 
ATOM     35  C   UNL     1     -32.305 -63.779  63.251  0.00  0.00    +0.000 A 
ATOM     36  C   UNL     1     -30.622 -62.696  61.918  0.00  0.00    +0.000 A 
ATOM     37  C   UNL     1     -31.970 -65.008  62.676  0.00  0.00    +0.000 A 
ATOM     38  C   UNL     1     -30.290 -63.913  61.326  0.00  0.00    +0.000 A 
ATOM     39  C   UNL     1     -30.966 -65.061  61.716  0.00  0.00    +0.000 A 
BRANCH  32  40
ATOM     40  C   UNL     1     -34.879 -62.717  65.602  0.00  0.00    +0.000 A 
ATOM     41  C   UNL     1     -36.260 -62.812  65.371  0.00  0.00    +0.000 A 
ATOM     42  C   UNL     1     -34.395 -62.877  66.912  0.00  0.00    +0.000 A 
ATOM     43  C   UNL     1     -37.123 -63.107  66.424  0.00  0.00    +0.000 A 
ATOM     44  C   UNL     1     -35.267 -63.154  67.968  0.00  0.00    +0.000 A 
ATOM     45  C   UNL     1     -36.629 -63.284  67.715  0.00  0.00    +0.000 A 
BRANCH  43  46
ATOM     46  O   UNL     1     -38.455 -63.295  66.189  0.00  0.00    +0.000 OA
ATOM     47  H   UNL     1     -38.789 -62.559  65.649  0.00  0.00    +0.000 HD
ENDBRANCH  43  46
BRANCH  45  48
ATOM     48  O   UNL     1     -37.492 -63.616  68.720  0.00  0.00    +0.000 OA
ATOM     49  H   UNL     1     -37.935 -64.450  68.494  0.00  0.00    +0.000 HD
ENDBRANCH  45  48
ENDBRANCH  32  40
BRANCH  36  50
ATOM     50  O   UNL     1     -29.968 -61.553  61.552  0.00  0.00    +0.000 OA
ATOM     51  H   UNL     1     -29.453 -61.229  62.310  0.00  0.00    +0.000 HD
ENDBRANCH  36  50
BRANCH  39  52
ATOM     52  O   UNL     1     -30.613 -66.238  61.123  0.00  0.00    +0.000 OA
ATOM     53  H   UNL     1     -30.675 -66.951  61.781  0.00  0.00    +0.000 HD
ENDBRANCH  39  52
ENDBRANCH  29  31
ENDBRANCH   2  29
TORSDOF 14
ENDMDL
MODEL 9
REMARK VINA RESULT:      -7.4     35.406     38.311
REMARK  Name = 
REMARK  14 active torsions:
REMARK  status: ('A' for Active; 'I' for Inactive)
REMARK    1  A    between atoms: O_1  and  C_14
REMARK    2  A    between atoms: O_1  and  C_15
REMARK    3  A    between atoms: O_4  and  C_16
REMARK    4  A    between atoms: O_5  and  C_18
REMARK    5  A    between atoms: O_6  and  C_26
REMARK    6  A    between atoms: O_7  and  C_29
REMARK    7  A    between atoms: O_8  and  C_35
REMARK    8  A    between atoms: O_9  and  C_36
REMARK    9  A    between atoms: O_10  and  C_39
REMARK   10  A    between atoms: O_11  and  C_40
REMARK   11  A    between atoms: O_12  and  C_41
REMARK   12  A    between atoms: O_13  and  C_43
REMARK   13  A    between atoms: C_14  and  C_20
REMARK   14  A    between atoms: C_17  and  C_24
REMARK                            x       y       z     vdW  Elec       q    Type
REMARK                         _______ _______ _______ _____ _____    ______ ____
ROOT
ATOM      1  O   UNL     1     -29.474 -53.509  52.411  0.00  0.00    +0.000 OA
ATOM      2  C   UNL     1     -29.229 -52.398  53.285  0.00  0.00    +0.000 C 
ATOM      3  C   UNL     1     -27.721 -52.311  53.672  0.00  0.00    +0.000 C 
ATOM      4  C   UNL     1     -27.250 -53.626  54.285  0.00  0.00    +0.000 C 
ATOM      5  C   UNL     1     -27.682 -54.799  53.457  0.00  0.00    +0.000 A 
ATOM      6  C   UNL     1     -28.768 -54.665  52.587  0.00  0.00    +0.000 A 
ATOM      7  C   UNL     1     -27.058 -56.052  53.550  0.00  0.00    +0.000 A 
ATOM      8  C   UNL     1     -29.203 -55.750  51.823  0.00  0.00    +0.000 A 
ATOM      9  C   UNL     1     -27.497 -57.144  52.808  0.00  0.00    +0.000 A 
ATOM     10  C   UNL     1     -28.568 -56.981  51.943  0.00  0.00    +0.000 A 
ENDROOT
BRANCH   2  11
ATOM     11  C   UNL     1     -30.121 -52.414  54.542  0.00  0.00    +0.000 A 
ATOM     12  C   UNL     1     -29.778 -51.648  55.678  0.00  0.00    +0.000 A 
ATOM     13  C   UNL     1     -31.307 -53.177  54.591  0.00  0.00    +0.000 A 
ATOM     14  C   UNL     1     -30.589 -51.665  56.808  0.00  0.00    +0.000 A 
ATOM     15  C   UNL     1     -32.108 -53.199  55.736  0.00  0.00    +0.000 A 
ATOM     16  C   UNL     1     -31.738 -52.448  56.836  0.00  0.00    +0.000 A 
BRANCH  14  17
ATOM     17  O   UNL     1     -30.310 -50.925  57.922  0.00  0.00    +0.000 OA
ATOM     18  H   UNL     1     -31.097 -50.899  58.503  0.00  0.00    +0.000 HD
ENDBRANCH  14  17
BRANCH  16  19
ATOM     19  O   UNL     1     -32.522 -52.465  57.954  0.00  0.00    +0.000 OA
ATOM     20  H   UNL     1     -32.190 -51.721  58.496  0.00  0.00    +0.000 HD
ENDBRANCH  16  19
ENDBRANCH   2  11
BRANCH   3  21
ATOM     21  O   UNL     1     -26.879 -52.012  52.523  0.00  0.00    +0.000 OA
ATOM     22  H   UNL     1     -26.401 -52.846  52.339  0.00  0.00    +0.000 HD
ENDBRANCH   3  21
BRANCH   4  23
ATOM     23  O   UNL     1     -25.815 -53.618  54.390  0.00  0.00    +0.000 OA
ATOM     24  H   UNL     1     -25.526 -53.010  53.674  0.00  0.00    +0.000 HD
ENDBRANCH   4  23
BRANCH   7  25
ATOM     25  O   UNL     1     -25.975 -56.255  54.364  0.00  0.00    +0.000 OA
ATOM     26  H   UNL     1     -26.088 -57.138  54.780  0.00  0.00    +0.000 HD
ENDBRANCH   7  25
BRANCH  10  27
ATOM     27  O   UNL     1     -29.034 -58.016  51.185  0.00  0.00    +0.000 OA
ATOM     28  H   UNL     1     -29.513 -58.630  51.766  0.00  0.00    +0.000 HD
ENDBRANCH  10  27
BRANCH   2  29
ATOM     29  O   UNL     1     -29.447 -51.171  52.533  0.00  0.00    +0.000 OA
BRANCH  29  31
ATOM     30  O   UNL     1     -31.343 -50.224  49.494  0.00  0.00    +0.000 OA
ATOM     31  C   UNL     1     -29.875 -51.308  51.164  0.00  0.00    +0.000 C 
ATOM     32  C   UNL     1     -30.810 -50.122  50.822  0.00  0.00    +0.000 C 
ATOM     33  C   UNL     1     -28.691 -51.257  50.193  0.00  0.00    +0.000 C 
ATOM     34  C   UNL     1     -29.113 -50.909  48.792  0.00  0.00    +0.000 A 
ATOM     35  C   UNL     1     -30.397 -50.423  48.526  0.00  0.00    +0.000 A 
ATOM     36  C   UNL     1     -28.222 -51.060  47.722  0.00  0.00    +0.000 A 
ATOM     37  C   UNL     1     -30.797 -50.138  47.218  0.00  0.00    +0.000 A 
ATOM     38  C   UNL     1     -28.605 -50.764  46.415  0.00  0.00    +0.000 A 
ATOM     39  C   UNL     1     -29.895 -50.309  46.175  0.00  0.00    +0.000 A 
BRANCH  32  40
ATOM     40  C   UNL     1     -31.988 -50.055  51.784  0.00  0.00    +0.000 A 
ATOM     41  C   UNL     1     -32.404 -48.832  52.333  0.00  0.00    +0.000 A 
ATOM     42  C   UNL     1     -32.729 -51.217  52.068  0.00  0.00    +0.000 A 
ATOM     43  C   UNL     1     -33.561 -48.775  53.107  0.00  0.00    +0.000 A 
ATOM     44  C   UNL     1     -33.878 -51.156  52.860  0.00  0.00    +0.000 A 
ATOM     45  C   UNL     1     -34.298 -49.929  53.364  0.00  0.00    +0.000 A 
BRANCH  43  46
ATOM     46  O   UNL     1     -34.023 -47.574  53.564  0.00  0.00    +0.000 OA
ATOM     47  H   UNL     1     -33.872 -46.895  52.885  0.00  0.00    +0.000 HD
ENDBRANCH  43  46
BRANCH  45  48
ATOM     48  O   UNL     1     -35.452 -49.837  54.088  0.00  0.00    +0.000 OA
ATOM     49  H   UNL     1     -36.065 -49.236  53.633  0.00  0.00    +0.000 HD
ENDBRANCH  45  48
ENDBRANCH  32  40
BRANCH  36  50
ATOM     50  O   UNL     1     -26.959 -51.512  47.982  0.00  0.00    +0.000 OA
ATOM     51  H   UNL     1     -26.476 -50.828  48.476  0.00  0.00    +0.000 HD
ENDBRANCH  36  50
BRANCH  39  52
ATOM     52  O   UNL     1     -30.241 -50.035  44.884  0.00  0.00    +0.000 OA
ATOM     53  H   UNL     1     -30.509 -50.863  44.450  0.00  0.00    +0.000 HD
ENDBRANCH  39  52
ENDBRANCH  29  31
ENDBRANCH   2  29
TORSDOF 14
ENDMDL
