MODEL 1
REMARK VINA RESULT:      -5.8      0.000      0.000
REMARK  Name = Progesterone.pdbqt.pdb
REMARK  1 active torsions:
REMARK  status: ('A' for Active; 'I' for Inactive)
REMARK    1  A    between atoms: C_7  and  C_21
REMARK                            x       y       z     vdW  Elec       q    Type
REMARK                         _______ _______ _______ _____ _____    ______ ____
ROOT
ATOM      1  O   UNL     1     -42.745 -70.094  24.636  0.00  0.00    +0.000 OA
ATOM      2  C   UNL     1     -46.603 -64.627  28.356  0.00  0.00    +0.000 C 
ATOM      3  C   UNL     1     -46.033 -63.113  28.493  0.00  0.00    +0.000 C 
ATOM      4  C   UNL     1     -46.236 -65.513  27.234  0.00  0.00    +0.000 C 
ATOM      5  C   UNL     1     -45.129 -65.277  26.245  0.00  0.00    +0.000 C 
ATOM      6  C   UNL     1     -44.862 -66.174  25.016  0.00  0.00    +0.000 C 
ATOM      7  C   UNL     1     -45.708 -63.008  29.954  0.00  0.00    +0.000 C 
ATOM      8  C   UNL     1     -44.879 -63.085  27.594  0.00  0.00    +0.000 C 
ATOM      9  C   UNL     1     -44.449 -64.059  26.526  0.00  0.00    +0.000 C 
ATOM     10  C   UNL     1     -46.723 -65.155  29.681  0.00  0.00    +0.000 C 
ATOM     11  C   UNL     1     -46.841 -66.781  27.076  0.00  0.00    +0.000 C 
ATOM     12  C   UNL     1     -46.145 -64.166  30.657  0.00  0.00    +0.000 C 
ATOM     13  C   UNL     1     -45.488 -67.705  25.117  0.00  0.00    +0.000 C 
ATOM     14  C   UNL     1     -47.190 -62.168  28.093  0.00  0.00    +0.000 C 
ATOM     15  C   UNL     1     -46.515 -67.855  26.082  0.00  0.00    +0.000 C 
ATOM     16  C   UNL     1     -43.391 -66.428  24.866  0.00  0.00    +0.000 C 
ATOM     17  C   UNL     1     -45.467 -65.520  23.746  0.00  0.00    +0.000 C 
ATOM     18  C   UNL     1     -42.561 -67.721  24.701  0.00  0.00    +0.000 C 
ATOM     19  C   UNL     1     -44.668 -68.717  24.927  0.00  0.00    +0.000 C 
ATOM     20  C   UNL     1     -43.254 -68.994  24.720  0.00  0.00    +0.000 C 
ENDROOT
BRANCH   7  21
ATOM     21  C   UNL     1     -45.078 -61.860  30.559  0.00  0.00    +0.000 C 
ATOM     22  O   UNL     1     -43.875 -61.672  30.629  0.00  0.00    +0.000 OA
ATOM     23  C   UNL     1     -45.828 -60.688  31.102  0.00  0.00    +0.000 C 
ENDBRANCH   7  21
TORSDOF 1
ENDMDL
MODEL 2
REMARK VINA RESULT:      -5.8     34.999     37.549
REMARK  Name = Progesterone.pdbqt.pdb
REMARK  1 active torsions:
REMARK  status: ('A' for Active; 'I' for Inactive)
REMARK    1  A    between atoms: C_7  and  C_21
REMARK                            x       y       z     vdW  Elec       q    Type
REMARK                         _______ _______ _______ _____ _____    ______ ____
ROOT
ATOM      1  O   UNL     1     -41.441 -36.215  51.324  0.00  0.00    +0.000 OA
ATOM      2  C   UNL     1     -48.503 -38.539  53.151  0.00  0.00    +0.000 C 
ATOM      3  C   UNL     1     -49.829 -37.804  52.569  0.00  0.00    +0.000 C 
ATOM      4  C   UNL     1     -47.214 -38.533  52.432  0.00  0.00    +0.000 C 
ATOM      5  C   UNL     1     -46.861 -37.666  51.256  0.00  0.00    +0.000 C 
ATOM      6  C   UNL     1     -45.540 -37.782  50.464  0.00  0.00    +0.000 C 
ATOM      7  C   UNL     1     -50.406 -37.141  53.785  0.00  0.00    +0.000 C 
ATOM      8  C   UNL     1     -49.311 -36.892  51.549  0.00  0.00    +0.000 C 
ATOM      9  C   UNL     1     -47.949 -36.821  50.904  0.00  0.00    +0.000 C 
ATOM     10  C   UNL     1     -48.535 -38.402  54.576  0.00  0.00    +0.000 C 
ATOM     11  C   UNL     1     -46.111 -39.282  52.903  0.00  0.00    +0.000 C 
ATOM     12  C   UNL     1     -49.691 -37.518  54.957  0.00  0.00    +0.000 C 
ATOM     13  C   UNL     1     -44.297 -38.518  51.276  0.00  0.00    +0.000 C 
ATOM     14  C   UNL     1     -50.754 -38.921  52.031  0.00  0.00    +0.000 C 
ATOM     15  C   UNL     1     -44.705 -39.303  52.382  0.00  0.00    +0.000 C 
ATOM     16  C   UNL     1     -44.984 -36.418  50.175  0.00  0.00    +0.000 C 
ATOM     17  C   UNL     1     -45.777 -38.595  49.164  0.00  0.00    +0.000 C 
ATOM     18  C   UNL     1     -43.593 -35.783  50.400  0.00  0.00    +0.000 C 
ATOM     19  C   UNL     1     -43.155 -37.870  51.368  0.00  0.00    +0.000 C 
ATOM     20  C   UNL     1     -42.568 -36.578  51.048  0.00  0.00    +0.000 C 
ENDROOT
BRANCH   7  21
ATOM     21  C   UNL     1     -51.560 -36.277  53.761  0.00  0.00    +0.000 C 
ATOM     22  O   UNL     1     -52.467 -36.336  52.948  0.00  0.00    +0.000 OA
ATOM     23  C   UNL     1     -51.849 -35.242  54.798  0.00  0.00    +0.000 C 
ENDBRANCH   7  21
TORSDOF 1
ENDMDL
MODEL 3
REMARK VINA RESULT:      -5.6     37.894     41.423
REMARK  Name = Progesterone.pdbqt.pdb
REMARK  1 active torsions:
REMARK  status: ('A' for Active; 'I' for Inactive)
REMARK    1  A    between atoms: C_7  and  C_21
REMARK                            x       y       z     vdW  Elec       q    Type
REMARK                         _______ _______ _______ _____ _____    ______ ____
ROOT
ATOM      1  O   UNL     1     -29.450 -51.585  63.031  0.00  0.00    +0.000 OA
ATOM      2  C   UNL     1     -32.502 -58.215  65.343  0.00  0.00    +0.000 C 
ATOM      3  C   UNL     1     -31.680 -59.614  65.266  0.00  0.00    +0.000 C 
ATOM      4  C   UNL     1     -31.829 -56.908  65.469  0.00  0.00    +0.000 C 
ATOM      5  C   UNL     1     -30.361 -56.645  65.278  0.00  0.00    +0.000 C 
ATOM      6  C   UNL     1     -29.686 -55.280  65.538  0.00  0.00    +0.000 C 
ATOM      7  C   UNL     1     -32.406 -60.371  64.194  0.00  0.00    +0.000 C 
ATOM      8  C   UNL     1     -30.317 -59.207  64.927  0.00  0.00    +0.000 C 
ATOM      9  C   UNL     1     -29.670 -57.844  64.948  0.00  0.00    +0.000 C 
ATOM     10  C   UNL     1     -33.654 -58.355  64.505  0.00  0.00    +0.000 C 
ATOM     11  C   UNL     1     -32.571 -55.718  65.655  0.00  0.00    +0.000 C 
ATOM     12  C   UNL     1     -33.575 -59.671  63.779  0.00  0.00    +0.000 C 
ATOM     13  C   UNL     1     -30.709 -53.977  65.513  0.00  0.00    +0.000 C 
ATOM     14  C   UNL     1     -31.830 -60.291  66.648  0.00  0.00    +0.000 C 
ATOM     15  C   UNL     1     -32.077 -54.303  65.682  0.00  0.00    +0.000 C 
ATOM     16  C   UNL     1     -28.716 -54.960  64.439  0.00  0.00    +0.000 C 
ATOM     17  C   UNL     1     -28.999 -55.291  66.929  0.00  0.00    +0.000 C 
ATOM     18  C   UNL     1     -28.525 -53.721  63.535  0.00  0.00    +0.000 C 
ATOM     19  C   UNL     1     -30.408 -52.976  64.712  0.00  0.00    +0.000 C 
ATOM     20  C   UNL     1     -29.446 -52.611  63.683  0.00  0.00    +0.000 C 
ENDROOT
BRANCH   7  21
ATOM     21  C   UNL     1     -31.990 -61.657  63.692  0.00  0.00    +0.000 C 
ATOM     22  O   UNL     1     -31.507 -62.553  64.365  0.00  0.00    +0.000 OA
ATOM     23  C   UNL     1     -32.184 -62.104  62.280  0.00  0.00    +0.000 C 
ENDBRANCH   7  21
TORSDOF 1
ENDMDL
MODEL 4
REMARK VINA RESULT:      -5.6      3.701      5.576
REMARK  Name = Progesterone.pdbqt.pdb
REMARK  1 active torsions:
REMARK  status: ('A' for Active; 'I' for Inactive)
REMARK    1  A    between atoms: C_7  and  C_21
REMARK                            x       y       z     vdW  Elec       q    Type
REMARK                         _______ _______ _______ _____ _____    ______ ____
ROOT
ATOM      1  O   UNL     1     -43.543 -62.717  25.507  0.00  0.00    +0.000 OA
ATOM      2  C   UNL     1     -46.868 -63.852  32.309  0.00  0.00    +0.000 C 
ATOM      3  C   UNL     1     -46.778 -62.757  33.505  0.00  0.00    +0.000 C 
ATOM      4  C   UNL     1     -46.773 -63.478  30.884  0.00  0.00    +0.000 C 
ATOM      5  C   UNL     1     -46.326 -62.147  30.346  0.00  0.00    +0.000 C 
ATOM      6  C   UNL     1     -46.357 -61.767  28.850  0.00  0.00    +0.000 C 
ATOM      7  C   UNL     1     -45.905 -63.437  34.517  0.00  0.00    +0.000 C 
ATOM      8  C   UNL     1     -46.189 -61.580  32.865  0.00  0.00    +0.000 C 
ATOM      9  C   UNL     1     -45.990 -61.259  31.405  0.00  0.00    +0.000 C 
ATOM     10  C   UNL     1     -46.244 -65.049  32.783  0.00  0.00    +0.000 C 
ATOM     11  C   UNL     1     -46.976 -64.434  29.863  0.00  0.00    +0.000 C 
ATOM     12  C   UNL     1     -45.628 -64.779  34.130  0.00  0.00    +0.000 C 
ATOM     13  C   UNL     1     -46.389 -63.048  27.800  0.00  0.00    +0.000 C 
ATOM     14  C   UNL     1     -48.218 -62.557  34.031  0.00  0.00    +0.000 C 
ATOM     15  C   UNL     1     -46.804 -64.271  28.382  0.00  0.00    +0.000 C 
ATOM     16  C   UNL     1     -45.093 -61.056  28.466  0.00  0.00    +0.000 C 
ATOM     17  C   UNL     1     -47.615 -60.907  28.553  0.00  0.00    +0.000 C 
ATOM     18  C   UNL     1     -44.069 -61.276  27.329  0.00  0.00    +0.000 C 
ATOM     19  C   UNL     1     -45.469 -63.094  26.860  0.00  0.00    +0.000 C 
ATOM     20  C   UNL     1     -44.270 -62.392  26.425  0.00  0.00    +0.000 C 
ENDROOT
BRANCH   7  21
ATOM     21  C   UNL     1     -45.452 -62.818  35.738  0.00  0.00    +0.000 C 
ATOM     22  O   UNL     1     -46.060 -62.820  36.796  0.00  0.00    +0.000 OA
ATOM     23  C   UNL     1     -44.119 -62.164  35.897  0.00  0.00    +0.000 C 
ENDBRANCH   7  21
TORSDOF 1
ENDMDL
MODEL 5
REMARK VINA RESULT:      -5.5     35.305     37.275
REMARK  Name = Progesterone.pdbqt.pdb
REMARK  1 active torsions:
REMARK  status: ('A' for Active; 'I' for Inactive)
REMARK    1  A    between atoms: C_7  and  C_21
REMARK                            x       y       z     vdW  Elec       q    Type
REMARK                         _______ _______ _______ _____ _____    ______ ____
ROOT
ATOM      1  O   UNL     1     -54.720 -34.387  44.090  0.00  0.00    +0.000 OA
ATOM      2  C   UNL     1     -50.462 -35.146  50.407  0.00  0.00    +0.000 C 
ATOM      3  C   UNL     1     -49.682 -36.527  50.759  0.00  0.00    +0.000 C 
ATOM      4  C   UNL     1     -50.788 -34.751  49.023  0.00  0.00    +0.000 C 
ATOM      5  C   UNL     1     -50.707 -35.634  47.808  0.00  0.00    +0.000 C 
ATOM      6  C   UNL     1     -50.944 -35.139  46.364  0.00  0.00    +0.000 C 
ATOM      7  C   UNL     1     -50.430 -37.039  51.954  0.00  0.00    +0.000 C 
ATOM      8  C   UNL     1     -49.821 -37.332  49.546  0.00  0.00    +0.000 C 
ATOM      9  C   UNL     1     -50.268 -36.940  48.159  0.00  0.00    +0.000 C 
ATOM     10  C   UNL     1     -51.398 -34.908  51.463  0.00  0.00    +0.000 C 
ATOM     11  C   UNL     1     -51.358 -33.489  48.737  0.00  0.00    +0.000 C 
ATOM     12  C   UNL     1     -51.394 -36.089  52.397  0.00  0.00    +0.000 C 
ATOM     13  C   UNL     1     -51.817 -33.737  46.238  0.00  0.00    +0.000 C 
ATOM     14  C   UNL     1     -48.229 -36.135  51.116  0.00  0.00    +0.000 C 
ATOM     15  C   UNL     1     -51.862 -32.966  47.426  0.00  0.00    +0.000 C 
ATOM     16  C   UNL     1     -51.789 -36.123  45.608  0.00  0.00    +0.000 C 
ATOM     17  C   UNL     1     -49.582 -34.891  45.664  0.00  0.00    +0.000 C 
ATOM     18  C   UNL     1     -53.081 -35.973  44.774  0.00  0.00    +0.000 C 
ATOM     19  C   UNL     1     -52.884 -33.745  45.468  0.00  0.00    +0.000 C 
ATOM     20  C   UNL     1     -53.692 -34.662  44.677  0.00  0.00    +0.000 C 
ENDROOT
BRANCH   7  21
ATOM     21  C   UNL     1     -50.165 -38.307  52.589  0.00  0.00    +0.000 C 
ATOM     22  O   UNL     1     -50.660 -39.373  52.265  0.00  0.00    +0.000 OA
ATOM     23  C   UNL     1     -49.164 -38.500  53.679  0.00  0.00    +0.000 C 
ENDBRANCH   7  21
TORSDOF 1
ENDMDL
MODEL 6
REMARK VINA RESULT:      -5.5     44.170     47.908
REMARK  Name = Progesterone.pdbqt.pdb
REMARK  1 active torsions:
REMARK  status: ('A' for Active; 'I' for Inactive)
REMARK    1  A    between atoms: C_7  and  C_21
REMARK                            x       y       z     vdW  Elec       q    Type
REMARK                         _______ _______ _______ _____ _____    ______ ____
ROOT
ATOM      1  O   UNL     1     -43.200 -44.551  72.905  0.00  0.00    +0.000 OA
ATOM      2  C   UNL     1     -36.227 -46.064  70.131  0.00  0.00    +0.000 C 
ATOM      3  C   UNL     1     -36.007 -46.689  68.647  0.00  0.00    +0.000 C 
ATOM      4  C   UNL     1     -37.407 -45.249  70.480  0.00  0.00    +0.000 C 
ATOM      5  C   UNL     1     -38.658 -45.105  69.658  0.00  0.00    +0.000 C 
ATOM      6  C   UNL     1     -39.816 -44.146  70.010  0.00  0.00    +0.000 C 
ATOM      7  C   UNL     1     -35.511 -48.074  68.938  0.00  0.00    +0.000 C 
ATOM      8  C   UNL     1     -37.333 -46.618  68.033  0.00  0.00    +0.000 C 
ATOM      9  C   UNL     1     -38.571 -45.872  68.464  0.00  0.00    +0.000 C 
ATOM     10  C   UNL     1     -35.699 -47.007  71.069  0.00  0.00    +0.000 C 
ATOM     11  C   UNL     1     -37.513 -44.619  71.741  0.00  0.00    +0.000 C 
ATOM     12  C   UNL     1     -35.286 -48.253  70.332  0.00  0.00    +0.000 C 
ATOM     13  C   UNL     1     -39.884 -43.681  71.599  0.00  0.00    +0.000 C 
ATOM     14  C   UNL     1     -34.926 -45.823  67.960  0.00  0.00    +0.000 C 
ATOM     15  C   UNL     1     -38.674 -43.862  72.314  0.00  0.00    +0.000 C 
ATOM     16  C   UNL     1     -41.138 -44.829  69.810  0.00  0.00    +0.000 C 
ATOM     17  C   UNL     1     -39.702 -42.851  69.163  0.00  0.00    +0.000 C 
ATOM     18  C   UNL     1     -42.376 -45.005  70.718  0.00  0.00    +0.000 C 
ATOM     19  C   UNL     1     -41.015 -43.866  72.246  0.00  0.00    +0.000 C 
ATOM     20  C   UNL     1     -42.328 -44.468  72.063  0.00  0.00    +0.000 C 
ENDROOT
BRANCH   7  21
ATOM     21  C   UNL     1     -35.255 -49.067  67.924  0.00  0.00    +0.000 C 
ATOM     22  O   UNL     1     -34.200 -49.212  67.330  0.00  0.00    +0.000 OA
ATOM     23  C   UNL     1     -36.232 -50.125  67.528  0.00  0.00    +0.000 C 
ENDBRANCH   7  21
TORSDOF 1
ENDMDL
MODEL 7
REMARK VINA RESULT:      -5.4      2.538      3.477
REMARK  Name = Progesterone.pdbqt.pdb
REMARK  1 active torsions:
REMARK  status: ('A' for Active; 'I' for Inactive)
REMARK    1  A    between atoms: C_7  and  C_21
REMARK                            x       y       z     vdW  Elec       q    Type
REMARK                         _______ _______ _______ _____ _____    ______ ____
ROOT
ATOM      1  O   UNL     1     -41.444 -67.053  24.914  0.00  0.00    +0.000 OA
ATOM      2  C   UNL     1     -46.504 -67.344  30.652  0.00  0.00    +0.000 C 
ATOM      3  C   UNL     1     -47.635 -66.198  30.862  0.00  0.00    +0.000 C 
ATOM      4  C   UNL     1     -45.924 -67.652  29.330  0.00  0.00    +0.000 C 
ATOM      5  C   UNL     1     -46.067 -66.821  28.086  0.00  0.00    +0.000 C 
ATOM      6  C   UNL     1     -45.540 -67.247  26.698  0.00  0.00    +0.000 C 
ATOM      7  C   UNL     1     -47.188 -65.512  32.119  0.00  0.00    +0.000 C 
ATOM      8  C   UNL     1     -47.549 -65.388  29.647  0.00  0.00    +0.000 C 
ATOM      9  C   UNL     1     -46.852 -65.662  28.337  0.00  0.00    +0.000 C 
ATOM     10  C   UNL     1     -45.676 -67.340  31.819  0.00  0.00    +0.000 C 
ATOM     11  C   UNL     1     -45.032 -68.735  29.158  0.00  0.00    +0.000 C 
ATOM     12  C   UNL     1     -46.084 -66.193  32.705  0.00  0.00    +0.000 C 
ATOM     13  C   UNL     1     -44.343 -68.392  26.723  0.00  0.00    +0.000 C 
ATOM     14  C   UNL     1     -48.981 -66.934  31.057  0.00  0.00    +0.000 C 
ATOM     15  C   UNL     1     -44.257 -69.123  27.934  0.00  0.00    +0.000 C 
ATOM     16  C   UNL     1     -44.875 -66.088  26.014  0.00  0.00    +0.000 C 
ATOM     17  C   UNL     1     -46.703 -67.827  25.850  0.00  0.00    +0.000 C 
ATOM     18  C   UNL     1     -43.493 -65.918  25.345  0.00  0.00    +0.000 C 
ATOM     19  C   UNL     1     -43.223 -68.123  26.085  0.00  0.00    +0.000 C 
ATOM     20  C   UNL     1     -42.573 -67.038  25.365  0.00  0.00    +0.000 C 
ENDROOT
BRANCH   7  21
ATOM     21  C   UNL     1     -47.831 -64.347  32.674  0.00  0.00    +0.000 C 
ATOM     22  O   UNL     1     -48.971 -64.310  33.105  0.00  0.00    +0.000 OA
ATOM     23  C   UNL     1     -47.145 -63.037  32.885  0.00  0.00    +0.000 C 
ENDBRANCH   7  21
TORSDOF 1
ENDMDL
MODEL 8
REMARK VINA RESULT:      -5.3      2.764      3.830
REMARK  Name = Progesterone.pdbqt.pdb
REMARK  1 active torsions:
REMARK  status: ('A' for Active; 'I' for Inactive)
REMARK    1  A    between atoms: C_7  and  C_21
REMARK                            x       y       z     vdW  Elec       q    Type
REMARK                         _______ _______ _______ _____ _____    ______ ____
ROOT
ATOM      1  O   UNL     1     -40.893 -65.158  22.561  0.00  0.00    +0.000 OA
ATOM      2  C   UNL     1     -46.574 -66.635  27.476  0.00  0.00    +0.000 C 
ATOM      3  C   UNL     1     -46.567 -66.063  28.996  0.00  0.00    +0.000 C 
ATOM      4  C   UNL     1     -45.870 -65.954  26.371  0.00  0.00    +0.000 C 
ATOM      5  C   UNL     1     -44.865 -64.845  26.511  0.00  0.00    +0.000 C 
ATOM      6  C   UNL     1     -44.245 -64.085  25.318  0.00  0.00    +0.000 C 
ATOM      7  C   UNL     1     -46.370 -67.301  29.819  0.00  0.00    +0.000 C 
ATOM      8  C   UNL     1     -45.450 -65.118  29.015  0.00  0.00    +0.000 C 
ATOM      9  C   UNL     1     -44.660 -64.517  27.880  0.00  0.00    +0.000 C 
ATOM     10  C   UNL     1     -46.570 -68.063  27.561  0.00  0.00    +0.000 C 
ATOM     11  C   UNL     1     -45.993 -66.407  25.037  0.00  0.00    +0.000 C 
ATOM     12  C   UNL     1     -46.416 -68.467  29.003  0.00  0.00    +0.000 C 
ATOM     13  C   UNL     1     -44.310 -64.884  23.868  0.00  0.00    +0.000 C 
ATOM     14  C   UNL     1     -47.957 -65.429  29.236  0.00  0.00    +0.000 C 
ATOM     15  C   UNL     1     -45.269 -65.926  23.816  0.00  0.00    +0.000 C 
ATOM     16  C   UNL     1     -42.771 -63.899  25.527  0.00  0.00    +0.000 C 
ATOM     17  C   UNL     1     -44.976 -62.730  25.123  0.00  0.00    +0.000 C 
ATOM     18  C   UNL     1     -41.539 -64.203  24.644  0.00  0.00    +0.000 C 
ATOM     19  C   UNL     1     -43.184 -65.049  23.207  0.00  0.00    +0.000 C 
ATOM     20  C   UNL     1     -41.753 -64.828  23.353  0.00  0.00    +0.000 C 
ENDROOT
BRANCH   7  21
ATOM     21  C   UNL     1     -46.205 -67.300  31.251  0.00  0.00    +0.000 C 
ATOM     22  O   UNL     1     -45.179 -67.003  31.841  0.00  0.00    +0.000 OA
ATOM     23  C   UNL     1     -47.309 -67.572  32.219  0.00  0.00    +0.000 C 
ENDBRANCH   7  21
TORSDOF 1
ENDMDL
MODEL 9
REMARK VINA RESULT:      -5.2     34.864     37.243
REMARK  Name = Progesterone.pdbqt.pdb
REMARK  1 active torsions:
REMARK  status: ('A' for Active; 'I' for Inactive)
REMARK    1  A    between atoms: C_7  and  C_21
REMARK                            x       y       z     vdW  Elec       q    Type
REMARK                         _______ _______ _______ _____ _____    ______ ____
ROOT
ATOM      1  O   UNL     1     -55.505 -79.266  61.271  0.00  0.00    +0.000 OA
ATOM      2  C   UNL     1     -47.981 -78.221  62.223  0.00  0.00    +0.000 C 
ATOM      3  C   UNL     1     -46.892 -78.780  61.156  0.00  0.00    +0.000 C 
ATOM      4  C   UNL     1     -49.366 -77.883  61.839  0.00  0.00    +0.000 C 
ATOM      5  C   UNL     1     -50.037 -78.242  60.542  0.00  0.00    +0.000 C 
ATOM      6  C   UNL     1     -51.449 -77.762  60.139  0.00  0.00    +0.000 C 
ATOM      7  C   UNL     1     -46.205 -79.873  61.920  0.00  0.00    +0.000 C 
ATOM      8  C   UNL     1     -47.703 -79.226  60.023  0.00  0.00    +0.000 C 
ATOM      9  C   UNL     1     -49.154 -78.971  59.699  0.00  0.00    +0.000 C 
ATOM     10  C   UNL     1     -47.717 -78.865  63.474  0.00  0.00    +0.000 C 
ATOM     11  C   UNL     1     -50.255 -77.285  62.761  0.00  0.00    +0.000 C 
ATOM     12  C   UNL     1     -46.643 -79.900  63.274  0.00  0.00    +0.000 C 
ATOM     13  C   UNL     1     -52.415 -77.291  61.400  0.00  0.00    +0.000 C 
ATOM     14  C   UNL     1     -45.934 -77.606  60.846  0.00  0.00    +0.000 C 
ATOM     15  C   UNL     1     -51.714 -76.986  62.593  0.00  0.00    +0.000 C 
ATOM     16  C   UNL     1     -52.228 -78.890  59.530  0.00  0.00    +0.000 C 
ATOM     17  C   UNL     1     -51.337 -76.551  59.176  0.00  0.00    +0.000 C 
ATOM     18  C   UNL     1     -53.631 -79.473  59.817  0.00  0.00    +0.000 C 
ATOM     19  C   UNL     1     -53.601 -77.853  61.508  0.00  0.00    +0.000 C 
ATOM     20  C   UNL     1     -54.406 -78.901  60.900  0.00  0.00    +0.000 C 
ENDROOT
BRANCH   7  21
ATOM     21  C   UNL     1     -45.203 -80.743  61.356  0.00  0.00    +0.000 C 
ATOM     22  O   UNL     1     -45.429 -81.732  60.678  0.00  0.00    +0.000 OA
ATOM     23  C   UNL     1     -43.734 -80.492  61.449  0.00  0.00    +0.000 C 
ENDBRANCH   7  21
TORSDOF 1
ENDMDL
