MODEL 1
REMARK VINA RESULT:      -7.3      0.000      0.000
REMARK  Name = Quercetin.pdbqt.pdb
REMARK  6 active torsions:
REMARK  status: ('A' for Active; 'I' for Inactive)
REMARK    1  A    between atoms: C_5  and  C_12
REMARK    2  A    between atoms: C_6  and  O_22
REMARK    3  A    between atoms: C_8  and  O_24
REMARK    4  A    between atoms: C_10  and  O_26
REMARK    5  A    between atoms: C_15  and  O_18
REMARK    6  A    between atoms: C_17  and  O_20
REMARK                            x       y       z     vdW  Elec       q    Type
REMARK                         _______ _______ _______ _____ _____    ______ ____
ROOT
ATOM      1  O   UNL     1     -47.460 -61.195  42.070  0.00  0.00    +0.000 OA
ATOM      2  O   UNL     1     -47.436 -62.174  46.015  0.00  0.00    +0.000 OA
ATOM      3  C   UNL     1     -48.380 -60.914  44.296  0.00  0.00    +0.000 A 
ATOM      4  C   UNL     1     -48.343 -60.613  42.939  0.00  0.00    +0.000 A 
ATOM      5  C   UNL     1     -46.569 -62.142  42.553  0.00  0.00    +0.000 A 
ATOM      6  C   UNL     1     -46.484 -62.523  43.846  0.00  0.00    +0.000 A 
ATOM      7  C   UNL     1     -47.428 -61.899  44.817  0.00  0.00    +0.000 A 
ATOM      8  C   UNL     1     -49.310 -60.278  45.128  0.00  0.00    +0.000 A 
ATOM      9  C   UNL     1     -49.229 -59.680  42.405  0.00  0.00    +0.000 A 
ATOM     10  C   UNL     1     -50.150 -59.055  43.240  0.00  0.00    +0.000 A 
ATOM     11  C   UNL     1     -50.198 -59.346  44.599  0.00  0.00    +0.000 A 
ENDROOT
BRANCH   5  12
ATOM     12  C   UNL     1     -45.711 -62.685  41.490  0.00  0.00    +0.000 A 
ATOM     13  C   UNL     1     -44.499 -62.071  41.160  0.00  0.00    +0.000 A 
ATOM     14  C   UNL     1     -46.080 -63.868  40.837  0.00  0.00    +0.000 A 
ATOM     15  C   UNL     1     -43.689 -62.626  40.177  0.00  0.00    +0.000 A 
ATOM     16  C   UNL     1     -45.258 -64.432  39.863  0.00  0.00    +0.000 A 
ATOM     17  C   UNL     1     -44.056 -63.812  39.551  0.00  0.00    +0.000 A 
BRANCH  15  18
ATOM     18  O   UNL     1     -42.552 -61.967  39.814  0.00  0.00    +0.000 OA
ATOM     19  H   UNL     1     -42.412 -61.256  40.468  0.00  0.00    +0.000 HD
ENDBRANCH  15  18
BRANCH  17  20
ATOM     20  O   UNL     1     -43.226 -64.396  38.639  0.00  0.00    +0.000 OA
ATOM     21  H   UNL     1     -43.331 -63.896  37.808  0.00  0.00    +0.000 HD
ENDBRANCH  17  20
ENDBRANCH   5  12
BRANCH   6  22
ATOM     22  O   UNL     1     -45.578 -63.434  44.353  0.00  0.00    +0.000 OA
ATOM     23  H   UNL     1     -45.742 -64.314  43.978  0.00  0.00    +0.000 HD
ENDBRANCH   6  22
BRANCH   8  24
ATOM     24  O   UNL     1     -49.402 -60.524  46.471  0.00  0.00    +0.000 OA
ATOM     25  H   UNL     1     -49.456 -61.499  46.605  0.00  0.00    +0.000 HD
ENDBRANCH   8  24
BRANCH  10  26
ATOM     26  O   UNL     1     -51.007 -58.145  42.693  0.00  0.00    +0.000 OA
ATOM     27  H   UNL     1     -51.287 -57.532  43.396  0.00  0.00    +0.000 HD
ENDBRANCH  10  26
TORSDOF 6
ENDMDL
MODEL 2
REMARK VINA RESULT:      -6.9     20.906     22.084
REMARK  Name = Quercetin.pdbqt.pdb
REMARK  6 active torsions:
REMARK  status: ('A' for Active; 'I' for Inactive)
REMARK    1  A    between atoms: C_5  and  C_12
REMARK    2  A    between atoms: C_6  and  O_22
REMARK    3  A    between atoms: C_8  and  O_24
REMARK    4  A    between atoms: C_10  and  O_26
REMARK    5  A    between atoms: C_15  and  O_18
REMARK    6  A    between atoms: C_17  and  O_20
REMARK                            x       y       z     vdW  Elec       q    Type
REMARK                         _______ _______ _______ _____ _____    ______ ____
ROOT
ATOM      1  O   UNL     1     -38.852 -42.582  49.995  0.00  0.00    +0.000 OA
ATOM      2  O   UNL     1     -38.655 -43.535  46.049  0.00  0.00    +0.000 OA
ATOM      3  C   UNL     1     -39.775 -42.416  47.760  0.00  0.00    +0.000 A 
ATOM      4  C   UNL     1     -39.797 -42.124  49.119  0.00  0.00    +0.000 A 
ATOM      5  C   UNL     1     -37.810 -43.360  49.512  0.00  0.00    +0.000 A 
ATOM      6  C   UNL     1     -37.669 -43.733  48.222  0.00  0.00    +0.000 A 
ATOM      7  C   UNL     1     -38.689 -43.256  47.245  0.00  0.00    +0.000 A 
ATOM      8  C   UNL     1     -40.778 -41.914  46.920  0.00  0.00    +0.000 A 
ATOM      9  C   UNL     1     -40.814 -41.332  49.648  0.00  0.00    +0.000 A 
ATOM     10  C   UNL     1     -41.805 -40.837  48.805  0.00  0.00    +0.000 A 
ATOM     11  C   UNL     1     -41.796 -41.123  47.444  0.00  0.00    +0.000 A 
ENDROOT
BRANCH   5  12
ATOM     12  C   UNL     1     -36.872 -43.748  50.575  0.00  0.00    +0.000 A 
ATOM     13  C   UNL     1     -36.819 -45.065  51.044  0.00  0.00    +0.000 A 
ATOM     14  C   UNL     1     -35.974 -42.802  51.086  0.00  0.00    +0.000 A 
ATOM     15  C   UNL     1     -35.897 -45.412  52.023  0.00  0.00    +0.000 A 
ATOM     16  C   UNL     1     -35.039 -43.157  52.057  0.00  0.00    +0.000 A 
ATOM     17  C   UNL     1     -34.996 -44.469  52.507  0.00  0.00    +0.000 A 
BRANCH  15  18
ATOM     18  O   UNL     1     -35.917 -46.680  52.523  0.00  0.00    +0.000 OA
ATOM     19  H   UNL     1     -36.507 -46.672  53.301  0.00  0.00    +0.000 HD
ENDBRANCH  15  18
BRANCH  17  20
ATOM     20  O   UNL     1     -34.043 -44.828  53.415  0.00  0.00    +0.000 OA
ATOM     21  H   UNL     1     -33.555 -44.015  53.641  0.00  0.00    +0.000 HD
ENDBRANCH  17  20
ENDBRANCH   5  12
BRANCH   6  22
ATOM     22  O   UNL     1     -36.662 -44.540  47.728  0.00  0.00    +0.000 OA
ATOM     23  H   UNL     1     -36.290 -45.086  48.439  0.00  0.00    +0.000 HD
ENDBRANCH   6  22
BRANCH   8  24
ATOM     24  O   UNL     1     -40.821 -42.163  45.575  0.00  0.00    +0.000 OA
ATOM     25  H   UNL     1     -40.740 -43.136  45.438  0.00  0.00    +0.000 HD
ENDBRANCH   8  24
BRANCH  10  26
ATOM     26  O   UNL     1     -42.790 -40.064  49.347  0.00  0.00    +0.000 OA
ATOM     27  H   UNL     1     -43.648 -40.414  49.047  0.00  0.00    +0.000 HD
ENDBRANCH  10  26
TORSDOF 6
ENDMDL
MODEL 3
REMARK VINA RESULT:      -6.4     22.343     23.561
REMARK  Name = Quercetin.pdbqt.pdb
REMARK  6 active torsions:
REMARK  status: ('A' for Active; 'I' for Inactive)
REMARK    1  A    between atoms: C_5  and  C_12
REMARK    2  A    between atoms: C_6  and  O_22
REMARK    3  A    between atoms: C_8  and  O_24
REMARK    4  A    between atoms: C_10  and  O_26
REMARK    5  A    between atoms: C_15  and  O_18
REMARK    6  A    between atoms: C_17  and  O_20
REMARK                            x       y       z     vdW  Elec       q    Type
REMARK                         _______ _______ _______ _____ _____    ______ ____
ROOT
ATOM      1  O   UNL     1     -32.140 -47.382  53.054  0.00  0.00    +0.000 OA
ATOM      2  O   UNL     1     -35.499 -49.672  53.020  0.00  0.00    +0.000 OA
ATOM      3  C   UNL     1     -33.171 -49.576  53.109  0.00  0.00    +0.000 A 
ATOM      4  C   UNL     1     -32.056 -48.746  53.113  0.00  0.00    +0.000 A 
ATOM      5  C   UNL     1     -33.394 -46.790  53.003  0.00  0.00    +0.000 A 
ATOM      6  C   UNL     1     -34.560 -47.470  52.980  0.00  0.00    +0.000 A 
ATOM      7  C   UNL     1     -34.499 -48.958  53.035  0.00  0.00    +0.000 A 
ATOM      8  C   UNL     1     -33.010 -50.966  53.171  0.00  0.00    +0.000 A 
ATOM      9  C   UNL     1     -30.776 -49.295  53.179  0.00  0.00    +0.000 A 
ATOM     10  C   UNL     1     -30.627 -50.677  53.242  0.00  0.00    +0.000 A 
ATOM     11  C   UNL     1     -31.734 -51.519  53.238  0.00  0.00    +0.000 A 
ENDROOT
BRANCH   5  12
ATOM     12  C   UNL     1     -33.309 -45.323  52.967  0.00  0.00    +0.000 A 
ATOM     13  C   UNL     1     -33.013 -44.590  54.121  0.00  0.00    +0.000 A 
ATOM     14  C   UNL     1     -33.466 -44.649  51.749  0.00  0.00    +0.000 A 
ATOM     15  C   UNL     1     -32.903 -43.208  54.051  0.00  0.00    +0.000 A 
ATOM     16  C   UNL     1     -33.337 -43.263  51.678  0.00  0.00    +0.000 A 
ATOM     17  C   UNL     1     -33.039 -42.552  52.832  0.00  0.00    +0.000 A 
BRANCH  15  18
ATOM     18  O   UNL     1     -32.695 -42.506  55.202  0.00  0.00    +0.000 OA
ATOM     19  H   UNL     1     -32.177 -43.080  55.797  0.00  0.00    +0.000 HD
ENDBRANCH  15  18
BRANCH  17  20
ATOM     20  O   UNL     1     -32.858 -41.202  52.750  0.00  0.00    +0.000 OA
ATOM     21  H   UNL     1     -33.121 -40.940  51.849  0.00  0.00    +0.000 HD
ENDBRANCH  17  20
ENDBRANCH   5  12
BRANCH   6  22
ATOM     22  O   UNL     1     -35.816 -46.900  52.890  0.00  0.00    +0.000 OA
ATOM     23  H   UNL     1     -36.027 -46.423  53.707  0.00  0.00    +0.000 HD
ENDBRANCH   6  22
BRANCH   8  24
ATOM     24  O   UNL     1     -34.062 -51.842  53.169  0.00  0.00    +0.000 OA
ATOM     25  H   UNL     1     -34.637 -51.636  53.942  0.00  0.00    +0.000 HD
ENDBRANCH   8  24
BRANCH  10  26
ATOM     26  O   UNL     1     -29.364 -51.190  53.306  0.00  0.00    +0.000 OA
ATOM     27  H   UNL     1     -28.848 -50.649  53.930  0.00  0.00    +0.000 HD
ENDBRANCH  10  26
TORSDOF 6
ENDMDL
MODEL 4
REMARK VINA RESULT:      -6.4     23.198     24.643
REMARK  Name = Quercetin.pdbqt.pdb
REMARK  6 active torsions:
REMARK  status: ('A' for Active; 'I' for Inactive)
REMARK    1  A    between atoms: C_5  and  C_12
REMARK    2  A    between atoms: C_6  and  O_22
REMARK    3  A    between atoms: C_8  and  O_24
REMARK    4  A    between atoms: C_10  and  O_26
REMARK    5  A    between atoms: C_15  and  O_18
REMARK    6  A    between atoms: C_17  and  O_20
REMARK                            x       y       z     vdW  Elec       q    Type
REMARK                         _______ _______ _______ _____ _____    ______ ____
ROOT
ATOM      1  O   UNL     1     -65.721 -70.982  29.911  0.00  0.00    +0.000 OA
ATOM      2  O   UNL     1     -64.534 -69.889  26.180  0.00  0.00    +0.000 OA
ATOM      3  C   UNL     1     -66.100 -70.982  27.516  0.00  0.00    +0.000 A 
ATOM      4  C   UNL     1     -66.458 -71.333  28.813  0.00  0.00    +0.000 A 
ATOM      5  C   UNL     1     -64.571 -70.227  29.733  0.00  0.00    +0.000 A 
ATOM      6  C   UNL     1     -64.097 -69.827  28.533  0.00  0.00    +0.000 A 
ATOM      7  C   UNL     1     -64.875 -70.202  27.318  0.00  0.00    +0.000 A 
ATOM      8  C   UNL     1     -66.903 -71.377  26.438  0.00  0.00    +0.000 A 
ATOM      9  C   UNL     1     -67.614 -72.077  29.043  0.00  0.00    +0.000 A 
ATOM     10  C   UNL     1     -68.405 -72.463  27.965  0.00  0.00    +0.000 A 
ATOM     11  C   UNL     1     -68.058 -72.120  26.663  0.00  0.00    +0.000 A 
ENDROOT
BRANCH   5  12
ATOM     12  C   UNL     1     -63.912 -69.917  31.009  0.00  0.00    +0.000 A 
ATOM     13  C   UNL     1     -64.127 -68.693  31.652  0.00  0.00    +0.000 A 
ATOM     14  C   UNL     1     -63.104 -70.882  31.625  0.00  0.00    +0.000 A 
ATOM     15  C   UNL     1     -63.521 -68.441  32.876  0.00  0.00    +0.000 A 
ATOM     16  C   UNL     1     -62.511 -70.632  32.862  0.00  0.00    +0.000 A 
ATOM     17  C   UNL     1     -62.739 -69.414  33.488  0.00  0.00    +0.000 A 
BRANCH  15  18
ATOM     18  O   UNL     1     -63.679 -67.212  33.445  0.00  0.00    +0.000 OA
ATOM     19  H   UNL     1     -63.680 -67.342  34.412  0.00  0.00    +0.000 HD
ENDBRANCH  15  18
BRANCH  17  20
ATOM     20  O   UNL     1     -62.204 -69.194  34.723  0.00  0.00    +0.000 OA
ATOM     21  H   UNL     1     -61.277 -69.495  34.683  0.00  0.00    +0.000 HD
ENDBRANCH  17  20
ENDBRANCH   5  12
BRANCH   6  22
ATOM     22  O   UNL     1     -62.933 -69.109  28.332  0.00  0.00    +0.000 OA
ATOM     23  H   UNL     1     -62.401 -69.098  29.143  0.00  0.00    +0.000 HD
ENDBRANCH   6  22
BRANCH   8  24
ATOM     24  O   UNL     1     -66.611 -71.070  25.136  0.00  0.00    +0.000 OA
ATOM     25  H   UNL     1     -66.897 -71.823  24.569  0.00  0.00    +0.000 HD
ENDBRANCH   8  24
BRANCH  10  26
ATOM     26  O   UNL     1     -69.531 -73.191  28.216  0.00  0.00    +0.000 OA
ATOM     27  H   UNL     1     -69.293 -73.921  28.815  0.00  0.00    +0.000 HD
ENDBRANCH  10  26
TORSDOF 6
ENDMDL
MODEL 5
REMARK VINA RESULT:      -6.4      3.229      4.736
REMARK  Name = Quercetin.pdbqt.pdb
REMARK  6 active torsions:
REMARK  status: ('A' for Active; 'I' for Inactive)
REMARK    1  A    between atoms: C_5  and  C_12
REMARK    2  A    between atoms: C_6  and  O_22
REMARK    3  A    between atoms: C_8  and  O_24
REMARK    4  A    between atoms: C_10  and  O_26
REMARK    5  A    between atoms: C_15  and  O_18
REMARK    6  A    between atoms: C_17  and  O_20
REMARK                            x       y       z     vdW  Elec       q    Type
REMARK                         _______ _______ _______ _____ _____    ______ ____
ROOT
ATOM      1  O   UNL     1     -47.204 -61.932  40.508  0.00  0.00    +0.000 OA
ATOM      2  O   UNL     1     -44.473 -64.595  41.914  0.00  0.00    +0.000 OA
ATOM      3  C   UNL     1     -45.967 -62.866  42.373  0.00  0.00    +0.000 A 
ATOM      4  C   UNL     1     -46.890 -61.973  41.839  0.00  0.00    +0.000 A 
ATOM      5  C   UNL     1     -46.590 -62.829  39.646  0.00  0.00    +0.000 A 
ATOM      6  C   UNL     1     -45.667 -63.741  40.022  0.00  0.00    +0.000 A 
ATOM      7  C   UNL     1     -45.300 -63.804  41.466  0.00  0.00    +0.000 A 
ATOM      8  C   UNL     1     -45.694 -62.851  43.747  0.00  0.00    +0.000 A 
ATOM      9  C   UNL     1     -47.544 -61.063  42.668  0.00  0.00    +0.000 A 
ATOM     10  C   UNL     1     -47.266 -61.057  44.031  0.00  0.00    +0.000 A 
ATOM     11  C   UNL     1     -46.345 -61.944  44.579  0.00  0.00    +0.000 A 
ENDROOT
BRANCH   5  12
ATOM     12  C   UNL     1     -47.054 -62.669  38.261  0.00  0.00    +0.000 A 
ATOM     13  C   UNL     1     -48.192 -61.911  37.966  0.00  0.00    +0.000 A 
ATOM     14  C   UNL     1     -46.313 -63.230  37.213  0.00  0.00    +0.000 A 
ATOM     15  C   UNL     1     -48.586 -61.745  36.645  0.00  0.00    +0.000 A 
ATOM     16  C   UNL     1     -46.702 -63.047  35.886  0.00  0.00    +0.000 A 
ATOM     17  C   UNL     1     -47.831 -62.288  35.611  0.00  0.00    +0.000 A 
BRANCH  15  18
ATOM     18  O   UNL     1     -49.744 -61.071  36.385  0.00  0.00    +0.000 OA
ATOM     19  H   UNL     1     -49.707 -60.235  36.886  0.00  0.00    +0.000 HD
ENDBRANCH  15  18
BRANCH  17  20
ATOM     20  O   UNL     1     -48.178 -62.063  34.311  0.00  0.00    +0.000 OA
ATOM     21  H   UNL     1     -49.125 -62.281  34.234  0.00  0.00    +0.000 HD
ENDBRANCH  17  20
ENDBRANCH   5  12
BRANCH   6  22
ATOM     22  O   UNL     1     -45.016 -64.617  39.174  0.00  0.00    +0.000 OA
ATOM     23  H   UNL     1     -45.638 -64.978  38.523  0.00  0.00    +0.000 HD
ENDBRANCH   6  22
BRANCH   8  24
ATOM     24  O   UNL     1     -44.797 -63.698  44.340  0.00  0.00    +0.000 OA
ATOM     25  H   UNL     1     -45.088 -64.624  44.171  0.00  0.00    +0.000 HD
ENDBRANCH   8  24
BRANCH  10  26
ATOM     26  O   UNL     1     -47.919 -60.158  44.822  0.00  0.00    +0.000 OA
ATOM     27  H   UNL     1     -47.451 -59.305  44.761  0.00  0.00    +0.000 HD
ENDBRANCH  10  26
TORSDOF 6
ENDMDL
MODEL 6
REMARK VINA RESULT:      -6.1     23.704     26.248
REMARK  Name = Quercetin.pdbqt.pdb
REMARK  6 active torsions:
REMARK  status: ('A' for Active; 'I' for Inactive)
REMARK    1  A    between atoms: C_5  and  C_12
REMARK    2  A    between atoms: C_6  and  O_22
REMARK    3  A    between atoms: C_8  and  O_24
REMARK    4  A    between atoms: C_10  and  O_26
REMARK    5  A    between atoms: C_15  and  O_18
REMARK    6  A    between atoms: C_17  and  O_20
REMARK                            x       y       z     vdW  Elec       q    Type
REMARK                         _______ _______ _______ _____ _____    ______ ____
ROOT
ATOM      1  O   UNL     1     -34.433 -64.628  63.891  0.00  0.00    +0.000 OA
ATOM      2  O   UNL     1     -30.866 -62.709  63.541  0.00  0.00    +0.000 OA
ATOM      3  C   UNL     1     -32.431 -64.162  62.605  0.00  0.00    +0.000 A 
ATOM      4  C   UNL     1     -33.656 -64.796  62.777  0.00  0.00    +0.000 A 
ATOM      5  C   UNL     1     -33.994 -63.773  64.892  0.00  0.00    +0.000 A 
ATOM      6  C   UNL     1     -32.822 -63.102  64.865  0.00  0.00    +0.000 A 
ATOM      7  C   UNL     1     -31.951 -63.273  63.667  0.00  0.00    +0.000 A 
ATOM      8  C   UNL     1     -31.687 -64.382  61.439  0.00  0.00    +0.000 A 
ATOM      9  C   UNL     1     -34.145 -65.651  61.792  0.00  0.00    +0.000 A 
ATOM     10  C   UNL     1     -33.399 -65.862  60.637  0.00  0.00    +0.000 A 
ATOM     11  C   UNL     1     -32.172 -65.234  60.452  0.00  0.00    +0.000 A 
ENDROOT
BRANCH   5  12
ATOM     12  C   UNL     1     -34.953 -63.686  66.002  0.00  0.00    +0.000 A 
ATOM     13  C   UNL     1     -36.211 -63.101  65.823  0.00  0.00    +0.000 A 
ATOM     14  C   UNL     1     -34.630 -64.252  67.242  0.00  0.00    +0.000 A 
ATOM     15  C   UNL     1     -37.112 -63.066  66.880  0.00  0.00    +0.000 A 
ATOM     16  C   UNL     1     -35.543 -64.230  68.296  0.00  0.00    +0.000 A 
ATOM     17  C   UNL     1     -36.788 -63.650  68.100  0.00  0.00    +0.000 A 
BRANCH  15  18
ATOM     18  O   UNL     1     -38.300 -62.419  66.708  0.00  0.00    +0.000 OA
ATOM     19  H   UNL     1     -38.868 -63.002  66.171  0.00  0.00    +0.000 HD
ENDBRANCH  15  18
BRANCH  17  20
ATOM     20  O   UNL     1     -37.701 -63.680  69.114  0.00  0.00    +0.000 OA
ATOM     21  H   UNL     1     -37.250 -63.329  69.904  0.00  0.00    +0.000 HD
ENDBRANCH  17  20
ENDBRANCH   5  12
BRANCH   6  22
ATOM     22  O   UNL     1     -32.350 -62.278  65.868  0.00  0.00    +0.000 OA
ATOM     23  H   UNL     1     -31.463 -61.953  65.646  0.00  0.00    +0.000 HD
ENDBRANCH   6  22
BRANCH   8  24
ATOM     24  O   UNL     1     -30.473 -63.793  61.203  0.00  0.00    +0.000 OA
ATOM     25  H   UNL     1     -30.122 -64.140  60.350  0.00  0.00    +0.000 HD
ENDBRANCH   8  24
BRANCH  10  26
ATOM     26  O   UNL     1     -33.900 -66.703  59.686  0.00  0.00    +0.000 OA
ATOM     27  H   UNL     1     -33.157 -67.026  59.146  0.00  0.00    +0.000 HD
ENDBRANCH  10  26
TORSDOF 6
ENDMDL
MODEL 7
REMARK VINA RESULT:      -6.1      4.780      7.602
REMARK  Name = Quercetin.pdbqt.pdb
REMARK  6 active torsions:
REMARK  status: ('A' for Active; 'I' for Inactive)
REMARK    1  A    between atoms: C_5  and  C_12
REMARK    2  A    between atoms: C_6  and  O_22
REMARK    3  A    between atoms: C_8  and  O_24
REMARK    4  A    between atoms: C_10  and  O_26
REMARK    5  A    between atoms: C_15  and  O_18
REMARK    6  A    between atoms: C_17  and  O_20
REMARK                            x       y       z     vdW  Elec       q    Type
REMARK                         _______ _______ _______ _____ _____    ______ ____
ROOT
ATOM      1  O   UNL     1     -46.471 -64.713  37.706  0.00  0.00    +0.000 OA
ATOM      2  O   UNL     1     -44.555 -64.683  41.291  0.00  0.00    +0.000 OA
ATOM      3  C   UNL     1     -45.261 -65.906  39.436  0.00  0.00    +0.000 A 
ATOM      4  C   UNL     1     -45.930 -65.861  38.218  0.00  0.00    +0.000 A 
ATOM      5  C   UNL     1     -46.336 -63.532  38.420  0.00  0.00    +0.000 A 
ATOM      6  C   UNL     1     -45.724 -63.429  39.620  0.00  0.00    +0.000 A 
ATOM      7  C   UNL     1     -45.133 -64.665  40.207  0.00  0.00    +0.000 A 
ATOM      8  C   UNL     1     -44.733 -67.118  39.900  0.00  0.00    +0.000 A 
ATOM      9  C   UNL     1     -46.076 -67.019  37.457  0.00  0.00    +0.000 A 
ATOM     10  C   UNL     1     -45.547 -68.218  37.926  0.00  0.00    +0.000 A 
ATOM     11  C   UNL     1     -44.877 -68.277  39.143  0.00  0.00    +0.000 A 
ENDROOT
BRANCH   5  12
ATOM     12  C   UNL     1     -46.949 -62.392  37.722  0.00  0.00    +0.000 A 
ATOM     13  C   UNL     1     -46.188 -61.561  36.895  0.00  0.00    +0.000 A 
ATOM     14  C   UNL     1     -48.328 -62.171  37.837  0.00  0.00    +0.000 A 
ATOM     15  C   UNL     1     -46.801 -60.514  36.218  0.00  0.00    +0.000 A 
ATOM     16  C   UNL     1     -48.943 -61.129  37.143  0.00  0.00    +0.000 A 
ATOM     17  C   UNL     1     -48.174 -60.316  36.322  0.00  0.00    +0.000 A 
BRANCH  15  18
ATOM     18  O   UNL     1     -46.027 -59.666  35.482  0.00  0.00    +0.000 OA
ATOM     19  H   UNL     1     -46.261 -59.805  34.546  0.00  0.00    +0.000 HD
ENDBRANCH  15  18
BRANCH  17  20
ATOM     20  O   UNL     1     -48.786 -59.334  35.601  0.00  0.00    +0.000 OA
ATOM     21  H   UNL     1     -49.236 -59.775  34.857  0.00  0.00    +0.000 HD
ENDBRANCH  17  20
ENDBRANCH   5  12
BRANCH   6  22
ATOM     22  O   UNL     1     -45.615 -62.270  40.365  0.00  0.00    +0.000 OA
ATOM     23  H   UNL     1     -45.797 -61.496  39.810  0.00  0.00    +0.000 HD
ENDBRANCH   6  22
BRANCH   8  24
ATOM     24  O   UNL     1     -44.066 -67.236  41.089  0.00  0.00    +0.000 OA
ATOM     25  H   UNL     1     -43.098 -67.222  40.904  0.00  0.00    +0.000 HD
ENDBRANCH   8  24
BRANCH  10  26
ATOM     26  O   UNL     1     -45.703 -69.338  37.163  0.00  0.00    +0.000 OA
ATOM     27  H   UNL     1     -46.620 -69.650  37.267  0.00  0.00    +0.000 HD
ENDBRANCH  10  26
TORSDOF 6
ENDMDL
MODEL 8
REMARK VINA RESULT:      -6.0     10.701     13.422
REMARK  Name = Quercetin.pdbqt.pdb
REMARK  6 active torsions:
REMARK  status: ('A' for Active; 'I' for Inactive)
REMARK    1  A    between atoms: C_5  and  C_12
REMARK    2  A    between atoms: C_6  and  O_22
REMARK    3  A    between atoms: C_8  and  O_24
REMARK    4  A    between atoms: C_10  and  O_26
REMARK    5  A    between atoms: C_15  and  O_18
REMARK    6  A    between atoms: C_17  and  O_20
REMARK                            x       y       z     vdW  Elec       q    Type
REMARK                         _______ _______ _______ _____ _____    ______ ____
ROOT
ATOM      1  O   UNL     1     -35.576 -61.341  43.251  0.00  0.00    +0.000 OA
ATOM      2  O   UNL     1     -33.543 -64.767  42.445  0.00  0.00    +0.000 OA
ATOM      3  C   UNL     1     -35.105 -63.183  41.747  0.00  0.00    +0.000 A 
ATOM      4  C   UNL     1     -35.776 -62.010  42.075  0.00  0.00    +0.000 A 
ATOM      5  C   UNL     1     -34.652 -61.838  44.158  0.00  0.00    +0.000 A 
ATOM      6  C   UNL     1     -33.938 -62.971  43.978  0.00  0.00    +0.000 A 
ATOM      7  C   UNL     1     -34.141 -63.726  42.709  0.00  0.00    +0.000 A 
ATOM      8  C   UNL     1     -35.360 -63.817  40.524  0.00  0.00    +0.000 A 
ATOM      9  C   UNL     1     -36.702 -61.463  41.189  0.00  0.00    +0.000 A 
ATOM     10  C   UNL     1     -36.948 -62.100  39.976  0.00  0.00    +0.000 A 
ATOM     11  C   UNL     1     -36.284 -63.274  39.636  0.00  0.00    +0.000 A 
ENDROOT
BRANCH   5  12
ATOM     12  C   UNL     1     -34.541 -60.991  45.354  0.00  0.00    +0.000 A 
ATOM     13  C   UNL     1     -35.087 -61.396  46.576  0.00  0.00    +0.000 A 
ATOM     14  C   UNL     1     -33.826 -59.788  45.287  0.00  0.00    +0.000 A 
ATOM     15  C   UNL     1     -34.935 -60.593  47.699  0.00  0.00    +0.000 A 
ATOM     16  C   UNL     1     -33.661 -58.993  46.420  0.00  0.00    +0.000 A 
ATOM     17  C   UNL     1     -34.205 -59.412  47.626  0.00  0.00    +0.000 A 
BRANCH  15  18
ATOM     18  O   UNL     1     -35.546 -60.967  48.860  0.00  0.00    +0.000 OA
ATOM     19  H   UNL     1     -36.469 -61.189  48.639  0.00  0.00    +0.000 HD
ENDBRANCH  15  18
BRANCH  17  20
ATOM     20  O   UNL     1     -33.994 -58.661  48.746  0.00  0.00    +0.000 OA
ATOM     21  H   UNL     1     -33.107 -58.897  49.076  0.00  0.00    +0.000 HD
ENDBRANCH  17  20
ENDBRANCH   5  12
BRANCH   6  22
ATOM     22  O   UNL     1     -33.042 -63.504  44.885  0.00  0.00    +0.000 OA
ATOM     23  H   UNL     1     -33.395 -63.433  45.786  0.00  0.00    +0.000 HD
ENDBRANCH   6  22
BRANCH   8  24
ATOM     24  O   UNL     1     -34.739 -64.973  40.138  0.00  0.00    +0.000 OA
ATOM     25  H   UNL     1     -34.088 -65.223  40.834  0.00  0.00    +0.000 HD
ENDBRANCH   8  24
BRANCH  10  26
ATOM     26  O   UNL     1     -37.859 -61.545  39.126  0.00  0.00    +0.000 OA
ATOM     27  H   UNL     1     -38.529 -62.220  38.918  0.00  0.00    +0.000 HD
ENDBRANCH  10  26
TORSDOF 6
ENDMDL
MODEL 9
REMARK VINA RESULT:      -5.8     21.994     23.036
REMARK  Name = Quercetin.pdbqt.pdb
REMARK  6 active torsions:
REMARK  status: ('A' for Active; 'I' for Inactive)
REMARK    1  A    between atoms: C_5  and  C_12
REMARK    2  A    between atoms: C_6  and  O_22
REMARK    3  A    between atoms: C_8  and  O_24
REMARK    4  A    between atoms: C_10  and  O_26
REMARK    5  A    between atoms: C_15  and  O_18
REMARK    6  A    between atoms: C_17  and  O_20
REMARK                            x       y       z     vdW  Elec       q    Type
REMARK                         _______ _______ _______ _____ _____    ______ ____
ROOT
ATOM      1  O   UNL     1     -36.287 -42.293  50.093  0.00  0.00    +0.000 OA
ATOM      2  O   UNL     1     -35.978 -45.849  52.037  0.00  0.00    +0.000 OA
ATOM      3  C   UNL     1     -35.228 -43.655  51.797  0.00  0.00    +0.000 A 
ATOM      4  C   UNL     1     -35.373 -42.463  51.097  0.00  0.00    +0.000 A 
ATOM      5  C   UNL     1     -37.124 -43.349  49.762  0.00  0.00    +0.000 A 
ATOM      6  C   UNL     1     -37.086 -44.566  50.347  0.00  0.00    +0.000 A 
ATOM      7  C   UNL     1     -36.095 -44.782  51.439  0.00  0.00    +0.000 A 
ATOM      8  C   UNL     1     -34.270 -43.758  52.813  0.00  0.00    +0.000 A 
ATOM      9  C   UNL     1     -34.566 -41.369  51.405  0.00  0.00    +0.000 A 
ATOM     10  C   UNL     1     -33.618 -41.481  52.416  0.00  0.00    +0.000 A 
ATOM     11  C   UNL     1     -33.462 -42.668  53.124  0.00  0.00    +0.000 A 
ENDROOT
BRANCH   5  12
ATOM     12  C   UNL     1     -38.059 -42.996  48.685  0.00  0.00    +0.000 A 
ATOM     13  C   UNL     1     -37.740 -43.243  47.346  0.00  0.00    +0.000 A 
ATOM     14  C   UNL     1     -39.313 -42.459  49.004  0.00  0.00    +0.000 A 
ATOM     15  C   UNL     1     -38.658 -42.934  46.350  0.00  0.00    +0.000 A 
ATOM     16  C   UNL     1     -40.238 -42.165  48.004  0.00  0.00    +0.000 A 
ATOM     17  C   UNL     1     -39.908 -42.422  46.680  0.00  0.00    +0.000 A 
BRANCH  15  18
ATOM     18  O   UNL     1     -38.296 -43.107  45.047  0.00  0.00    +0.000 OA
ATOM     19  H   UNL     1     -38.659 -43.966  44.761  0.00  0.00    +0.000 HD
ENDBRANCH  15  18
BRANCH  17  20
ATOM     20  O   UNL     1     -40.836 -42.186  45.708  0.00  0.00    +0.000 OA
ATOM     21  H   UNL     1     -41.294 -41.361  45.954  0.00  0.00    +0.000 HD
ENDBRANCH  17  20
ENDBRANCH   5  12
BRANCH   6  22
ATOM     22  O   UNL     1     -37.883 -45.642  50.006  0.00  0.00    +0.000 OA
ATOM     23  H   UNL     1     -38.221 -45.536  49.103  0.00  0.00    +0.000 HD
ENDBRANCH   6  22
BRANCH   8  24
ATOM     24  O   UNL     1     -34.071 -44.900  53.540  0.00  0.00    +0.000 OA
ATOM     25  H   UNL     1     -33.304 -44.753  54.143  0.00  0.00    +0.000 HD
ENDBRANCH   8  24
BRANCH  10  26
ATOM     26  O   UNL     1     -32.840 -40.396  52.699  0.00  0.00    +0.000 OA
ATOM     27  H   UNL     1     -33.422 -39.679  53.011  0.00  0.00    +0.000 HD
ENDBRANCH  10  26
TORSDOF 6
ENDMDL
