MODEL 1
REMARK VINA RESULT:      -8.4      0.000      0.000
REMARK  Name = 
REMARK  11 active torsions:
REMARK  status: ('A' for Active; 'I' for Inactive)
REMARK    1  A    between atoms: O_2  and  C_16
REMARK    2  A    between atoms: O_2  and  C_18
REMARK    3  A    between atoms: O_3  and  C_12
REMARK    4  A    between atoms: O_4  and  C_13
REMARK    5  A    between atoms: O_5  and  C_14
REMARK    6  A    between atoms: O_8  and  C_24
REMARK    7  A    between atoms: O_9  and  C_29
REMARK    8  A    between atoms: O_10  and  C_30
REMARK    9  A    between atoms: O_11  and  C_32
REMARK   10  A    between atoms: C_15  and  C_17
REMARK   11  A    between atoms: C_19  and  C_23
REMARK                            x       y       z     vdW  Elec       q    Type
REMARK                         _______ _______ _______ _____ _____    ______ ____
ROOT
ATOM      1  O   UNL     1     -61.484 -64.797  39.513  0.00  0.00    +0.000 OA
ATOM      2  O   UNL     1     -63.742 -65.264  42.853  0.00  0.00    +0.000 OA
ATOM      3  C   UNL     1     -63.515 -65.621  40.529  0.00  0.00    +0.000 A 
ATOM      4  C   UNL     1     -62.662 -65.521  39.491  0.00  0.00    +0.000 A 
ATOM      5  C   UNL     1     -63.117 -65.009  41.830  0.00  0.00    +0.000 A 
ATOM      6  C   UNL     1     -61.929 -64.126  41.812  0.00  0.00    +0.000 A 
ATOM      7  C   UNL     1     -61.171 -64.084  40.641  0.00  0.00    +0.000 A 
ATOM      8  C   UNL     1     -61.528 -63.350  42.909  0.00  0.00    +0.000 A 
ATOM      9  C   UNL     1     -60.023 -63.292  40.564  0.00  0.00    +0.000 A 
ATOM     10  C   UNL     1     -60.381 -62.553  42.837  0.00  0.00    +0.000 A 
ATOM     11  C   UNL     1     -59.638 -62.534  41.661  0.00  0.00    +0.000 A 
ENDROOT
BRANCH   4  12
ATOM     12  C   UNL     1     -62.914 -66.161  38.183  0.00  0.00    +0.000 A 
ATOM     13  C   UNL     1     -62.412 -67.450  37.932  0.00  0.00    +0.000 A 
ATOM     14  C   UNL     1     -63.656 -65.508  37.182  0.00  0.00    +0.000 A 
ATOM     15  C   UNL     1     -62.632 -68.046  36.696  0.00  0.00    +0.000 A 
ATOM     16  C   UNL     1     -63.868 -66.113  35.941  0.00  0.00    +0.000 A 
ATOM     17  C   UNL     1     -63.349 -67.377  35.709  0.00  0.00    +0.000 A 
BRANCH  15  18
ATOM     18  O   UNL     1     -62.156 -69.294  36.399  0.00  0.00    +0.000 OA
ATOM     19  H   UNL     1     -61.200 -69.310  36.580  0.00  0.00    +0.000 HD
ENDBRANCH  15  18
BRANCH  17  20
ATOM     20  O   UNL     1     -63.553 -67.966  34.495  0.00  0.00    +0.000 OA
ATOM     21  H   UNL     1     -64.081 -67.317  33.987  0.00  0.00    +0.000 HD
ENDBRANCH  17  20
ENDBRANCH   4  12
BRANCH   8  22
ATOM     22  O   UNL     1     -62.260 -63.341  44.062  0.00  0.00    +0.000 OA
ATOM     23  H   UNL     1     -63.182 -63.094  43.890  0.00  0.00    +0.000 HD
ENDBRANCH   8  22
BRANCH  11  24
ATOM     24  O   UNL     1     -58.513 -61.775  41.539  0.00  0.00    +0.000 OA
ATOM     25  H   UNL     1     -58.735 -60.840  41.681  0.00  0.00    +0.000 HD
ENDBRANCH  11  24
BRANCH   3  26
ATOM     26  O   UNL     1     -64.695 -66.349  40.493  0.00  0.00    +0.000 OA
BRANCH  26  32
ATOM     27  O   UNL     1     -65.502 -68.488  39.780  0.00  0.00    +0.000 OA
ATOM     28  C   UNL     1     -65.418 -68.373  42.660  0.00  0.00    +0.000 C 
ATOM     29  C   UNL     1     -66.515 -69.137  41.911  0.00  0.00    +0.000 C 
ATOM     30  C   UNL     1     -64.138 -68.297  41.827  0.00  0.00    +0.000 C 
ATOM     31  C   UNL     1     -66.725 -68.500  40.533  0.00  0.00    +0.000 C 
ATOM     32  C   UNL     1     -64.446 -67.760  40.411  0.00  0.00    +0.000 C 
ATOM     33  C   UNL     1     -67.757 -69.264  39.711  0.00  0.00    +0.000 C 
BRANCH  28  34
ATOM     34  O   UNL     1     -65.156 -69.051  43.903  0.00  0.00    +0.000 OA
ATOM     35  H   UNL     1     -65.163 -70.005  43.675  0.00  0.00    +0.000 HD
ENDBRANCH  28  34
BRANCH  29  36
ATOM     36  O   UNL     1     -67.714 -69.114  42.692  0.00  0.00    +0.000 OA
ATOM     37  H   UNL     1     -67.856 -68.174  42.922  0.00  0.00    +0.000 HD
ENDBRANCH  29  36
BRANCH  30  38
ATOM     38  O   UNL     1     -63.565 -69.622  41.793  0.00  0.00    +0.000 OA
ATOM     39  H   UNL     1     -62.784 -69.616  42.377  0.00  0.00    +0.000 HD
ENDBRANCH  30  38
ENDBRANCH  26  32
ENDBRANCH   3  26
TORSDOF 10
ENDMDL
MODEL 2
REMARK VINA RESULT:      -8.1     35.615     38.823
REMARK  Name = 
REMARK  11 active torsions:
REMARK  status: ('A' for Active; 'I' for Inactive)
REMARK    1  A    between atoms: O_2  and  C_16
REMARK    2  A    between atoms: O_2  and  C_18
REMARK    3  A    between atoms: O_3  and  C_12
REMARK    4  A    between atoms: O_4  and  C_13
REMARK    5  A    between atoms: O_5  and  C_14
REMARK    6  A    between atoms: O_8  and  C_24
REMARK    7  A    between atoms: O_9  and  C_29
REMARK    8  A    between atoms: O_10  and  C_30
REMARK    9  A    between atoms: O_11  and  C_32
REMARK   10  A    between atoms: C_15  and  C_17
REMARK   11  A    between atoms: C_19  and  C_23
REMARK                            x       y       z     vdW  Elec       q    Type
REMARK                         _______ _______ _______ _____ _____    ______ ____
ROOT
ATOM      1  O   UNL     1     -34.542 -47.951  52.188  0.00  0.00    +0.000 OA
ATOM      2  O   UNL     1     -30.940 -46.561  53.439  0.00  0.00    +0.000 OA
ATOM      3  C   UNL     1     -32.960 -46.128  52.294  0.00  0.00    +0.000 A 
ATOM      4  C   UNL     1     -34.178 -46.629  52.008  0.00  0.00    +0.000 A 
ATOM      5  C   UNL     1     -31.967 -47.023  52.956  0.00  0.00    +0.000 A 
ATOM      6  C   UNL     1     -32.311 -48.461  53.021  0.00  0.00    +0.000 A 
ATOM      7  C   UNL     1     -33.599 -48.837  52.638  0.00  0.00    +0.000 A 
ATOM      8  C   UNL     1     -31.417 -49.448  53.459  0.00  0.00    +0.000 A 
ATOM      9  C   UNL     1     -33.998 -50.174  52.700  0.00  0.00    +0.000 A 
ATOM     10  C   UNL     1     -31.809 -50.790  53.520  0.00  0.00    +0.000 A 
ATOM     11  C   UNL     1     -33.101 -51.138  53.140  0.00  0.00    +0.000 A 
ENDROOT
BRANCH   4  12
ATOM     12  C   UNL     1     -35.266 -45.811  51.432  0.00  0.00    +0.000 A 
ATOM     13  C   UNL     1     -35.165 -45.355  50.107  0.00  0.00    +0.000 A 
ATOM     14  C   UNL     1     -36.409 -45.483  52.184  0.00  0.00    +0.000 A 
ATOM     15  C   UNL     1     -36.178 -44.568  49.569  0.00  0.00    +0.000 A 
ATOM     16  C   UNL     1     -37.419 -44.689  51.637  0.00  0.00    +0.000 A 
ATOM     17  C   UNL     1     -37.291 -44.236  50.335  0.00  0.00    +0.000 A 
BRANCH  15  18
ATOM     18  O   UNL     1     -36.122 -44.092  48.288  0.00  0.00    +0.000 OA
ATOM     19  H   UNL     1     -36.724 -43.331  48.216  0.00  0.00    +0.000 HD
ENDBRANCH  15  18
BRANCH  17  20
ATOM     20  O   UNL     1     -38.277 -43.456  49.802  0.00  0.00    +0.000 OA
ATOM     21  H   UNL     1     -39.093 -43.735  50.264  0.00  0.00    +0.000 HD
ENDBRANCH  17  20
ENDBRANCH   4  12
BRANCH   8  22
ATOM     22  O   UNL     1     -30.139 -49.125  53.814  0.00  0.00    +0.000 OA
ATOM     23  H   UNL     1     -30.011 -49.201  54.773  0.00  0.00    +0.000 HD
ENDBRANCH   8  22
BRANCH  11  24
ATOM     24  O   UNL     1     -33.534 -52.430  53.181  0.00  0.00    +0.000 OA
ATOM     25  H   UNL     1     -33.411 -52.841  52.309  0.00  0.00    +0.000 HD
ENDBRANCH  11  24
BRANCH   3  26
ATOM     26  O   UNL     1     -32.608 -44.800  52.107  0.00  0.00    +0.000 OA
BRANCH  26  32
ATOM     27  O   UNL     1     -33.454 -42.584  52.444  0.00  0.00    +0.000 OA
ATOM     28  C   UNL     1     -31.494 -43.212  54.464  0.00  0.00    +0.000 C 
ATOM     29  C   UNL     1     -31.638 -41.800  53.886  0.00  0.00    +0.000 C 
ATOM     30  C   UNL     1     -32.816 -43.976  54.379  0.00  0.00    +0.000 C 
ATOM     31  C   UNL     1     -32.195 -41.892  52.461  0.00  0.00    +0.000 C 
ATOM     32  C   UNL     1     -33.380 -43.923  52.941  0.00  0.00    +0.000 C 
ATOM     33  C   UNL     1     -32.429 -40.511  51.858  0.00  0.00    +0.000 C 
BRANCH  28  34
ATOM     34  O   UNL     1     -31.076 -43.102  55.838  0.00  0.00    +0.000 OA
ATOM     35  H   UNL     1     -30.201 -42.662  55.799  0.00  0.00    +0.000 HD
ENDBRANCH  28  34
BRANCH  29  36
ATOM     36  O   UNL     1     -30.362 -41.154  53.912  0.00  0.00    +0.000 OA
ATOM     37  H   UNL     1     -29.708 -41.873  54.022  0.00  0.00    +0.000 HD
ENDBRANCH  29  36
BRANCH  30  38
ATOM     38  O   UNL     1     -33.719 -43.385  55.339  0.00  0.00    +0.000 OA
ATOM     39  H   UNL     1     -34.417 -42.926  54.837  0.00  0.00    +0.000 HD
ENDBRANCH  30  38
ENDBRANCH  26  32
ENDBRANCH   3  26
TORSDOF 10
ENDMDL
MODEL 3
REMARK VINA RESULT:      -7.7     36.118     37.755
REMARK  Name = 
REMARK  11 active torsions:
REMARK  status: ('A' for Active; 'I' for Inactive)
REMARK    1  A    between atoms: O_2  and  C_16
REMARK    2  A    between atoms: O_2  and  C_18
REMARK    3  A    between atoms: O_3  and  C_12
REMARK    4  A    between atoms: O_4  and  C_13
REMARK    5  A    between atoms: O_5  and  C_14
REMARK    6  A    between atoms: O_8  and  C_24
REMARK    7  A    between atoms: O_9  and  C_29
REMARK    8  A    between atoms: O_10  and  C_30
REMARK    9  A    between atoms: O_11  and  C_32
REMARK   10  A    between atoms: C_15  and  C_17
REMARK   11  A    between atoms: C_19  and  C_23
REMARK                            x       y       z     vdW  Elec       q    Type
REMARK                         _______ _______ _______ _____ _____    ______ ____
ROOT
ATOM      1  O   UNL     1     -33.193 -50.402  53.798  0.00  0.00    +0.000 OA
ATOM      2  O   UNL     1     -30.985 -50.331  50.394  0.00  0.00    +0.000 OA
ATOM      3  C   UNL     1     -31.249 -51.170  52.586  0.00  0.00    +0.000 A 
ATOM      4  C   UNL     1     -32.091 -51.221  53.638  0.00  0.00    +0.000 A 
ATOM      5  C   UNL     1     -31.584 -50.250  51.460  0.00  0.00    +0.000 A 
ATOM      6  C   UNL     1     -32.681 -49.284  51.696  0.00  0.00    +0.000 A 
ATOM      7  C   UNL     1     -33.433 -49.431  52.862  0.00  0.00    +0.000 A 
ATOM      8  C   UNL     1     -33.003 -48.251  50.805  0.00  0.00    +0.000 A 
ATOM      9  C   UNL     1     -34.499 -48.570  53.134  0.00  0.00    +0.000 A 
ATOM     10  C   UNL     1     -34.067 -47.384  51.073  0.00  0.00    +0.000 A 
ATOM     11  C   UNL     1     -34.808 -47.555  52.238  0.00  0.00    +0.000 A 
ENDROOT
BRANCH   4  12
ATOM     12  C   UNL     1     -31.905 -52.156  54.767  0.00  0.00    +0.000 A 
ATOM     13  C   UNL     1     -32.678 -53.328  54.834  0.00  0.00    +0.000 A 
ATOM     14  C   UNL     1     -30.960 -51.900  55.778  0.00  0.00    +0.000 A 
ATOM     15  C   UNL     1     -32.518 -54.199  55.906  0.00  0.00    +0.000 A 
ATOM     16  C   UNL     1     -30.809 -52.778  56.853  0.00  0.00    +0.000 A 
ATOM     17  C   UNL     1     -31.594 -53.919  56.908  0.00  0.00    +0.000 A 
BRANCH  15  18
ATOM     18  O   UNL     1     -33.252 -55.347  56.021  0.00  0.00    +0.000 OA
ATOM     19  H   UNL     1     -33.935 -55.347  55.328  0.00  0.00    +0.000 HD
ENDBRANCH  15  18
BRANCH  17  20
ATOM     20  O   UNL     1     -31.449 -54.775  57.961  0.00  0.00    +0.000 OA
ATOM     21  H   UNL     1     -30.513 -54.682  58.233  0.00  0.00    +0.000 HD
ENDBRANCH  17  20
ENDBRANCH   4  12
BRANCH   8  22
ATOM     22  O   UNL     1     -32.272 -48.056  49.668  0.00  0.00    +0.000 OA
ATOM     23  H   UNL     1     -31.400 -47.683  49.872  0.00  0.00    +0.000 HD
ENDBRANCH   8  22
BRANCH  11  24
ATOM     24  O   UNL     1     -35.854 -46.739  52.546  0.00  0.00    +0.000 OA
ATOM     25  H   UNL     1     -36.482 -46.723  51.805  0.00  0.00    +0.000 HD
ENDBRANCH  11  24
BRANCH   3  26
ATOM     26  O   UNL     1     -30.146 -51.996  52.438  0.00  0.00    +0.000 OA
BRANCH  26  32
ATOM     27  O   UNL     1     -30.006 -54.332  52.949  0.00  0.00    +0.000 OA
ATOM     28  C   UNL     1     -28.610 -53.772  50.488  0.00  0.00    +0.000 C 
ATOM     29  C   UNL     1     -28.116 -54.834  51.477  0.00  0.00    +0.000 C 
ATOM     30  C   UNL     1     -30.123 -53.580  50.601  0.00  0.00    +0.000 C 
ATOM     31  C   UNL     1     -28.576 -54.462  52.891  0.00  0.00    +0.000 C 
ATOM     32  C   UNL     1     -30.528 -53.330  52.071  0.00  0.00    +0.000 C 
ATOM     33  C   UNL     1     -28.176 -55.523  53.910  0.00  0.00    +0.000 C 
BRANCH  28  34
ATOM     34  O   UNL     1     -28.265 -54.194  49.155  0.00  0.00    +0.000 OA
ATOM     35  H   UNL     1     -28.168 -55.167  49.218  0.00  0.00    +0.000 HD
ENDBRANCH  28  34
BRANCH  29  36
ATOM     36  O   UNL     1     -26.690 -54.922  51.392  0.00  0.00    +0.000 OA
ATOM     37  H   UNL     1     -26.397 -55.245  52.267  0.00  0.00    +0.000 HD
ENDBRANCH  29  36
BRANCH  30  38
ATOM     38  O   UNL     1     -30.750 -54.762  50.059  0.00  0.00    +0.000 OA
ATOM     39  H   UNL     1     -31.612 -54.492  49.694  0.00  0.00    +0.000 HD
ENDBRANCH  30  38
ENDBRANCH  26  32
ENDBRANCH   3  26
TORSDOF 10
ENDMDL
MODEL 4
REMARK VINA RESULT:      -7.7      3.468      6.356
REMARK  Name = 
REMARK  11 active torsions:
REMARK  status: ('A' for Active; 'I' for Inactive)
REMARK    1  A    between atoms: O_2  and  C_16
REMARK    2  A    between atoms: O_2  and  C_18
REMARK    3  A    between atoms: O_3  and  C_12
REMARK    4  A    between atoms: O_4  and  C_13
REMARK    5  A    between atoms: O_5  and  C_14
REMARK    6  A    between atoms: O_8  and  C_24
REMARK    7  A    between atoms: O_9  and  C_29
REMARK    8  A    between atoms: O_10  and  C_30
REMARK    9  A    between atoms: O_11  and  C_32
REMARK   10  A    between atoms: C_15  and  C_17
REMARK   11  A    between atoms: C_19  and  C_23
REMARK                            x       y       z     vdW  Elec       q    Type
REMARK                         _______ _______ _______ _____ _____    ______ ____
ROOT
ATOM      1  O   UNL     1     -61.322 -70.491  41.590  0.00  0.00    +0.000 OA
ATOM      2  O   UNL     1     -59.836 -66.740  41.154  0.00  0.00    +0.000 OA
ATOM      3  C   UNL     1     -61.739 -68.135  41.257  0.00  0.00    +0.000 A 
ATOM      4  C   UNL     1     -62.156 -69.390  41.514  0.00  0.00    +0.000 A 
ATOM      5  C   UNL     1     -60.272 -67.885  41.158  0.00  0.00    +0.000 A 
ATOM      6  C   UNL     1     -59.398 -69.079  41.104  0.00  0.00    +0.000 A 
ATOM      7  C   UNL     1     -59.986 -70.323  41.338  0.00  0.00    +0.000 A 
ATOM      8  C   UNL     1     -58.021 -69.015  40.846  0.00  0.00    +0.000 A 
ATOM      9  C   UNL     1     -59.215 -71.487  41.328  0.00  0.00    +0.000 A 
ATOM     10  C   UNL     1     -57.244 -70.179  40.831  0.00  0.00    +0.000 A 
ATOM     11  C   UNL     1     -57.853 -71.406  41.075  0.00  0.00    +0.000 A 
ENDROOT
BRANCH   4  12
ATOM     12  C   UNL     1     -63.578 -69.736  41.717  0.00  0.00    +0.000 A 
ATOM     13  C   UNL     1     -64.323 -70.267  40.650  0.00  0.00    +0.000 A 
ATOM     14  C   UNL     1     -64.203 -69.551  42.964  0.00  0.00    +0.000 A 
ATOM     15  C   UNL     1     -65.667 -70.575  40.833  0.00  0.00    +0.000 A 
ATOM     16  C   UNL     1     -65.555 -69.860  43.137  0.00  0.00    +0.000 A 
ATOM     17  C   UNL     1     -66.275 -70.365  42.067  0.00  0.00    +0.000 A 
BRANCH  15  18
ATOM     18  O   UNL     1     -66.437 -71.084  39.824  0.00  0.00    +0.000 OA
ATOM     19  H   UNL     1     -66.654 -72.008  40.039  0.00  0.00    +0.000 HD
ENDBRANCH  15  18
BRANCH  17  20
ATOM     20  O   UNL     1     -67.596 -70.662  42.236  0.00  0.00    +0.000 OA
ATOM     21  H   UNL     1     -67.843 -71.170  41.436  0.00  0.00    +0.000 HD
ENDBRANCH  17  20
ENDBRANCH   4  12
BRANCH   8  22
ATOM     22  O   UNL     1     -57.415 -67.821  40.583  0.00  0.00    +0.000 OA
ATOM     23  H   UNL     1     -58.048 -67.176  40.231  0.00  0.00    +0.000 HD
ENDBRANCH   8  22
BRANCH  11  24
ATOM     24  O   UNL     1     -57.142 -72.568  41.073  0.00  0.00    +0.000 OA
ATOM     25  H   UNL     1     -57.751 -73.322  41.007  0.00  0.00    +0.000 HD
ENDBRANCH  11  24
BRANCH   3  26
ATOM     26  O   UNL     1     -62.586 -67.039  41.181  0.00  0.00    +0.000 OA
BRANCH  26  32
ATOM     27  O   UNL     1     -62.260 -65.581  39.310  0.00  0.00    +0.000 OA
ATOM     28  C   UNL     1     -64.934 -65.278  40.345  0.00  0.00    +0.000 C 
ATOM     29  C   UNL     1     -64.148 -64.093  39.773  0.00  0.00    +0.000 C 
ATOM     30  C   UNL     1     -64.472 -66.595  39.721  0.00  0.00    +0.000 C 
ATOM     31  C   UNL     1     -62.647 -64.353  39.946  0.00  0.00    +0.000 C 
ATOM     32  C   UNL     1     -62.936 -66.732  39.824  0.00  0.00    +0.000 C 
ATOM     33  C   UNL     1     -61.809 -63.239  39.328  0.00  0.00    +0.000 C 
BRANCH  28  34
ATOM     34  O   UNL     1     -66.334 -65.069  40.075  0.00  0.00    +0.000 OA
ATOM     35  H   UNL     1     -66.791 -65.343  40.898  0.00  0.00    +0.000 HD
ENDBRANCH  28  34
BRANCH  29  36
ATOM     36  O   UNL     1     -64.557 -62.896  40.441  0.00  0.00    +0.000 OA
ATOM     37  H   UNL     1     -63.918 -62.775  41.172  0.00  0.00    +0.000 HD
ENDBRANCH  29  36
BRANCH  30  38
ATOM     38  O   UNL     1     -64.929 -66.608  38.351  0.00  0.00    +0.000 OA
ATOM     39  H   UNL     1     -64.952 -67.538  38.062  0.00  0.00    +0.000 HD
ENDBRANCH  30  38
ENDBRANCH  26  32
ENDBRANCH   3  26
TORSDOF 10
ENDMDL
MODEL 5
REMARK VINA RESULT:      -7.6     16.059     18.097
REMARK  Name = 
REMARK  11 active torsions:
REMARK  status: ('A' for Active; 'I' for Inactive)
REMARK    1  A    between atoms: O_2  and  C_16
REMARK    2  A    between atoms: O_2  and  C_18
REMARK    3  A    between atoms: O_3  and  C_12
REMARK    4  A    between atoms: O_4  and  C_13
REMARK    5  A    between atoms: O_5  and  C_14
REMARK    6  A    between atoms: O_8  and  C_24
REMARK    7  A    between atoms: O_9  and  C_29
REMARK    8  A    between atoms: O_10  and  C_30
REMARK    9  A    between atoms: O_11  and  C_32
REMARK   10  A    between atoms: C_15  and  C_17
REMARK   11  A    between atoms: C_19  and  C_23
REMARK                            x       y       z     vdW  Elec       q    Type
REMARK                         _______ _______ _______ _____ _____    ______ ____
ROOT
ATOM      1  O   UNL     1     -46.955 -61.845  40.651  0.00  0.00    +0.000 OA
ATOM      2  O   UNL     1     -44.172 -64.497  41.948  0.00  0.00    +0.000 OA
ATOM      3  C   UNL     1     -45.550 -63.753  40.181  0.00  0.00    +0.000 A 
ATOM      4  C   UNL     1     -46.391 -62.773  39.795  0.00  0.00    +0.000 A 
ATOM      5  C   UNL     1     -45.101 -63.777  41.603  0.00  0.00    +0.000 A 
ATOM      6  C   UNL     1     -45.808 -62.872  42.538  0.00  0.00    +0.000 A 
ATOM      7  C   UNL     1     -46.695 -61.943  41.992  0.00  0.00    +0.000 A 
ATOM      8  C   UNL     1     -45.618 -62.897  43.926  0.00  0.00    +0.000 A 
ATOM      9  C   UNL     1     -47.375 -61.041  42.814  0.00  0.00    +0.000 A 
ATOM     10  C   UNL     1     -46.299 -61.999  44.755  0.00  0.00    +0.000 A 
ATOM     11  C   UNL     1     -47.172 -61.076  44.187  0.00  0.00    +0.000 A 
ENDROOT
BRANCH   4  12
ATOM     12  C   UNL     1     -46.833 -62.602  38.395  0.00  0.00    +0.000 A 
ATOM     13  C   UNL     1     -48.085 -62.021  38.127  0.00  0.00    +0.000 A 
ATOM     14  C   UNL     1     -46.020 -63.003  37.320  0.00  0.00    +0.000 A 
ATOM     15  C   UNL     1     -48.510 -61.876  36.812  0.00  0.00    +0.000 A 
ATOM     16  C   UNL     1     -46.457 -62.858  36.001  0.00  0.00    +0.000 A 
ATOM     17  C   UNL     1     -47.702 -62.299  35.761  0.00  0.00    +0.000 A 
BRANCH  15  18
ATOM     18  O   UNL     1     -49.723 -61.327  36.499  0.00  0.00    +0.000 OA
ATOM     19  H   UNL     1     -50.027 -60.800  37.259  0.00  0.00    +0.000 HD
ENDBRANCH  15  18
BRANCH  17  20
ATOM     20  O   UNL     1     -48.131 -62.162  34.472  0.00  0.00    +0.000 OA
ATOM     21  H   UNL     1     -47.580 -61.443  34.100  0.00  0.00    +0.000 HD
ENDBRANCH  17  20
ENDBRANCH   4  12
BRANCH   8  22
ATOM     22  O   UNL     1     -44.782 -63.811  44.501  0.00  0.00    +0.000 OA
ATOM     23  H   UNL     1     -44.855 -64.674  44.065  0.00  0.00    +0.000 HD
ENDBRANCH   8  22
BRANCH  11  24
ATOM     24  O   UNL     1     -47.859 -60.180  44.949  0.00  0.00    +0.000 OA
ATOM     25  H   UNL     1     -47.615 -60.293  45.882  0.00  0.00    +0.000 HD
ENDBRANCH  11  24
BRANCH   3  26
ATOM     26  O   UNL     1     -44.993 -64.679  39.313  0.00  0.00    +0.000 OA
BRANCH  26  32
ATOM     27  O   UNL     1     -44.888 -66.873  40.267  0.00  0.00    +0.000 OA
ATOM     28  C   UNL     1     -44.547 -67.022  37.408  0.00  0.00    +0.000 C 
ATOM     29  C   UNL     1     -43.805 -67.964  38.363  0.00  0.00    +0.000 C 
ATOM     30  C   UNL     1     -45.862 -66.542  38.025  0.00  0.00    +0.000 C 
ATOM     31  C   UNL     1     -43.622 -67.269  39.717  0.00  0.00    +0.000 C 
ATOM     32  C   UNL     1     -45.617 -65.965  39.437  0.00  0.00    +0.000 C 
ATOM     33  C   UNL     1     -42.952 -68.186  40.734  0.00  0.00    +0.000 C 
BRANCH  28  34
ATOM     34  O   UNL     1     -44.808 -67.730  36.181  0.00  0.00    +0.000 OA
ATOM     35  H   UNL     1     -45.505 -67.206  35.733  0.00  0.00    +0.000 HD
ENDBRANCH  28  34
BRANCH  29  36
ATOM     36  O   UNL     1     -42.548 -68.322  37.780  0.00  0.00    +0.000 OA
ATOM     37  H   UNL     1     -42.518 -67.857  36.920  0.00  0.00    +0.000 HD
ENDBRANCH  29  36
BRANCH  30  38
ATOM     38  O   UNL     1     -46.765 -67.668  38.046  0.00  0.00    +0.000 OA
ATOM     39  H   UNL     1     -47.097 -67.792  37.137  0.00  0.00    +0.000 HD
ENDBRANCH  30  38
ENDBRANCH  26  32
ENDBRANCH   3  26
TORSDOF 10
ENDMDL
MODEL 6
REMARK VINA RESULT:      -7.5     34.307     38.529
REMARK  Name = 
REMARK  11 active torsions:
REMARK  status: ('A' for Active; 'I' for Inactive)
REMARK    1  A    between atoms: O_2  and  C_16
REMARK    2  A    between atoms: O_2  and  C_18
REMARK    3  A    between atoms: O_3  and  C_12
REMARK    4  A    between atoms: O_4  and  C_13
REMARK    5  A    between atoms: O_5  and  C_14
REMARK    6  A    between atoms: O_8  and  C_24
REMARK    7  A    between atoms: O_9  and  C_29
REMARK    8  A    between atoms: O_10  and  C_30
REMARK    9  A    between atoms: O_11  and  C_32
REMARK   10  A    between atoms: C_15  and  C_17
REMARK   11  A    between atoms: C_19  and  C_23
REMARK                            x       y       z     vdW  Elec       q    Type
REMARK                         _______ _______ _______ _____ _____    ______ ____
ROOT
ATOM      1  O   UNL     1     -36.376 -45.141  49.868  0.00  0.00    +0.000 OA
ATOM      2  O   UNL     1     -34.759 -41.445  50.304  0.00  0.00    +0.000 OA
ATOM      3  C   UNL     1     -34.803 -43.701  51.002  0.00  0.00    +0.000 A 
ATOM      4  C   UNL     1     -35.314 -44.916  50.724  0.00  0.00    +0.000 A 
ATOM      5  C   UNL     1     -35.337 -42.524  50.257  0.00  0.00    +0.000 A 
ATOM      6  C   UNL     1     -36.557 -42.749  49.448  0.00  0.00    +0.000 A 
ATOM      7  C   UNL     1     -36.999 -44.064  49.294  0.00  0.00    +0.000 A 
ATOM      8  C   UNL     1     -37.271 -41.715  48.827  0.00  0.00    +0.000 A 
ATOM      9  C   UNL     1     -38.128 -44.350  48.523  0.00  0.00    +0.000 A 
ATOM     10  C   UNL     1     -38.405 -41.995  48.056  0.00  0.00    +0.000 A 
ATOM     11  C   UNL     1     -38.820 -43.314  47.911  0.00  0.00    +0.000 A 
ENDROOT
BRANCH   4  12
ATOM     12  C   UNL     1     -34.803 -46.159  51.339  0.00  0.00    +0.000 A 
ATOM     13  C   UNL     1     -33.801 -46.897  50.684  0.00  0.00    +0.000 A 
ATOM     14  C   UNL     1     -35.295 -46.618  52.574  0.00  0.00    +0.000 A 
ATOM     15  C   UNL     1     -33.332 -48.076  51.251  0.00  0.00    +0.000 A 
ATOM     16  C   UNL     1     -34.821 -47.807  53.134  0.00  0.00    +0.000 A 
ATOM     17  C   UNL     1     -33.846 -48.527  52.464  0.00  0.00    +0.000 A 
BRANCH  15  18
ATOM     18  O   UNL     1     -32.365 -48.835  50.650  0.00  0.00    +0.000 OA
ATOM     19  H   UNL     1     -31.828 -49.255  51.344  0.00  0.00    +0.000 HD
ENDBRANCH  15  18
BRANCH  17  20
ATOM     20  O   UNL     1     -33.386 -49.691  53.009  0.00  0.00    +0.000 OA
ATOM     21  H   UNL     1     -34.160 -50.074  53.470  0.00  0.00    +0.000 HD
ENDBRANCH  17  20
ENDBRANCH   4  12
BRANCH   8  22
ATOM     22  O   UNL     1     -36.889 -40.413  48.978  0.00  0.00    +0.000 OA
ATOM     23  H   UNL     1     -36.223 -40.323  49.678  0.00  0.00    +0.000 HD
ENDBRANCH   8  22
BRANCH  11  24
ATOM     24  O   UNL     1     -39.917 -43.641  47.171  0.00  0.00    +0.000 OA
ATOM     25  H   UNL     1     -40.218 -44.532  47.413  0.00  0.00    +0.000 HD
ENDBRANCH  11  24
BRANCH   3  26
ATOM     26  O   UNL     1     -33.739 -43.489  51.865  0.00  0.00    +0.000 OA
BRANCH  26  32
ATOM     27  O   UNL     1     -34.099 -41.516  53.176  0.00  0.00    +0.000 OA
ATOM     28  C   UNL     1     -31.942 -43.068  54.296  0.00  0.00    +0.000 C 
ATOM     29  C   UNL     1     -31.936 -41.535  54.322  0.00  0.00    +0.000 C 
ATOM     30  C   UNL     1     -33.371 -43.610  54.260  0.00  0.00    +0.000 C 
ATOM     31  C   UNL     1     -32.756 -41.007  53.140  0.00  0.00    +0.000 C 
ATOM     32  C   UNL     1     -34.173 -42.944  53.120  0.00  0.00    +0.000 C 
ATOM     33  C   UNL     1     -32.848 -39.485  53.155  0.00  0.00    +0.000 C 
BRANCH  28  34
ATOM     34  O   UNL     1     -31.263 -43.547  55.472  0.00  0.00    +0.000 OA
ATOM     35  H   UNL     1     -30.492 -42.950  55.577  0.00  0.00    +0.000 HD
ENDBRANCH  28  34
BRANCH  29  36
ATOM     36  O   UNL     1     -30.583 -41.073  54.274  0.00  0.00    +0.000 OA
ATOM     37  H   UNL     1     -30.136 -41.645  53.618  0.00  0.00    +0.000 HD
ENDBRANCH  29  36
BRANCH  30  38
ATOM     38  O   UNL     1     -33.959 -43.363  55.555  0.00  0.00    +0.000 OA
ATOM     39  H   UNL     1     -34.114 -44.230  55.974  0.00  0.00    +0.000 HD
ENDBRANCH  30  38
ENDBRANCH  26  32
ENDBRANCH   3  26
TORSDOF 10
ENDMDL
MODEL 7
REMARK VINA RESULT:      -7.4      3.498      6.940
REMARK  Name = 
REMARK  11 active torsions:
REMARK  status: ('A' for Active; 'I' for Inactive)
REMARK    1  A    between atoms: O_2  and  C_16
REMARK    2  A    between atoms: O_2  and  C_18
REMARK    3  A    between atoms: O_3  and  C_12
REMARK    4  A    between atoms: O_4  and  C_13
REMARK    5  A    between atoms: O_5  and  C_14
REMARK    6  A    between atoms: O_8  and  C_24
REMARK    7  A    between atoms: O_9  and  C_29
REMARK    8  A    between atoms: O_10  and  C_30
REMARK    9  A    between atoms: O_11  and  C_32
REMARK   10  A    between atoms: C_15  and  C_17
REMARK   11  A    between atoms: C_19  and  C_23
REMARK                            x       y       z     vdW  Elec       q    Type
REMARK                         _______ _______ _______ _____ _____    ______ ____
ROOT
ATOM      1  O   UNL     1     -61.737 -69.825  41.787  0.00  0.00    +0.000 OA
ATOM      2  O   UNL     1     -58.412 -67.686  40.873  0.00  0.00    +0.000 OA
ATOM      3  C   UNL     1     -60.771 -67.785  40.926  0.00  0.00    +0.000 A 
ATOM      4  C   UNL     1     -61.820 -68.515  41.354  0.00  0.00    +0.000 A 
ATOM      5  C   UNL     1     -59.408 -68.382  41.031  0.00  0.00    +0.000 A 
ATOM      6  C   UNL     1     -59.339 -69.823  41.365  0.00  0.00    +0.000 A 
ATOM      7  C   UNL     1     -60.523 -70.459  41.738  0.00  0.00    +0.000 A 
ATOM      8  C   UNL     1     -58.149 -70.564  41.338  0.00  0.00    +0.000 A 
ATOM      9  C   UNL     1     -60.525 -71.810  42.091  0.00  0.00    +0.000 A 
ATOM     10  C   UNL     1     -58.144 -71.919  41.687  0.00  0.00    +0.000 A 
ATOM     11  C   UNL     1     -59.337 -72.528  42.063  0.00  0.00    +0.000 A 
ENDROOT
BRANCH   4  12
ATOM     12  C   UNL     1     -63.203 -67.993  41.376  0.00  0.00    +0.000 A 
ATOM     13  C   UNL     1     -63.846 -67.678  40.167  0.00  0.00    +0.000 A 
ATOM     14  C   UNL     1     -63.894 -67.810  42.588  0.00  0.00    +0.000 A 
ATOM     15  C   UNL     1     -65.140 -67.168  40.187  0.00  0.00    +0.000 A 
ATOM     16  C   UNL     1     -65.192 -67.293  42.598  0.00  0.00    +0.000 A 
ATOM     17  C   UNL     1     -65.801 -66.973  41.396  0.00  0.00    +0.000 A 
BRANCH  15  18
ATOM     18  O   UNL     1     -65.805 -66.838  39.039  0.00  0.00    +0.000 OA
ATOM     19  H   UNL     1     -65.794 -67.608  38.444  0.00  0.00    +0.000 HD
ENDBRANCH  15  18
BRANCH  17  20
ATOM     20  O   UNL     1     -67.067 -66.464  41.407  0.00  0.00    +0.000 OA
ATOM     21  H   UNL     1     -67.109 -65.917  42.217  0.00  0.00    +0.000 HD
ENDBRANCH  17  20
ENDBRANCH   4  12
BRANCH   8  22
ATOM     22  O   UNL     1     -56.975 -69.985  40.949  0.00  0.00    +0.000 OA
ATOM     23  H   UNL     1     -56.239 -70.270  41.515  0.00  0.00    +0.000 HD
ENDBRANCH   8  22
BRANCH  11  24
ATOM     24  O   UNL     1     -59.387 -73.844  42.412  0.00  0.00    +0.000 OA
ATOM     25  H   UNL     1     -59.970 -74.321  41.799  0.00  0.00    +0.000 HD
ENDBRANCH  11  24
BRANCH   3  26
ATOM     26  O   UNL     1     -60.869 -66.472  40.492  0.00  0.00    +0.000 OA
BRANCH  26  32
ATOM     27  O   UNL     1     -62.468 -64.969  41.450  0.00  0.00    +0.000 OA
ATOM     28  C   UNL     1     -60.149 -63.507  40.558  0.00  0.00    +0.000 C 
ATOM     29  C   UNL     1     -61.561 -62.919  40.466  0.00  0.00    +0.000 C 
ATOM     30  C   UNL     1     -60.053 -64.529  41.692  0.00  0.00    +0.000 C 
ATOM     31  C   UNL     1     -62.576 -64.061  40.342  0.00  0.00    +0.000 C 
ATOM     32  C   UNL     1     -61.180 -65.578  41.570  0.00  0.00    +0.000 C 
ATOM     33  C   UNL     1     -64.009 -63.541  40.320  0.00  0.00    +0.000 C 
BRANCH  28  34
ATOM     34  O   UNL     1     -59.220 -62.429  40.786  0.00  0.00    +0.000 OA
ATOM     35  H   UNL     1     -59.408 -61.783  40.073  0.00  0.00    +0.000 HD
ENDBRANCH  28  34
BRANCH  29  36
ATOM     36  O   UNL     1     -61.625 -62.032  39.345  0.00  0.00    +0.000 OA
ATOM     37  H   UNL     1     -60.695 -61.849  39.106  0.00  0.00    +0.000 HD
ENDBRANCH  29  36
BRANCH  30  38
ATOM     38  O   UNL     1     -60.120 -63.799  42.936  0.00  0.00    +0.000 OA
ATOM     39  H   UNL     1     -59.206 -63.585  43.197  0.00  0.00    +0.000 HD
ENDBRANCH  30  38
ENDBRANCH  26  32
ENDBRANCH   3  26
TORSDOF 10
ENDMDL
MODEL 8
REMARK VINA RESULT:      -7.4     36.381     38.008
REMARK  Name = 
REMARK  11 active torsions:
REMARK  status: ('A' for Active; 'I' for Inactive)
REMARK    1  A    between atoms: O_2  and  C_16
REMARK    2  A    between atoms: O_2  and  C_18
REMARK    3  A    between atoms: O_3  and  C_12
REMARK    4  A    between atoms: O_4  and  C_13
REMARK    5  A    between atoms: O_5  and  C_14
REMARK    6  A    between atoms: O_8  and  C_24
REMARK    7  A    between atoms: O_9  and  C_29
REMARK    8  A    between atoms: O_10  and  C_30
REMARK    9  A    between atoms: O_11  and  C_32
REMARK   10  A    between atoms: C_15  and  C_17
REMARK   11  A    between atoms: C_19  and  C_23
REMARK                            x       y       z     vdW  Elec       q    Type
REMARK                         _______ _______ _______ _____ _____    ______ ____
ROOT
ATOM      1  O   UNL     1     -32.997 -49.993  53.623  0.00  0.00    +0.000 OA
ATOM      2  O   UNL     1     -31.913 -50.485  49.744  0.00  0.00    +0.000 OA
ATOM      3  C   UNL     1     -31.675 -51.183  51.988  0.00  0.00    +0.000 A 
ATOM      4  C   UNL     1     -32.165 -51.026  53.234  0.00  0.00    +0.000 A 
ATOM      5  C   UNL     1     -32.146 -50.249  50.923  0.00  0.00    +0.000 A 
ATOM      6  C   UNL     1     -32.924 -49.071  51.370  0.00  0.00    +0.000 A 
ATOM      7  C   UNL     1     -33.314 -49.023  52.709  0.00  0.00    +0.000 A 
ATOM      8  C   UNL     1     -33.293 -48.022  50.516  0.00  0.00    +0.000 A 
ATOM      9  C   UNL     1     -34.072 -47.954  53.191  0.00  0.00    +0.000 A 
ATOM     10  C   UNL     1     -34.048 -46.946  50.994  0.00  0.00    +0.000 A 
ATOM     11  C   UNL     1     -34.432 -46.925  52.331  0.00  0.00    +0.000 A 
ENDROOT
BRANCH   4  12
ATOM     12  C   UNL     1     -31.835 -51.944  54.344  0.00  0.00    +0.000 A 
ATOM     13  C   UNL     1     -32.588 -53.117  54.523  0.00  0.00    +0.000 A 
ATOM     14  C   UNL     1     -30.774 -51.670  55.226  0.00  0.00    +0.000 A 
ATOM     15  C   UNL     1     -32.291 -53.972  55.579  0.00  0.00    +0.000 A 
ATOM     16  C   UNL     1     -30.486 -52.532  56.286  0.00  0.00    +0.000 A 
ATOM     17  C   UNL     1     -31.251 -53.674  56.455  0.00  0.00    +0.000 A 
BRANCH  15  18
ATOM     18  O   UNL     1     -32.999 -55.121  55.801  0.00  0.00    +0.000 OA
ATOM     19  H   UNL     1     -33.639 -55.233  55.077  0.00  0.00    +0.000 HD
ENDBRANCH  15  18
BRANCH  17  20
ATOM     20  O   UNL     1     -30.972 -54.514  57.493  0.00  0.00    +0.000 OA
ATOM     21  H   UNL     1     -30.214 -55.050  57.185  0.00  0.00    +0.000 HD
ENDBRANCH  17  20
ENDBRANCH   4  12
BRANCH   8  22
ATOM     22  O   UNL     1     -32.904 -48.018  49.207  0.00  0.00    +0.000 OA
ATOM     23  H   UNL     1     -33.563 -47.580  48.647  0.00  0.00    +0.000 HD
ENDBRANCH   8  22
BRANCH  11  24
ATOM     24  O   UNL     1     -35.169 -45.902  52.846  0.00  0.00    +0.000 OA
ATOM     25  H   UNL     1     -35.641 -46.208  53.638  0.00  0.00    +0.000 HD
ENDBRANCH  11  24
BRANCH   3  26
ATOM     26  O   UNL     1     -30.840 -52.223  51.610  0.00  0.00    +0.000 OA
BRANCH  26  32
ATOM     27  O   UNL     1     -28.858 -51.310  50.623  0.00  0.00    +0.000 OA
ATOM     28  C   UNL     1     -28.504 -54.127  51.126  0.00  0.00    +0.000 C 
ATOM     29  C   UNL     1     -27.889 -53.439  49.902  0.00  0.00    +0.000 C 
ATOM     30  C   UNL     1     -28.693 -53.135  52.275  0.00  0.00    +0.000 C 
ATOM     31  C   UNL     1     -28.745 -52.225  49.522  0.00  0.00    +0.000 C 
ATOM     32  C   UNL     1     -29.457 -51.883  51.789  0.00  0.00    +0.000 C 
ATOM     33  C   UNL     1     -28.141 -51.455  48.353  0.00  0.00    +0.000 C 
BRANCH  28  34
ATOM     34  O   UNL     1     -27.629 -55.195  51.536  0.00  0.00    +0.000 OA
ATOM     35  H   UNL     1     -26.998 -55.301  50.794  0.00  0.00    +0.000 HD
ENDBRANCH  28  34
BRANCH  29  36
ATOM     36  O   UNL     1     -27.806 -54.382  48.830  0.00  0.00    +0.000 OA
ATOM     37  H   UNL     1     -28.066 -53.887  48.028  0.00  0.00    +0.000 HD
ENDBRANCH  29  36
BRANCH  30  38
ATOM     38  O   UNL     1     -27.381 -52.808  52.783  0.00  0.00    +0.000 OA
ATOM     39  H   UNL     1     -27.501 -52.427  53.672  0.00  0.00    +0.000 HD
ENDBRANCH  30  38
ENDBRANCH  26  32
ENDBRANCH   3  26
TORSDOF 10
ENDMDL
MODEL 9
REMARK VINA RESULT:      -7.4     21.590     26.253
REMARK  Name = 
REMARK  11 active torsions:
REMARK  status: ('A' for Active; 'I' for Inactive)
REMARK    1  A    between atoms: O_2  and  C_16
REMARK    2  A    between atoms: O_2  and  C_18
REMARK    3  A    between atoms: O_3  and  C_12
REMARK    4  A    between atoms: O_4  and  C_13
REMARK    5  A    between atoms: O_5  and  C_14
REMARK    6  A    between atoms: O_8  and  C_24
REMARK    7  A    between atoms: O_9  and  C_29
REMARK    8  A    between atoms: O_10  and  C_30
REMARK    9  A    between atoms: O_11  and  C_32
REMARK   10  A    between atoms: C_15  and  C_17
REMARK   11  A    between atoms: C_19  and  C_23
REMARK                            x       y       z     vdW  Elec       q    Type
REMARK                         _______ _______ _______ _____ _____    ______ ____
ROOT
ATOM      1  O   UNL     1     -44.229 -54.867  35.134  0.00  0.00    +0.000 OA
ATOM      2  O   UNL     1     -40.191 -54.863  34.739  0.00  0.00    +0.000 OA
ATOM      3  C   UNL     1     -42.240 -53.766  34.318  0.00  0.00    +0.000 A 
ATOM      4  C   UNL     1     -43.561 -53.790  34.583  0.00  0.00    +0.000 A 
ATOM      5  C   UNL     1     -41.414 -54.932  34.748  0.00  0.00    +0.000 A 
ATOM      6  C   UNL     1     -42.149 -56.131  35.210  0.00  0.00    +0.000 A 
ATOM      7  C   UNL     1     -43.528 -56.017  35.386  0.00  0.00    +0.000 A 
ATOM      8  C   UNL     1     -41.527 -57.356  35.489  0.00  0.00    +0.000 A 
ATOM      9  C   UNL     1     -44.279 -57.102  35.844  0.00  0.00    +0.000 A 
ATOM     10  C   UNL     1     -42.274 -58.448  35.945  0.00  0.00    +0.000 A 
ATOM     11  C   UNL     1     -43.647 -58.307  36.120  0.00  0.00    +0.000 A 
ENDROOT
BRANCH   4  12
ATOM     12  C   UNL     1     -44.459 -52.656  34.279  0.00  0.00    +0.000 A 
ATOM     13  C   UNL     1     -44.325 -51.453  34.994  0.00  0.00    +0.000 A 
ATOM     14  C   UNL     1     -45.444 -52.752  33.280  0.00  0.00    +0.000 A 
ATOM     15  C   UNL     1     -45.180 -50.391  34.723  0.00  0.00    +0.000 A 
ATOM     16  C   UNL     1     -46.302 -51.682  33.017  0.00  0.00    +0.000 A 
ATOM     17  C   UNL     1     -46.164 -50.512  33.746  0.00  0.00    +0.000 A 
BRANCH  15  18
ATOM     18  O   UNL     1     -45.097 -49.204  35.397  0.00  0.00    +0.000 OA
ATOM     19  H   UNL     1     -45.216 -48.479  34.759  0.00  0.00    +0.000 HD
ENDBRANCH  15  18
BRANCH  17  20
ATOM     20  O   UNL     1     -47.005 -49.468  33.492  0.00  0.00    +0.000 OA
ATOM     21  H   UNL     1     -47.284 -49.150  34.375  0.00  0.00    +0.000 HD
ENDBRANCH  17  20
ENDBRANCH   4  12
BRANCH   8  22
ATOM     22  O   UNL     1     -40.184 -57.516  35.300  0.00  0.00    +0.000 OA
ATOM     23  H   UNL     1     -39.683 -57.218  36.076  0.00  0.00    +0.000 HD
ENDBRANCH   8  22
BRANCH  11  24
ATOM     24  O   UNL     1     -44.420 -59.338  36.562  0.00  0.00    +0.000 OA
ATOM     25  H   UNL     1     -45.348 -59.169  36.332  0.00  0.00    +0.000 HD
ENDBRANCH  11  24
BRANCH   3  26
ATOM     26  O   UNL     1     -41.582 -52.679  33.763  0.00  0.00    +0.000 OA
BRANCH  26  32
ATOM     27  O   UNL     1     -39.973 -52.784  31.992  0.00  0.00    +0.000 OA
ATOM     28  C   UNL     1     -41.619 -50.436  31.694  0.00  0.00    +0.000 C 
ATOM     29  C   UNL     1     -40.133 -50.436  31.319  0.00  0.00    +0.000 C 
ATOM     30  C   UNL     1     -42.215 -51.839  31.577  0.00  0.00    +0.000 C 
ATOM     31  C   UNL     1     -39.398 -51.480  32.168  0.00  0.00    +0.000 C 
ATOM     32  C   UNL     1     -41.354 -52.858  32.357  0.00  0.00    +0.000 C 
ATOM     33  C   UNL     1     -37.925 -51.579  31.788  0.00  0.00    +0.000 C 
BRANCH  28  34
ATOM     34  O   UNL     1     -42.312 -49.531  30.812  0.00  0.00    +0.000 OA
ATOM     35  H   UNL     1     -42.955 -50.094  30.332  0.00  0.00    +0.000 HD
ENDBRANCH  28  34
BRANCH  29  36
ATOM     36  O   UNL     1     -39.601 -49.123  31.520  0.00  0.00    +0.000 OA
ATOM     37  H   UNL     1     -39.075 -48.931  30.719  0.00  0.00    +0.000 HD
ENDBRANCH  29  36
BRANCH  30  38
ATOM     38  O   UNL     1     -42.294 -52.158  30.171  0.00  0.00    +0.000 OA
ATOM     39  H   UNL     1     -42.606 -51.359  29.709  0.00  0.00    +0.000 HD
ENDBRANCH  30  38
ENDBRANCH  26  32
ENDBRANCH   3  26
TORSDOF 10
ENDMDL
