MODEL 1
REMARK VINA RESULT:      -6.6      0.000      0.000
REMARK  Name = 
REMARK  14 active torsions:
REMARK  status: ('A' for Active; 'I' for Inactive)
REMARK    1  A    between atoms: O_1  and  C_24
REMARK    2  A    between atoms: O_1  and  C_36
REMARK    3  A    between atoms: O_4  and  C_30
REMARK    4  A    between atoms: O_4  and  C_37
REMARK    5  A    between atoms: O_7  and  C_33
REMARK    6  A    between atoms: O_7  and  C_38
REMARK    7  A    between atoms: N_10  and  C_23
REMARK    8  A    between atoms: C_15  and  C_26
REMARK    9  A    between atoms: C_16  and  C_24
REMARK   10  A    between atoms: C_31  and  C_34
REMARK   11  A    between atoms: C_32  and  C_35
REMARK   12  A    between atoms: C_36  and  C_39
REMARK   13  A    between atoms: C_39  and  C_40
REMARK   14  A    between atoms: C_41  and  C_42
REMARK                            x       y       z     vdW  Elec       q    Type
REMARK                         _______ _______ _______ _____ _____    ______ ____
ROOT
ATOM      1  O   UNL     1     -42.324 -54.818  28.934  0.00  0.00    +0.000 OA
ATOM      2  O   UNL     1     -43.043 -49.927  30.890  0.00  0.00    +0.000 OA
ATOM      3  O   UNL     1     -44.185 -58.342  31.355  0.00  0.00    +0.000 OA
ATOM      4  O   UNL     1     -44.164 -56.639  36.392  0.00  0.00    +0.000 OA
ATOM      5  N   UNL     1     -42.132 -54.235  33.521  0.00  0.00    +0.000 NA
ATOM      6  N   UNL     1     -39.751 -53.562  31.939  0.00  0.00    +0.000 NA
ATOM      7  C   UNL     1     -41.631 -55.104  32.425  0.00  0.00    +0.000 C 
ATOM      8  C   UNL     1     -40.900 -54.261  31.294  0.00  0.00    +0.000 C 
ATOM      9  C   UNL     1     -40.279 -52.587  32.927  0.00  0.00    +0.000 C 
ATOM     10  C   UNL     1     -41.052 -53.352  34.067  0.00  0.00    +0.000 C 
ATOM     11  C   UNL     1     -42.942 -54.907  34.576  0.00  0.00    +0.000 C 
ATOM     12  C   UNL     1     -42.772 -55.960  31.837  0.00  0.00    +0.000 C 
ATOM     13  C   UNL     1     -41.189 -51.515  32.266  0.00  0.00    +0.000 C 
ATOM     14  C   UNL     1     -41.851 -53.273  30.634  0.00  0.00    +0.000 C 
ATOM     15  C   UNL     1     -41.995 -52.023  31.097  0.00  0.00    +0.000 C 
ATOM     16  C   UNL     1     -43.578 -56.222  34.155  0.00  0.00    +0.000 C 
ATOM     17  C   UNL     1     -43.525 -56.695  32.904  0.00  0.00    +0.000 C 
ATOM     18  C   UNL     1     -38.805 -52.990  30.985  0.00  0.00    +0.000 C 
ATOM     19  C   UNL     1     -42.571 -53.718  29.419  0.00  0.00    +0.000 C 
ATOM     20  C   UNL     1     -42.928 -51.069  30.460  0.00  0.00    +0.000 C 
ATOM     21  C   UNL     1     -44.200 -57.954  32.518  0.00  0.00    +0.000 C 
ATOM     22  C   UNL     1     -44.236 -57.014  35.227  0.00  0.00    +0.000 C 
ATOM     23  C   UNL     1     -43.588 -52.790  28.823  0.00  0.00    +0.000 C 
ATOM     24  C   UNL     1     -43.731 -51.545  29.304  0.00  0.00    +0.000 C 
ATOM     25  C   UNL     1     -44.924 -58.709  33.570  0.00  0.00    +0.000 C 
ATOM     26  C   UNL     1     -44.964 -58.267  34.837  0.00  0.00    +0.000 C 
ATOM     27  C   UNL     1     -44.682 -50.531  28.737  0.00  0.00    +0.000 C 
ATOM     28  C   UNL     1     -45.588 -59.971  33.099  0.00  0.00    +0.000 C 
ENDROOT
BRANCH  23  29
ATOM     29  O   UNL     1     -44.352 -53.179  27.728  0.00  0.00    +0.000 OA
ATOM     30  C   UNL     1     -43.727 -53.022  26.457  0.00  0.00    +0.000 C 
ENDBRANCH  23  29
BRANCH  26  31
ATOM     31  O   UNL     1     -45.635 -59.022  35.793  0.00  0.00    +0.000 OA
ATOM     32  C   UNL     1     -44.856 -60.047  36.407  0.00  0.00    +0.000 C 
ENDBRANCH  26  31
BRANCH  10  34
ATOM     33  N   UNL     1     -39.276 -54.569  35.617  0.00  0.00    +0.000 NA
ATOM     34  C   UNL     1     -40.055 -54.054  34.927  0.00  0.00    +0.000 C 
ENDBRANCH  10  34
BRANCH  11  35
ATOM     35  C   UNL     1     -44.045 -53.904  35.027  0.00  0.00    +0.000 C 
BRANCH  35  36
ATOM     36  O   UNL     1     -44.777 -53.452  33.869  0.00  0.00    +0.000 OA
BRANCH  36  38
ATOM     37  O   UNL     1     -44.139 -51.289  34.274  0.00  0.00    +0.000 OA
ATOM     38  C   UNL     1     -44.875 -52.107  33.747  0.00  0.00    +0.000 C 
BRANCH  38  39
ATOM     39  C   UNL     1     -45.935 -51.745  32.763  0.00  0.00    +0.000 C 
ATOM     40  C   UNL     1     -46.070 -52.739  31.643  0.00  0.00    +0.000 C 
ATOM     41  C   UNL     1     -46.703 -50.640  32.828  0.00  0.00    +0.000 C 
ATOM     42  C   UNL     1     -46.628 -49.513  33.809  0.00  0.00    +0.000 C 
ENDBRANCH  38  39
ENDBRANCH  36  38
ENDBRANCH  35  36
ENDBRANCH  11  35
TORSDOF 7
ENDMDL
MODEL 2
REMARK VINA RESULT:      -6.6      2.698      6.782
REMARK  Name = 
REMARK  14 active torsions:
REMARK  status: ('A' for Active; 'I' for Inactive)
REMARK    1  A    between atoms: O_1  and  C_24
REMARK    2  A    between atoms: O_1  and  C_36
REMARK    3  A    between atoms: O_4  and  C_30
REMARK    4  A    between atoms: O_4  and  C_37
REMARK    5  A    between atoms: O_7  and  C_33
REMARK    6  A    between atoms: O_7  and  C_38
REMARK    7  A    between atoms: N_10  and  C_23
REMARK    8  A    between atoms: C_15  and  C_26
REMARK    9  A    between atoms: C_16  and  C_24
REMARK   10  A    between atoms: C_31  and  C_34
REMARK   11  A    between atoms: C_32  and  C_35
REMARK   12  A    between atoms: C_36  and  C_39
REMARK   13  A    between atoms: C_39  and  C_40
REMARK   14  A    between atoms: C_41  and  C_42
REMARK                            x       y       z     vdW  Elec       q    Type
REMARK                         _______ _______ _______ _____ _____    ______ ____
ROOT
ATOM      1  O   UNL     1     -42.101 -56.956  32.663  0.00  0.00    +0.000 OA
ATOM      2  O   UNL     1     -39.106 -53.449  35.308  0.00  0.00    +0.000 OA
ATOM      3  O   UNL     1     -43.973 -55.511  28.644  0.00  0.00    +0.000 OA
ATOM      4  O   UNL     1     -44.617 -50.273  29.296  0.00  0.00    +0.000 OA
ATOM      5  N   UNL     1     -43.434 -52.525  32.715  0.00  0.00    +0.000 NA
ATOM      6  N   UNL     1     -44.059 -54.187  35.054  0.00  0.00    +0.000 NA
ATOM      7  C   UNL     1     -43.961 -53.909  32.592  0.00  0.00    +0.000 C 
ATOM      8  C   UNL     1     -43.515 -54.817  33.817  0.00  0.00    +0.000 C 
ATOM      9  C   UNL     1     -43.409 -52.865  35.242  0.00  0.00    +0.000 C 
ATOM     10  C   UNL     1     -43.778 -51.916  34.040  0.00  0.00    +0.000 C 
ATOM     11  C   UNL     1     -43.688 -51.620  31.559  0.00  0.00    +0.000 C 
ATOM     12  C   UNL     1     -43.543 -54.539  31.247  0.00  0.00    +0.000 C 
ATOM     13  C   UNL     1     -41.868 -52.986  35.398  0.00  0.00    +0.000 C 
ATOM     14  C   UNL     1     -42.001 -54.958  33.885  0.00  0.00    +0.000 C 
ATOM     15  C   UNL     1     -41.250 -54.102  34.594  0.00  0.00    +0.000 C 
ATOM     16  C   UNL     1     -43.969 -52.325  30.242  0.00  0.00    +0.000 C 
ATOM     17  C   UNL     1     -43.881 -53.652  30.087  0.00  0.00    +0.000 C 
ATOM     18  C   UNL     1     -43.998 -55.053  36.228  0.00  0.00    +0.000 C 
ATOM     19  C   UNL     1     -41.385 -56.112  33.192  0.00  0.00    +0.000 C 
ATOM     20  C   UNL     1     -39.779 -54.234  34.649  0.00  0.00    +0.000 C 
ATOM     21  C   UNL     1     -44.111 -54.300  28.777  0.00  0.00    +0.000 C 
ATOM     22  C   UNL     1     -44.410 -51.468  29.110  0.00  0.00    +0.000 C 
ATOM     23  C   UNL     1     -39.888 -56.199  33.165  0.00  0.00    +0.000 C 
ATOM     24  C   UNL     1     -39.146 -55.329  33.869  0.00  0.00    +0.000 C 
ATOM     25  C   UNL     1     -44.476 -53.438  27.626  0.00  0.00    +0.000 C 
ATOM     26  C   UNL     1     -44.599 -52.109  27.767  0.00  0.00    +0.000 C 
ATOM     27  C   UNL     1     -37.648 -55.373  33.945  0.00  0.00    +0.000 C 
ATOM     28  C   UNL     1     -44.686 -54.169  26.331  0.00  0.00    +0.000 C 
ENDROOT
BRANCH  23  29
ATOM     29  O   UNL     1     -39.246 -57.215  32.466  0.00  0.00    +0.000 OA
ATOM     30  C   UNL     1     -39.090 -56.994  31.066  0.00  0.00    +0.000 C 
ENDBRANCH  23  29
BRANCH  26  31
ATOM     31  O   UNL     1     -44.967 -51.345  26.664  0.00  0.00    +0.000 OA
ATOM     32  C   UNL     1     -43.891 -50.679  26.006  0.00  0.00    +0.000 C 
ENDBRANCH  26  31
BRANCH  10  34
ATOM     33  N   UNL     1     -46.307 -51.151  34.279  0.00  0.00    +0.000 NA
ATOM     34  C   UNL     1     -45.207 -51.506  34.179  0.00  0.00    +0.000 C 
ENDBRANCH  10  34
BRANCH  11  35
ATOM     35  C   UNL     1     -42.445 -50.692  31.411  0.00  0.00    +0.000 C 
BRANCH  35  36
ATOM     36  O   UNL     1     -41.303 -51.330  32.021  0.00  0.00    +0.000 OA
BRANCH  36  38
ATOM     37  O   UNL     1     -39.832 -49.775  31.206  0.00  0.00    +0.000 OA
ATOM     38  C   UNL     1     -40.103 -50.912  31.554  0.00  0.00    +0.000 C 
BRANCH  38  39
ATOM     39  C   UNL     1     -39.094 -52.006  31.647  0.00  0.00    +0.000 C 
ATOM     40  C   UNL     1     -37.948 -51.681  32.564  0.00  0.00    +0.000 C 
ATOM     41  C   UNL     1     -39.161 -53.176  30.981  0.00  0.00    +0.000 C 
ATOM     42  C   UNL     1     -40.170 -53.609  29.965  0.00  0.00    +0.000 C 
ENDBRANCH  38  39
ENDBRANCH  36  38
ENDBRANCH  35  36
ENDBRANCH  11  35
TORSDOF 7
ENDMDL
MODEL 3
REMARK VINA RESULT:      -6.4      1.967      6.855
REMARK  Name = 
REMARK  14 active torsions:
REMARK  status: ('A' for Active; 'I' for Inactive)
REMARK    1  A    between atoms: O_1  and  C_24
REMARK    2  A    between atoms: O_1  and  C_36
REMARK    3  A    between atoms: O_4  and  C_30
REMARK    4  A    between atoms: O_4  and  C_37
REMARK    5  A    between atoms: O_7  and  C_33
REMARK    6  A    between atoms: O_7  and  C_38
REMARK    7  A    between atoms: N_10  and  C_23
REMARK    8  A    between atoms: C_15  and  C_26
REMARK    9  A    between atoms: C_16  and  C_24
REMARK   10  A    between atoms: C_31  and  C_34
REMARK   11  A    between atoms: C_32  and  C_35
REMARK   12  A    between atoms: C_36  and  C_39
REMARK   13  A    between atoms: C_39  and  C_40
REMARK   14  A    between atoms: C_41  and  C_42
REMARK                            x       y       z     vdW  Elec       q    Type
REMARK                         _______ _______ _______ _____ _____    ______ ____
ROOT
ATOM      1  O   UNL     1     -42.737 -55.613  35.828  0.00  0.00    +0.000 OA
ATOM      2  O   UNL     1     -39.498 -58.372  32.640  0.00  0.00    +0.000 OA
ATOM      3  O   UNL     1     -45.227 -52.203  33.849  0.00  0.00    +0.000 OA
ATOM      4  O   UNL     1     -42.217 -50.559  29.786  0.00  0.00    +0.000 OA
ATOM      5  N   UNL     1     -40.465 -53.337  32.501  0.00  0.00    +0.000 NA
ATOM      6  N   UNL     1     -39.025 -53.964  34.982  0.00  0.00    +0.000 NA
ATOM      7  C   UNL     1     -41.074 -53.155  33.844  0.00  0.00    +0.000 C 
ATOM      8  C   UNL     1     -40.495 -54.195  34.897  0.00  0.00    +0.000 C 
ATOM      9  C   UNL     1     -38.412 -54.295  33.670  0.00  0.00    +0.000 C 
ATOM     10  C   UNL     1     -38.969 -53.322  32.563  0.00  0.00    +0.000 C 
ATOM     11  C   UNL     1     -41.024 -52.495  31.406  0.00  0.00    +0.000 C 
ATOM     12  C   UNL     1     -42.613 -53.234  33.766  0.00  0.00    +0.000 C 
ATOM     13  C   UNL     1     -38.647 -55.779  33.271  0.00  0.00    +0.000 C 
ATOM     14  C   UNL     1     -40.810 -55.629  34.493  0.00  0.00    +0.000 C 
ATOM     15  C   UNL     1     -39.968 -56.342  33.730  0.00  0.00    +0.000 C 
ATOM     16  C   UNL     1     -42.428 -51.967  31.656  0.00  0.00    +0.000 C 
ATOM     17  C   UNL     1     -43.166 -52.319  32.716  0.00  0.00    +0.000 C 
ATOM     18  C   UNL     1     -38.393 -54.627  36.119  0.00  0.00    +0.000 C 
ATOM     19  C   UNL     1     -42.051 -56.236  35.024  0.00  0.00    +0.000 C 
ATOM     20  C   UNL     1     -40.282 -57.730  33.331  0.00  0.00    +0.000 C 
ATOM     21  C   UNL     1     -44.548 -51.827  32.900  0.00  0.00    +0.000 C 
ATOM     22  C   UNL     1     -42.948 -50.976  30.678  0.00  0.00    +0.000 C 
ATOM     23  C   UNL     1     -42.422 -57.610  34.549  0.00  0.00    +0.000 C 
ATOM     24  C   UNL     1     -41.576 -58.309  33.775  0.00  0.00    +0.000 C 
ATOM     25  C   UNL     1     -45.099 -50.895  31.884  0.00  0.00    +0.000 C 
ATOM     26  C   UNL     1     -44.365 -50.507  30.829  0.00  0.00    +0.000 C 
ATOM     27  C   UNL     1     -41.838 -59.708  33.297  0.00  0.00    +0.000 C 
ATOM     28  C   UNL     1     -46.510 -50.446  32.137  0.00  0.00    +0.000 C 
ENDROOT
BRANCH  23  29
ATOM     29  O   UNL     1     -43.612 -58.205  34.949  0.00  0.00    +0.000 OA
ATOM     30  C   UNL     1     -43.596 -58.798  36.246  0.00  0.00    +0.000 C 
ENDBRANCH  23  29
BRANCH  26  31
ATOM     31  O   UNL     1     -44.917 -49.614  29.917  0.00  0.00    +0.000 OA
ATOM     32  C   UNL     1     -44.537 -48.252  30.101  0.00  0.00    +0.000 C 
ENDBRANCH  26  31
BRANCH  10  34
ATOM     33  N   UNL     1     -37.878 -50.937  32.959  0.00  0.00    +0.000 NA
ATOM     34  C   UNL     1     -38.372 -51.971  32.775  0.00  0.00    +0.000 C 
ENDBRANCH  10  34
BRANCH  11  35
ATOM     35  C   UNL     1     -41.001 -53.349  30.103  0.00  0.00    +0.000 C 
BRANCH  35  36
ATOM     36  O   UNL     1     -41.247 -54.731  30.437  0.00  0.00    +0.000 OA
BRANCH  36  38
ATOM     37  O   UNL     1     -41.976 -56.010  28.682  0.00  0.00    +0.000 OA
ATOM     38  C   UNL     1     -42.189 -55.340  29.680  0.00  0.00    +0.000 C 
BRANCH  38  39
ATOM     39  C   UNL     1     -43.536 -55.200  30.303  0.00  0.00    +0.000 C 
ATOM     40  C   UNL     1     -43.722 -56.067  31.517  0.00  0.00    +0.000 C 
ATOM     41  C   UNL     1     -44.519 -54.399  29.845  0.00  0.00    +0.000 C 
ATOM     42  C   UNL     1     -44.531 -53.559  28.607  0.00  0.00    +0.000 C 
ENDBRANCH  38  39
ENDBRANCH  36  38
ENDBRANCH  35  36
ENDBRANCH  11  35
TORSDOF 7
ENDMDL
MODEL 4
REMARK VINA RESULT:      -6.3      6.043     10.681
REMARK  Name = 
REMARK  14 active torsions:
REMARK  status: ('A' for Active; 'I' for Inactive)
REMARK    1  A    between atoms: O_1  and  C_24
REMARK    2  A    between atoms: O_1  and  C_36
REMARK    3  A    between atoms: O_4  and  C_30
REMARK    4  A    between atoms: O_4  and  C_37
REMARK    5  A    between atoms: O_7  and  C_33
REMARK    6  A    between atoms: O_7  and  C_38
REMARK    7  A    between atoms: N_10  and  C_23
REMARK    8  A    between atoms: C_15  and  C_26
REMARK    9  A    between atoms: C_16  and  C_24
REMARK   10  A    between atoms: C_31  and  C_34
REMARK   11  A    between atoms: C_32  and  C_35
REMARK   12  A    between atoms: C_36  and  C_39
REMARK   13  A    between atoms: C_39  and  C_40
REMARK   14  A    between atoms: C_41  and  C_42
REMARK                            x       y       z     vdW  Elec       q    Type
REMARK                         _______ _______ _______ _____ _____    ______ ____
ROOT
ATOM      1  O   UNL     1     -45.268 -66.143  35.728  0.00  0.00    +0.000 OA
ATOM      2  O   UNL     1     -41.974 -62.827  38.261  0.00  0.00    +0.000 OA
ATOM      3  O   UNL     1     -46.274 -65.121  31.291  0.00  0.00    +0.000 OA
ATOM      4  O   UNL     1     -45.901 -59.823  31.040  0.00  0.00    +0.000 OA
ATOM      5  N   UNL     1     -45.653 -61.607  34.901  0.00  0.00    +0.000 NA
ATOM      6  N   UNL     1     -46.900 -62.682  37.333  0.00  0.00    +0.000 NA
ATOM      7  C   UNL     1     -46.434 -62.871  34.905  0.00  0.00    +0.000 C 
ATOM      8  C   UNL     1     -46.345 -63.612  36.307  0.00  0.00    +0.000 C 
ATOM      9  C   UNL     1     -46.020 -61.489  37.422  0.00  0.00    +0.000 C 
ATOM     10  C   UNL     1     -46.030 -60.719  36.048  0.00  0.00    +0.000 C 
ATOM     11  C   UNL     1     -45.566 -60.891  33.598  0.00  0.00    +0.000 C 
ATOM     12  C   UNL     1     -45.988 -63.796  33.753  0.00  0.00    +0.000 C 
ATOM     13  C   UNL     1     -44.570 -61.859  37.838  0.00  0.00    +0.000 C 
ATOM     14  C   UNL     1     -44.914 -64.011  36.637  0.00  0.00    +0.000 C 
ATOM     15  C   UNL     1     -44.098 -63.195  37.320  0.00  0.00    +0.000 C 
ATOM     16  C   UNL     1     -45.817 -61.757  32.373  0.00  0.00    +0.000 C 
ATOM     17  C   UNL     1     -45.985 -63.083  32.435  0.00  0.00    +0.000 C 
ATOM     18  C   UNL     1     -47.168 -63.322  38.618  0.00  0.00    +0.000 C 
ATOM     19  C   UNL     1     -44.466 -65.363  36.231  0.00  0.00    +0.000 C 
ATOM     20  C   UNL     1     -42.705 -63.581  37.628  0.00  0.00    +0.000 C 
ATOM     21  C   UNL     1     -46.175 -63.901  31.217  0.00  0.00    +0.000 C 
ATOM     22  C   UNL     1     -45.923 -61.049  31.070  0.00  0.00    +0.000 C 
ATOM     23  C   UNL     1     -43.028 -65.726  36.457  0.00  0.00    +0.000 C 
ATOM     24  C   UNL     1     -42.219 -64.894  37.132  0.00  0.00    +0.000 C 
ATOM     25  C   UNL     1     -46.206 -63.207  29.906  0.00  0.00    +0.000 C 
ATOM     26  C   UNL     1     -46.068 -61.873  29.825  0.00  0.00    +0.000 C 
ATOM     27  C   UNL     1     -40.784 -65.197  37.452  0.00  0.00    +0.000 C 
ATOM     28  C   UNL     1     -46.395 -64.105  28.718  0.00  0.00    +0.000 C 
ENDROOT
BRANCH  23  29
ATOM     29  O   UNL     1     -42.527 -66.950  36.029  0.00  0.00    +0.000 OA
ATOM     30  C   UNL     1     -42.162 -67.017  34.653  0.00  0.00    +0.000 C 
ENDBRANCH  23  29
BRANCH  26  31
ATOM     31  O   UNL     1     -46.127 -61.265  28.576  0.00  0.00    +0.000 OA
ATOM     32  C   UNL     1     -47.390 -60.692  28.243  0.00  0.00    +0.000 C 
ENDBRANCH  26  31
BRANCH  10  34
ATOM     33  N   UNL     1     -48.381 -59.529  35.745  0.00  0.00    +0.000 NA
ATOM     34  C   UNL     1     -47.348 -60.037  35.895  0.00  0.00    +0.000 C 
ENDBRANCH  10  34
BRANCH  11  35
ATOM     35  C   UNL     1     -44.149 -60.247  33.512  0.00  0.00    +0.000 C 
BRANCH  35  36
ATOM     36  O   UNL     1     -44.259 -58.829  33.754  0.00  0.00    +0.000 OA
BRANCH  36  38
ATOM     37  O   UNL     1     -42.163 -57.914  33.622  0.00  0.00    +0.000 OA
ATOM     38  C   UNL     1     -43.146 -58.251  34.262  0.00  0.00    +0.000 C 
BRANCH  38  39
ATOM     39  C   UNL     1     -43.326 -57.947  35.711  0.00  0.00    +0.000 C 
ATOM     40  C   UNL     1     -44.173 -56.732  35.962  0.00  0.00    +0.000 C 
ATOM     41  C   UNL     1     -42.788 -58.659  36.721  0.00  0.00    +0.000 C 
ATOM     42  C   UNL     1     -41.849 -59.821  36.641  0.00  0.00    +0.000 C 
ENDBRANCH  38  39
ENDBRANCH  36  38
ENDBRANCH  35  36
ENDBRANCH  11  35
TORSDOF 7
ENDMDL
MODEL 5
REMARK VINA RESULT:      -6.3      4.392      9.044
REMARK  Name = 
REMARK  14 active torsions:
REMARK  status: ('A' for Active; 'I' for Inactive)
REMARK    1  A    between atoms: O_1  and  C_24
REMARK    2  A    between atoms: O_1  and  C_36
REMARK    3  A    between atoms: O_4  and  C_30
REMARK    4  A    between atoms: O_4  and  C_37
REMARK    5  A    between atoms: O_7  and  C_33
REMARK    6  A    between atoms: O_7  and  C_38
REMARK    7  A    between atoms: N_10  and  C_23
REMARK    8  A    between atoms: C_15  and  C_26
REMARK    9  A    between atoms: C_16  and  C_24
REMARK   10  A    between atoms: C_31  and  C_34
REMARK   11  A    between atoms: C_32  and  C_35
REMARK   12  A    between atoms: C_36  and  C_39
REMARK   13  A    between atoms: C_39  and  C_40
REMARK   14  A    between atoms: C_41  and  C_42
REMARK                            x       y       z     vdW  Elec       q    Type
REMARK                         _______ _______ _______ _____ _____    ______ ____
ROOT
ATOM      1  O   UNL     1     -46.465 -60.194  36.919  0.00  0.00    +0.000 OA
ATOM      2  O   UNL     1     -45.126 -64.037  33.497  0.00  0.00    +0.000 OA
ATOM      3  O   UNL     1     -44.228 -56.126  36.489  0.00  0.00    +0.000 OA
ATOM      4  O   UNL     1     -39.467 -57.439  34.519  0.00  0.00    +0.000 OA
ATOM      5  N   UNL     1     -42.012 -60.631  35.738  0.00  0.00    +0.000 NA
ATOM      6  N   UNL     1     -43.085 -62.439  37.790  0.00  0.00    +0.000 NA
ATOM      7  C   UNL     1     -42.896 -60.158  36.835  0.00  0.00    +0.000 C 
ATOM      8  C   UNL     1     -43.905 -61.291  37.306  0.00  0.00    +0.000 C 
ATOM      9  C   UNL     1     -42.320 -62.995  36.645  0.00  0.00    +0.000 C 
ATOM     10  C   UNL     1     -41.318 -61.909  36.098  0.00  0.00    +0.000 C 
ATOM     11  C   UNL     1     -41.109 -59.612  35.135  0.00  0.00    +0.000 C 
ATOM     12  C   UNL     1     -43.648 -58.875  36.420  0.00  0.00    +0.000 C 
ATOM     13  C   UNL     1     -43.251 -63.509  35.512  0.00  0.00    +0.000 C 
ATOM     14  C   UNL     1     -44.837 -61.711  36.179  0.00  0.00    +0.000 C 
ATOM     15  C   UNL     1     -44.522 -62.714  35.346  0.00  0.00    +0.000 C 
ATOM     16  C   UNL     1     -41.548 -58.170  35.330  0.00  0.00    +0.000 C 
ATOM     17  C   UNL     1     -42.714 -57.829  35.893  0.00  0.00    +0.000 C 
ATOM     18  C   UNL     1     -43.852 -63.433  38.534  0.00  0.00    +0.000 C 
ATOM     19  C   UNL     1     -46.139 -61.015  36.067  0.00  0.00    +0.000 C 
ATOM     20  C   UNL     1     -45.424 -63.112  34.245  0.00  0.00    +0.000 C 
ATOM     21  C   UNL     1     -43.133 -56.415  36.019  0.00  0.00    +0.000 C 
ATOM     22  C   UNL     1     -40.585 -57.119  34.908  0.00  0.00    +0.000 C 
ATOM     23  C   UNL     1     -47.018 -61.348  34.898  0.00  0.00    +0.000 C 
ATOM     24  C   UNL     1     -46.685 -62.347  34.064  0.00  0.00    +0.000 C 
ATOM     25  C   UNL     1     -42.206 -55.365  35.530  0.00  0.00    +0.000 C 
ATOM     26  C   UNL     1     -41.019 -55.686  34.989  0.00  0.00    +0.000 C 
ATOM     27  C   UNL     1     -47.528 -62.786  32.903  0.00  0.00    +0.000 C 
ATOM     28  C   UNL     1     -42.705 -53.958  35.687  0.00  0.00    +0.000 C 
ENDROOT
BRANCH  23  29
ATOM     29  O   UNL     1     -48.217 -60.676  34.693  0.00  0.00    +0.000 OA
ATOM     30  C   UNL     1     -49.243 -60.948  35.644  0.00  0.00    +0.000 C 
ENDBRANCH  23  29
BRANCH  26  31
ATOM     31  O   UNL     1     -40.175 -54.665  34.566  0.00  0.00    +0.000 OA
ATOM     32  C   UNL     1     -39.181 -54.273  35.511  0.00  0.00    +0.000 C 
ENDBRANCH  26  31
BRANCH  10  34
ATOM     33  N   UNL     1     -39.338 -61.670  37.847  0.00  0.00    +0.000 NA
ATOM     34  C   UNL     1     -40.205 -61.753  37.080  0.00  0.00    +0.000 C 
ENDBRANCH  10  34
BRANCH  11  35
ATOM     35  C   UNL     1     -40.994 -59.932  33.614  0.00  0.00    +0.000 C 
BRANCH  35  36
ATOM     36  O   UNL     1     -42.276 -60.379  33.126  0.00  0.00    +0.000 OA
BRANCH  36  38
ATOM     37  O   UNL     1     -42.471 -60.045  30.868  0.00  0.00    +0.000 OA
ATOM     38  C   UNL     1     -42.721 -59.734  32.022  0.00  0.00    +0.000 C 
BRANCH  38  39
ATOM     39  C   UNL     1     -43.681 -58.656  32.394  0.00  0.00    +0.000 C 
ATOM     40  C   UNL     1     -44.977 -59.180  32.946  0.00  0.00    +0.000 C 
ATOM     41  C   UNL     1     -43.452 -57.336  32.249  0.00  0.00    +0.000 C 
ATOM     42  C   UNL     1     -42.270 -56.661  31.629  0.00  0.00    +0.000 C 
ENDBRANCH  38  39
ENDBRANCH  36  38
ENDBRANCH  35  36
ENDBRANCH  11  35
TORSDOF 7
ENDMDL
MODEL 6
REMARK VINA RESULT:      -6.3      9.644     13.085
REMARK  Name = 
REMARK  14 active torsions:
REMARK  status: ('A' for Active; 'I' for Inactive)
REMARK    1  A    between atoms: O_1  and  C_24
REMARK    2  A    between atoms: O_1  and  C_36
REMARK    3  A    between atoms: O_4  and  C_30
REMARK    4  A    between atoms: O_4  and  C_37
REMARK    5  A    between atoms: O_7  and  C_33
REMARK    6  A    between atoms: O_7  and  C_38
REMARK    7  A    between atoms: N_10  and  C_23
REMARK    8  A    between atoms: C_15  and  C_26
REMARK    9  A    between atoms: C_16  and  C_24
REMARK   10  A    between atoms: C_31  and  C_34
REMARK   11  A    between atoms: C_32  and  C_35
REMARK   12  A    between atoms: C_36  and  C_39
REMARK   13  A    between atoms: C_39  and  C_40
REMARK   14  A    between atoms: C_41  and  C_42
REMARK                            x       y       z     vdW  Elec       q    Type
REMARK                         _______ _______ _______ _____ _____    ______ ____
ROOT
ATOM      1  O   UNL     1     -41.755 -66.803  34.725  0.00  0.00    +0.000 OA
ATOM      2  O   UNL     1     -39.284 -66.117  39.382  0.00  0.00    +0.000 OA
ATOM      3  O   UNL     1     -45.517 -64.165  33.934  0.00  0.00    +0.000 OA
ATOM      4  O   UNL     1     -47.533 -63.258  38.770  0.00  0.00    +0.000 OA
ATOM      5  N   UNL     1     -44.336 -66.061  38.493  0.00  0.00    +0.000 NA
ATOM      6  N   UNL     1     -43.314 -68.775  38.026  0.00  0.00    +0.000 NA
ATOM      7  C   UNL     1     -44.368 -66.706  37.155  0.00  0.00    +0.000 C 
ATOM      8  C   UNL     1     -43.170 -67.733  36.969  0.00  0.00    +0.000 C 
ATOM      9  C   UNL     1     -43.130 -68.136  39.354  0.00  0.00    +0.000 C 
ATOM     10  C   UNL     1     -44.267 -67.073  39.595  0.00  0.00    +0.000 C 
ATOM     11  C   UNL     1     -45.342 -64.989  38.731  0.00  0.00    +0.000 C 
ATOM     12  C   UNL     1     -44.377 -65.646  36.033  0.00  0.00    +0.000 C 
ATOM     13  C   UNL     1     -41.726 -67.487  39.503  0.00  0.00    +0.000 C 
ATOM     14  C   UNL     1     -41.820 -67.036  37.057  0.00  0.00    +0.000 C 
ATOM     15  C   UNL     1     -41.173 -66.907  38.225  0.00  0.00    +0.000 C 
ATOM     16  C   UNL     1     -45.902 -64.344  37.473  0.00  0.00    +0.000 C 
ATOM     17  C   UNL     1     -45.449 -64.621  36.244  0.00  0.00    +0.000 C 
ATOM     18  C   UNL     1     -42.475 -69.950  37.808  0.00  0.00    +0.000 C 
ATOM     19  C   UNL     1     -41.210 -66.556  35.796  0.00  0.00    +0.000 C 
ATOM     20  C   UNL     1     -39.868 -66.219  38.309  0.00  0.00    +0.000 C 
ATOM     21  C   UNL     1     -45.982 -63.936  35.046  0.00  0.00    +0.000 C 
ATOM     22  C   UNL     1     -47.038 -63.404  37.657  0.00  0.00    +0.000 C 
ATOM     23  C   UNL     1     -39.932 -65.776  35.885  0.00  0.00    +0.000 C 
ATOM     24  C   UNL     1     -39.300 -65.644  37.062  0.00  0.00    +0.000 C 
ATOM     25  C   UNL     1     -47.066 -62.940  35.234  0.00  0.00    +0.000 C 
ATOM     26  C   UNL     1     -47.553 -62.669  36.455  0.00  0.00    +0.000 C 
ATOM     27  C   UNL     1     -37.992 -64.929  37.236  0.00  0.00    +0.000 C 
ATOM     28  C   UNL     1     -47.547 -62.283  33.972  0.00  0.00    +0.000 C 
ENDROOT
BRANCH  23  29
ATOM     29  O   UNL     1     -39.349 -65.232  34.745  0.00  0.00    +0.000 OA
ATOM     30  C   UNL     1     -38.576 -66.137  33.961  0.00  0.00    +0.000 C 
ENDBRANCH  23  29
BRANCH  26  31
ATOM     31  O   UNL     1     -48.586 -61.746  36.579  0.00  0.00    +0.000 OA
ATOM     32  C   UNL     1     -48.167 -60.397  36.777  0.00  0.00    +0.000 C 
ENDBRANCH  26  31
BRANCH  10  34
ATOM     33  N   UNL     1     -46.555 -68.330  40.069  0.00  0.00    +0.000 NA
ATOM     34  C   UNL     1     -45.547 -67.797  39.851  0.00  0.00    +0.000 C 
ENDBRANCH  10  34
BRANCH  11  35
ATOM     35  C   UNL     1     -44.669 -63.907  39.628  0.00  0.00    +0.000 C 
BRANCH  35  36
ATOM     36  O   UNL     1     -43.301 -63.724  39.204  0.00  0.00    +0.000 OA
BRANCH  36  38
ATOM     37  O   UNL     1     -42.801 -61.725  40.204  0.00  0.00    +0.000 OA
ATOM     38  C   UNL     1     -42.869 -62.442  39.219  0.00  0.00    +0.000 C 
BRANCH  38  39
ATOM     39  C   UNL     1     -42.347 -62.048  37.878  0.00  0.00    +0.000 C 
ATOM     40  C   UNL     1     -40.917 -62.453  37.655  0.00  0.00    +0.000 C 
ATOM     41  C   UNL     1     -43.051 -61.383  36.942  0.00  0.00    +0.000 C 
ATOM     42  C   UNL     1     -44.435 -60.824  37.043  0.00  0.00    +0.000 C 
ENDBRANCH  38  39
ENDBRANCH  36  38
ENDBRANCH  35  36
ENDBRANCH  11  35
TORSDOF 7
ENDMDL
MODEL 7
REMARK VINA RESULT:      -6.2      5.851     10.158
REMARK  Name = 
REMARK  14 active torsions:
REMARK  status: ('A' for Active; 'I' for Inactive)
REMARK    1  A    between atoms: O_1  and  C_24
REMARK    2  A    between atoms: O_1  and  C_36
REMARK    3  A    between atoms: O_4  and  C_30
REMARK    4  A    between atoms: O_4  and  C_37
REMARK    5  A    between atoms: O_7  and  C_33
REMARK    6  A    between atoms: O_7  and  C_38
REMARK    7  A    between atoms: N_10  and  C_23
REMARK    8  A    between atoms: C_15  and  C_26
REMARK    9  A    between atoms: C_16  and  C_24
REMARK   10  A    between atoms: C_31  and  C_34
REMARK   11  A    between atoms: C_32  and  C_35
REMARK   12  A    between atoms: C_36  and  C_39
REMARK   13  A    between atoms: C_39  and  C_40
REMARK   14  A    between atoms: C_41  and  C_42
REMARK                            x       y       z     vdW  Elec       q    Type
REMARK                         _______ _______ _______ _____ _____    ______ ____
ROOT
ATOM      1  O   UNL     1     -44.516 -64.571  35.840  0.00  0.00    +0.000 OA
ATOM      2  O   UNL     1     -48.639 -61.389  36.910  0.00  0.00    +0.000 OA
ATOM      3  O   UNL     1     -40.625 -62.518  34.292  0.00  0.00    +0.000 OA
ATOM      4  O   UNL     1     -42.347 -58.181  31.742  0.00  0.00    +0.000 OA
ATOM      5  N   UNL     1     -45.296 -60.968  33.043  0.00  0.00    +0.000 NA
ATOM      6  N   UNL     1     -46.903 -63.396  32.655  0.00  0.00    +0.000 NA
ATOM      7  C   UNL     1     -44.702 -62.330  33.067  0.00  0.00    +0.000 C 
ATOM      8  C   UNL     1     -45.740 -63.414  33.588  0.00  0.00    +0.000 C 
ATOM      9  C   UNL     1     -47.574 -62.075  32.755  0.00  0.00    +0.000 C 
ATOM     10  C   UNL     1     -46.588 -60.940  32.286  0.00  0.00    +0.000 C 
ATOM     11  C   UNL     1     -44.373 -59.854  32.687  0.00  0.00    +0.000 C 
ATOM     12  C   UNL     1     -43.404 -62.349  33.902  0.00  0.00    +0.000 C 
ATOM     13  C   UNL     1     -48.101 -61.792  34.190  0.00  0.00    +0.000 C 
ATOM     14  C   UNL     1     -46.172 -63.128  35.020  0.00  0.00    +0.000 C 
ATOM     15  C   UNL     1     -47.242 -62.366  35.289  0.00  0.00    +0.000 C 
ATOM     16  C   UNL     1     -42.897 -60.151  32.901  0.00  0.00    +0.000 C 
ATOM     17  C   UNL     1     -42.451 -61.274  33.476  0.00  0.00    +0.000 C 
ATOM     18  C   UNL     1     -47.801 -64.535  32.817  0.00  0.00    +0.000 C 
ATOM     19  C   UNL     1     -45.406 -63.772  36.111  0.00  0.00    +0.000 C 
ATOM     20  C   UNL     1     -47.653 -62.081  36.680  0.00  0.00    +0.000 C 
ATOM     21  C   UNL     1     -41.010 -61.507  33.715  0.00  0.00    +0.000 C 
ATOM     22  C   UNL     1     -41.935 -59.141  32.386  0.00  0.00    +0.000 C 
ATOM     23  C   UNL     1     -45.758 -63.413  37.524  0.00  0.00    +0.000 C 
ATOM     24  C   UNL     1     -46.825 -62.639  37.781  0.00  0.00    +0.000 C 
ATOM     25  C   UNL     1     -40.051 -60.466  33.271  0.00  0.00    +0.000 C 
ATOM     26  C   UNL     1     -40.476 -59.345  32.666  0.00  0.00    +0.000 C 
ATOM     27  C   UNL     1     -47.284 -62.274  39.162  0.00  0.00    +0.000 C 
ATOM     28  C   UNL     1     -38.608 -60.771  33.556  0.00  0.00    +0.000 C 
ENDROOT
BRANCH  23  29
ATOM     29  O   UNL     1     -45.028 -63.923  38.592  0.00  0.00    +0.000 OA
ATOM     30  C   UNL     1     -45.387 -65.238  39.009  0.00  0.00    +0.000 C 
ENDBRANCH  23  29
BRANCH  26  31
ATOM     31  O   UNL     1     -39.537 -58.409  32.246  0.00  0.00    +0.000 OA
ATOM     32  C   UNL     1     -39.143 -58.520  30.880  0.00  0.00    +0.000 C 
ENDBRANCH  26  31
BRANCH  10  34
ATOM     33  N   UNL     1     -46.320 -61.128  29.653  0.00  0.00    +0.000 NA
ATOM     34  C   UNL     1     -46.439 -61.024  30.804  0.00  0.00    +0.000 C 
ENDBRANCH  10  34
BRANCH  11  35
ATOM     35  C   UNL     1     -44.793 -58.612  33.529  0.00  0.00    +0.000 C 
BRANCH  35  36
ATOM     36  O   UNL     1     -45.086 -59.032  34.878  0.00  0.00    +0.000 OA
BRANCH  36  38
ATOM     37  O   UNL     1     -44.817 -57.218  36.250  0.00  0.00    +0.000 OA
ATOM     38  C   UNL     1     -44.467 -58.314  35.844  0.00  0.00    +0.000 C 
BRANCH  38  39
ATOM     39  C   UNL     1     -43.360 -59.102  36.456  0.00  0.00    +0.000 C 
ATOM     40  C   UNL     1     -43.841 -60.281  37.255  0.00  0.00    +0.000 C 
ATOM     41  C   UNL     1     -42.049 -58.811  36.341  0.00  0.00    +0.000 C 
ATOM     42  C   UNL     1     -41.416 -57.630  35.674  0.00  0.00    +0.000 C 
ENDBRANCH  38  39
ENDBRANCH  36  38
ENDBRANCH  35  36
ENDBRANCH  11  35
TORSDOF 7
ENDMDL
MODEL 8
REMARK VINA RESULT:      -6.0     18.059     22.573
REMARK  Name = 
REMARK  14 active torsions:
REMARK  status: ('A' for Active; 'I' for Inactive)
REMARK    1  A    between atoms: O_1  and  C_24
REMARK    2  A    between atoms: O_1  and  C_36
REMARK    3  A    between atoms: O_4  and  C_30
REMARK    4  A    between atoms: O_4  and  C_37
REMARK    5  A    between atoms: O_7  and  C_33
REMARK    6  A    between atoms: O_7  and  C_38
REMARK    7  A    between atoms: N_10  and  C_23
REMARK    8  A    between atoms: C_15  and  C_26
REMARK    9  A    between atoms: C_16  and  C_24
REMARK   10  A    between atoms: C_31  and  C_34
REMARK   11  A    between atoms: C_32  and  C_35
REMARK   12  A    between atoms: C_36  and  C_39
REMARK   13  A    between atoms: C_39  and  C_40
REMARK   14  A    between atoms: C_41  and  C_42
REMARK                            x       y       z     vdW  Elec       q    Type
REMARK                         _______ _______ _______ _____ _____    ______ ____
ROOT
ATOM      1  O   UNL     1     -56.584 -40.814  40.148  0.00  0.00    +0.000 OA
ATOM      2  O   UNL     1     -54.907 -38.887  35.486  0.00  0.00    +0.000 OA
ATOM      3  O   UNL     1     -61.031 -42.200  40.370  0.00  0.00    +0.000 OA
ATOM      4  O   UNL     1     -63.550 -39.125  36.838  0.00  0.00    +0.000 OA
ATOM      5  N   UNL     1     -59.484 -38.176  37.689  0.00  0.00    +0.000 NA
ATOM      6  N   UNL     1     -57.429 -36.839  39.306  0.00  0.00    +0.000 NA
ATOM      7  C   UNL     1     -59.167 -38.593  39.080  0.00  0.00    +0.000 C 
ATOM      8  C   UNL     1     -57.648 -38.308  39.447  0.00  0.00    +0.000 C 
ATOM      9  C   UNL     1     -57.603 -36.465  37.879  0.00  0.00    +0.000 C 
ATOM     10  C   UNL     1     -59.085 -36.756  37.431  0.00  0.00    +0.000 C 
ATOM     11  C   UNL     1     -60.850 -38.510  37.197  0.00  0.00    +0.000 C 
ATOM     12  C   UNL     1     -59.529 -40.076  39.305  0.00  0.00    +0.000 C 
ATOM     13  C   UNL     1     -56.592 -37.197  36.953  0.00  0.00    +0.000 C 
ATOM     14  C   UNL     1     -56.702 -39.098  38.554  0.00  0.00    +0.000 C 
ATOM     15  C   UNL     1     -56.238 -38.592  37.402  0.00  0.00    +0.000 C 
ATOM     16  C   UNL     1     -61.539 -39.645  37.939  0.00  0.00    +0.000 C 
ATOM     17  C   UNL     1     -60.935 -40.377  38.882  0.00  0.00    +0.000 C 
ATOM     18  C   UNL     1     -56.176 -36.376  39.894  0.00  0.00    +0.000 C 
ATOM     19  C   UNL     1     -56.256 -40.428  39.031  0.00  0.00    +0.000 C 
ATOM     20  C   UNL     1     -55.329 -39.367  36.532  0.00  0.00    +0.000 C 
ATOM     21  C   UNL     1     -61.619 -41.508  39.547  0.00  0.00    +0.000 C 
ATOM     22  C   UNL     1     -62.967 -39.886  37.605  0.00  0.00    +0.000 C 
ATOM     23  C   UNL     1     -55.409 -41.257  38.113  0.00  0.00    +0.000 C 
ATOM     24  C   UNL     1     -54.961 -40.743  36.956  0.00  0.00    +0.000 C 
ATOM     25  C   UNL     1     -63.022 -41.800  39.161  0.00  0.00    +0.000 C 
ATOM     26  C   UNL     1     -63.655 -41.058  38.238  0.00  0.00    +0.000 C 
ATOM     27  C   UNL     1     -54.066 -41.479  36.002  0.00  0.00    +0.000 C 
ATOM     28  C   UNL     1     -63.645 -42.966  39.874  0.00  0.00    +0.000 C 
ENDROOT
BRANCH  23  29
ATOM     29  O   UNL     1     -55.022 -42.544  38.469  0.00  0.00    +0.000 OA
ATOM     30  C   UNL     1     -53.902 -42.627  39.347  0.00  0.00    +0.000 C 
ENDBRANCH  23  29
BRANCH  26  31
ATOM     31  O   UNL     1     -64.978 -41.356  37.927  0.00  0.00    +0.000 OA
ATOM     32  C   UNL     1     -65.156 -42.182  36.778  0.00  0.00    +0.000 C 
ENDBRANCH  26  31
BRANCH  10  34
ATOM     33  N   UNL     1     -60.669 -34.925  38.518  0.00  0.00    +0.000 NA
ATOM     34  C   UNL     1     -59.979 -35.739  38.060  0.00  0.00    +0.000 C 
ENDBRANCH  10  34
BRANCH  11  35
ATOM     35  C   UNL     1     -60.729 -38.860  35.684  0.00  0.00    +0.000 C 
BRANCH  35  36
ATOM     36  O   UNL     1     -59.862 -40.004  35.530  0.00  0.00    +0.000 OA
BRANCH  36  38
ATOM     37  O   UNL     1     -58.376 -38.721  34.350  0.00  0.00    +0.000 OA
ATOM     38  C   UNL     1     -58.797 -39.805  34.719  0.00  0.00    +0.000 C 
BRANCH  38  39
ATOM     39  C   UNL     1     -58.106 -41.096  34.434  0.00  0.00    +0.000 C 
ATOM     40  C   UNL     1     -57.934 -41.959  35.653  0.00  0.00    +0.000 C 
ATOM     41  C   UNL     1     -57.653 -41.477  33.224  0.00  0.00    +0.000 C 
ATOM     42  C   UNL     1     -57.654 -40.701  31.945  0.00  0.00    +0.000 C 
ENDBRANCH  38  39
ENDBRANCH  36  38
ENDBRANCH  35  36
ENDBRANCH  11  35
TORSDOF 7
ENDMDL
MODEL 9
REMARK VINA RESULT:      -5.9      6.611     11.908
REMARK  Name = 
REMARK  14 active torsions:
REMARK  status: ('A' for Active; 'I' for Inactive)
REMARK    1  A    between atoms: O_1  and  C_24
REMARK    2  A    between atoms: O_1  and  C_36
REMARK    3  A    between atoms: O_4  and  C_30
REMARK    4  A    between atoms: O_4  and  C_37
REMARK    5  A    between atoms: O_7  and  C_33
REMARK    6  A    between atoms: O_7  and  C_38
REMARK    7  A    between atoms: N_10  and  C_23
REMARK    8  A    between atoms: C_15  and  C_26
REMARK    9  A    between atoms: C_16  and  C_24
REMARK   10  A    between atoms: C_31  and  C_34
REMARK   11  A    between atoms: C_32  and  C_35
REMARK   12  A    between atoms: C_36  and  C_39
REMARK   13  A    between atoms: C_39  and  C_40
REMARK   14  A    between atoms: C_41  and  C_42
REMARK                            x       y       z     vdW  Elec       q    Type
REMARK                         _______ _______ _______ _____ _____    ______ ____
ROOT
ATOM      1  O   UNL     1     -41.985 -63.738  37.400  0.00  0.00    +0.000 OA
ATOM      2  O   UNL     1     -46.418 -66.297  38.838  0.00  0.00    +0.000 OA
ATOM      3  O   UNL     1     -42.431 -60.434  34.140  0.00  0.00    +0.000 OA
ATOM      4  O   UNL     1     -46.561 -62.033  31.197  0.00  0.00    +0.000 OA
ATOM      5  N   UNL     1     -45.095 -64.756  34.128  0.00  0.00    +0.000 NA
ATOM      6  N   UNL     1     -43.251 -66.872  34.993  0.00  0.00    +0.000 NA
ATOM      7  C   UNL     1     -43.643 -64.514  34.335  0.00  0.00    +0.000 C 
ATOM      8  C   UNL     1     -43.043 -65.469  35.453  0.00  0.00    +0.000 C 
ATOM      9  C   UNL     1     -44.710 -67.143  34.935  0.00  0.00    +0.000 C 
ATOM     10  C   UNL     1     -45.384 -66.202  33.867  0.00  0.00    +0.000 C 
ATOM     11  C   UNL     1     -45.789 -63.831  33.189  0.00  0.00    +0.000 C 
ATOM     12  C   UNL     1     -43.375 -63.029  34.663  0.00  0.00    +0.000 C 
ATOM     13  C   UNL     1     -45.392 -66.983  36.322  0.00  0.00    +0.000 C 
ATOM     14  C   UNL     1     -43.698 -65.225  36.805  0.00  0.00    +0.000 C 
ATOM     15  C   UNL     1     -44.787 -65.907  37.189  0.00  0.00    +0.000 C 
ATOM     16  C   UNL     1     -45.096 -62.494  32.975  0.00  0.00    +0.000 C 
ATOM     17  C   UNL     1     -44.011 -62.114  33.661  0.00  0.00    +0.000 C 
ATOM     18  C   UNL     1     -42.491 -67.857  35.756  0.00  0.00    +0.000 C 
ATOM     19  C   UNL     1     -43.054 -64.250  37.715  0.00  0.00    +0.000 C 
ATOM     20  C   UNL     1     -45.427 -65.660  38.497  0.00  0.00    +0.000 C 
ATOM     21  C   UNL     1     -43.392 -60.784  33.464  0.00  0.00    +0.000 C 
ATOM     22  C   UNL     1     -45.652 -61.620  31.909  0.00  0.00    +0.000 C 
ATOM     23  C   UNL     1     -43.750 -63.926  39.004  0.00  0.00    +0.000 C 
ATOM     24  C   UNL     1     -44.847 -64.608  39.372  0.00  0.00    +0.000 C 
ATOM     25  C   UNL     1     -43.991 -59.878  32.454  0.00  0.00    +0.000 C 
ATOM     26  C   UNL     1     -45.062 -60.252  31.735  0.00  0.00    +0.000 C 
ATOM     27  C   UNL     1     -45.576 -64.390  40.666  0.00  0.00    +0.000 C 
ATOM     28  C   UNL     1     -43.313 -58.545  32.318  0.00  0.00    +0.000 C 
ENDROOT
BRANCH  23  29
ATOM     29  O   UNL     1     -43.238 -62.963  39.867  0.00  0.00    +0.000 OA
ATOM     30  C   UNL     1     -43.600 -61.617  39.568  0.00  0.00    +0.000 C 
ENDBRANCH  23  29
BRANCH  26  31
ATOM     31  O   UNL     1     -45.574 -59.377  30.783  0.00  0.00    +0.000 OA
ATOM     32  C   UNL     1     -45.110 -59.595  29.452  0.00  0.00    +0.000 C 
ENDBRANCH  26  31
BRANCH  10  34
ATOM     33  N   UNL     1     -44.689 -67.006  31.436  0.00  0.00    +0.000 NA
ATOM     34  C   UNL     1     -44.996 -66.675  32.506  0.00  0.00    +0.000 C 
ENDBRANCH  10  34
BRANCH  11  35
ATOM     35  C   UNL     1     -47.229 -63.601  33.738  0.00  0.00    +0.000 C 
BRANCH  35  36
ATOM     36  O   UNL     1     -47.159 -63.343  35.156  0.00  0.00    +0.000 OA
BRANCH  36  38
ATOM     37  O   UNL     1     -48.873 -61.826  35.229  0.00  0.00    +0.000 OA
ATOM     38  C   UNL     1     -47.758 -62.197  35.556  0.00  0.00    +0.000 C 
BRANCH  38  39
ATOM     39  C   UNL     1     -46.922 -61.494  36.571  0.00  0.00    +0.000 C 
ATOM     40  C   UNL     1     -46.865 -62.210  37.891  0.00  0.00    +0.000 C 
ATOM     41  C   UNL     1     -46.280 -60.327  36.367  0.00  0.00    +0.000 C 
ATOM     42  C   UNL     1     -46.316 -59.446  35.159  0.00  0.00    +0.000 C 
ENDBRANCH  38  39
ENDBRANCH  36  38
ENDBRANCH  35  36
ENDBRANCH  11  35
TORSDOF 7
ENDMDL
