MODEL 1
REMARK VINA RESULT:      -6.9      0.000      0.000
REMARK  Name = Resveratrol.pdbqt.pdb
REMARK  5 active torsions:
REMARK  status: ('A' for Active; 'I' for Inactive)
REMARK    1  A    between atoms: C_1  and  C_11
REMARK    2  A    between atoms: C_4  and  O_7
REMARK    3  A    between atoms: C_5  and  O_9
REMARK    4  A    between atoms: C_12  and  C_13
REMARK    5  A    between atoms: C_18  and  O_19
REMARK                            x       y       z     vdW  Elec       q    Type
REMARK                         _______ _______ _______ _____ _____    ______ ____
ROOT
ATOM      1  C   UNL     1     -63.675 -65.442  38.134  0.00  0.00    +0.000 A 
ATOM      2  C   UNL     1     -62.966 -64.258  38.335  0.00  0.00    +0.000 A 
ATOM      3  C   UNL     1     -64.365 -66.034  39.191  0.00  0.00    +0.000 A 
ATOM      4  C   UNL     1     -64.341 -65.434  40.447  0.00  0.00    +0.000 A 
ATOM      5  C   UNL     1     -62.954 -63.674  39.598  0.00  0.00    +0.000 A 
ATOM      6  C   UNL     1     -63.639 -64.252  40.662  0.00  0.00    +0.000 A 
ENDROOT
BRANCH   4   7
ATOM      7  O   UNL     1     -65.007 -65.991  41.499  0.00  0.00    +0.000 OA
ATOM      8  H   UNL     1     -65.300 -65.273  42.088  0.00  0.00    +0.000 HD
ENDBRANCH   4   7
BRANCH   5   9
ATOM      9  O   UNL     1     -62.254 -62.514  39.771  0.00  0.00    +0.000 OA
ATOM     10  H   UNL     1     -62.887 -61.814  40.010  0.00  0.00    +0.000 HD
ENDBRANCH   5   9
BRANCH   1  11
ATOM     11  C   UNL     1     -63.694 -66.051  36.845  0.00  0.00    +0.000 C 
ATOM     12  C   UNL     1     -63.710 -66.563  35.758  0.00  0.00    +0.000 C 
BRANCH  12  13
ATOM     13  C   UNL     1     -63.728 -67.172  34.469  0.00  0.00    +0.000 A 
ATOM     14  C   UNL     1     -63.272 -68.481  34.312  0.00  0.00    +0.000 A 
ATOM     15  C   UNL     1     -64.200 -66.458  33.368  0.00  0.00    +0.000 A 
ATOM     16  C   UNL     1     -63.289 -69.078  33.055  0.00  0.00    +0.000 A 
ATOM     17  C   UNL     1     -64.218 -67.051  32.109  0.00  0.00    +0.000 A 
ATOM     18  C   UNL     1     -63.762 -68.357  31.962  0.00  0.00    +0.000 A 
BRANCH  18  19
ATOM     19  O   UNL     1     -63.790 -68.917  30.718  0.00  0.00    +0.000 OA
ATOM     20  H   UNL     1     -64.501 -68.491  30.208  0.00  0.00    +0.000 HD
ENDBRANCH  18  19
ENDBRANCH  12  13
ENDBRANCH   1  11
TORSDOF 5
ENDMDL
MODEL 2
REMARK VINA RESULT:      -6.6      1.945      7.738
REMARK  Name = Resveratrol.pdbqt.pdb
REMARK  5 active torsions:
REMARK  status: ('A' for Active; 'I' for Inactive)
REMARK    1  A    between atoms: C_1  and  C_11
REMARK    2  A    between atoms: C_4  and  O_7
REMARK    3  A    between atoms: C_5  and  O_9
REMARK    4  A    between atoms: C_12  and  C_13
REMARK    5  A    between atoms: C_18  and  O_19
REMARK                            x       y       z     vdW  Elec       q    Type
REMARK                         _______ _______ _______ _____ _____    ______ ____
ROOT
ATOM      1  C   UNL     1     -63.486 -66.640  36.124  0.00  0.00    +0.000 A 
ATOM      2  C   UNL     1     -64.248 -65.940  35.189  0.00  0.00    +0.000 A 
ATOM      3  C   UNL     1     -62.814 -67.804  35.752  0.00  0.00    +0.000 A 
ATOM      4  C   UNL     1     -62.910 -68.260  34.440  0.00  0.00    +0.000 A 
ATOM      5  C   UNL     1     -64.331 -66.413  33.884  0.00  0.00    +0.000 A 
ATOM      6  C   UNL     1     -63.666 -67.572  33.497  0.00  0.00    +0.000 A 
ENDROOT
BRANCH   4   7
ATOM      7  O   UNL     1     -62.262 -69.395  34.048  0.00  0.00    +0.000 OA
ATOM      8  H   UNL     1     -61.456 -69.135  33.568  0.00  0.00    +0.000 HD
ENDBRANCH   4   7
BRANCH   5   9
ATOM      9  O   UNL     1     -65.083 -65.711  32.985  0.00  0.00    +0.000 OA
ATOM     10  H   UNL     1     -64.476 -65.282  32.357  0.00  0.00    +0.000 HD
ENDBRANCH   5   9
BRANCH   1  11
ATOM     11  C   UNL     1     -63.394 -66.166  37.466  0.00  0.00    +0.000 C 
ATOM     12  C   UNL     1     -63.316 -65.767  38.597  0.00  0.00    +0.000 C 
BRANCH  12  13
ATOM     13  C   UNL     1     -63.223 -65.294  39.939  0.00  0.00    +0.000 A 
ATOM     14  C   UNL     1     -62.736 -64.012  40.191  0.00  0.00    +0.000 A 
ATOM     15  C   UNL     1     -63.619 -66.114  40.995  0.00  0.00    +0.000 A 
ATOM     16  C   UNL     1     -62.644 -63.547  41.500  0.00  0.00    +0.000 A 
ATOM     17  C   UNL     1     -63.528 -65.653  42.306  0.00  0.00    +0.000 A 
ATOM     18  C   UNL     1     -63.041 -64.373  42.548  0.00  0.00    +0.000 A 
BRANCH  18  19
ATOM     19  O   UNL     1     -62.962 -63.944  43.840  0.00  0.00    +0.000 OA
ATOM     20  H   UNL     1     -62.946 -62.971  43.838  0.00  0.00    +0.000 HD
ENDBRANCH  18  19
ENDBRANCH  12  13
ENDBRANCH   1  11
TORSDOF 5
ENDMDL
MODEL 3
REMARK VINA RESULT:      -6.5     17.292     19.249
REMARK  Name = Resveratrol.pdbqt.pdb
REMARK  5 active torsions:
REMARK  status: ('A' for Active; 'I' for Inactive)
REMARK    1  A    between atoms: C_1  and  C_11
REMARK    2  A    between atoms: C_4  and  O_7
REMARK    3  A    between atoms: C_5  and  O_9
REMARK    4  A    between atoms: C_12  and  C_13
REMARK    5  A    between atoms: C_18  and  O_19
REMARK                            x       y       z     vdW  Elec       q    Type
REMARK                         _______ _______ _______ _____ _____    ______ ____
ROOT
ATOM      1  C   UNL     1     -47.660 -60.632  43.595  0.00  0.00    +0.000 A 
ATOM      2  C   UNL     1     -48.895 -60.219  43.098  0.00  0.00    +0.000 A 
ATOM      3  C   UNL     1     -47.398 -60.570  44.964  0.00  0.00    +0.000 A 
ATOM      4  C   UNL     1     -48.380 -60.092  45.828  0.00  0.00    +0.000 A 
ATOM      5  C   UNL     1     -49.862 -59.744  43.978  0.00  0.00    +0.000 A 
ATOM      6  C   UNL     1     -49.617 -59.677  45.345  0.00  0.00    +0.000 A 
ENDROOT
BRANCH   4   7
ATOM      7  O   UNL     1     -48.152 -60.020  47.171  0.00  0.00    +0.000 OA
ATOM      8  H   UNL     1     -48.079 -59.081  47.417  0.00  0.00    +0.000 HD
ENDBRANCH   4   7
BRANCH   5   9
ATOM      9  O   UNL     1     -51.064 -59.345  43.468  0.00  0.00    +0.000 OA
ATOM     10  H   UNL     1     -51.728 -60.019  43.701  0.00  0.00    +0.000 HD
ENDBRANCH   5   9
BRANCH   1  11
ATOM     11  C   UNL     1     -46.659 -61.120  42.704  0.00  0.00    +0.000 C 
ATOM     12  C   UNL     1     -45.817 -61.531  41.952  0.00  0.00    +0.000 C 
BRANCH  12  13
ATOM     13  C   UNL     1     -44.817 -62.017  41.059  0.00  0.00    +0.000 A 
ATOM     14  C   UNL     1     -44.493 -63.374  41.052  0.00  0.00    +0.000 A 
ATOM     15  C   UNL     1     -44.165 -61.136  40.197  0.00  0.00    +0.000 A 
ATOM     16  C   UNL     1     -43.517 -63.851  40.182  0.00  0.00    +0.000 A 
ATOM     17  C   UNL     1     -43.189 -61.610  39.325  0.00  0.00    +0.000 A 
ATOM     18  C   UNL     1     -42.872 -62.964  39.325  0.00  0.00    +0.000 A 
BRANCH  18  19
ATOM     19  O   UNL     1     -41.912 -63.405  38.462  0.00  0.00    +0.000 OA
ATOM     20  H   UNL     1     -42.025 -64.364  38.342  0.00  0.00    +0.000 HD
ENDBRANCH  18  19
ENDBRANCH  12  13
ENDBRANCH   1  11
TORSDOF 5
ENDMDL
MODEL 4
REMARK VINA RESULT:      -6.4     15.125     17.999
REMARK  Name = Resveratrol.pdbqt.pdb
REMARK  5 active torsions:
REMARK  status: ('A' for Active; 'I' for Inactive)
REMARK    1  A    between atoms: C_1  and  C_11
REMARK    2  A    between atoms: C_4  and  O_7
REMARK    3  A    between atoms: C_5  and  O_9
REMARK    4  A    between atoms: C_12  and  C_13
REMARK    5  A    between atoms: C_18  and  O_19
REMARK                            x       y       z     vdW  Elec       q    Type
REMARK                         _______ _______ _______ _____ _____    ______ ____
ROOT
ATOM      1  C   UNL     1     -50.167 -59.704  42.012  0.00  0.00    +0.000 A 
ATOM      2  C   UNL     1     -49.980 -59.148  40.747  0.00  0.00    +0.000 A 
ATOM      3  C   UNL     1     -51.364 -59.502  42.698  0.00  0.00    +0.000 A 
ATOM      4  C   UNL     1     -52.371 -58.741  42.108  0.00  0.00    +0.000 A 
ATOM      5  C   UNL     1     -50.998 -58.390  40.177  0.00  0.00    +0.000 A 
ATOM      6  C   UNL     1     -52.198 -58.180  40.847  0.00  0.00    +0.000 A 
ENDROOT
BRANCH   4   7
ATOM      7  O   UNL     1     -53.553 -58.528  42.756  0.00  0.00    +0.000 OA
ATOM      8  H   UNL     1     -53.860 -59.379  43.116  0.00  0.00    +0.000 HD
ENDBRANCH   4   7
BRANCH   5   9
ATOM      9  O   UNL     1     -50.792 -57.855  38.937  0.00  0.00    +0.000 OA
ATOM     10  H   UNL     1     -51.379 -58.315  38.311  0.00  0.00    +0.000 HD
ENDBRANCH   5   9
BRANCH   1  11
ATOM     11  C   UNL     1     -49.131 -60.482  42.608  0.00  0.00    +0.000 C 
ATOM     12  C   UNL     1     -48.259 -61.138  43.111  0.00  0.00    +0.000 C 
BRANCH  12  13
ATOM     13  C   UNL     1     -47.222 -61.916  43.706  0.00  0.00    +0.000 A 
ATOM     14  C   UNL     1     -47.241 -62.163  45.079  0.00  0.00    +0.000 A 
ATOM     15  C   UNL     1     -46.194 -62.427  42.915  0.00  0.00    +0.000 A 
ATOM     16  C   UNL     1     -46.231 -62.923  45.662  0.00  0.00    +0.000 A 
ATOM     17  C   UNL     1     -45.182 -63.186  43.495  0.00  0.00    +0.000 A 
ATOM     18  C   UNL     1     -45.208 -63.428  44.865  0.00  0.00    +0.000 A 
BRANCH  18  19
ATOM     19  O   UNL     1     -44.205 -64.175  45.410  0.00  0.00    +0.000 OA
ATOM     20  H   UNL     1     -43.398 -64.034  44.885  0.00  0.00    +0.000 HD
ENDBRANCH  18  19
ENDBRANCH  12  13
ENDBRANCH   1  11
TORSDOF 5
ENDMDL
MODEL 5
REMARK VINA RESULT:      -5.9     16.357     17.735
REMARK  Name = Resveratrol.pdbqt.pdb
REMARK  5 active torsions:
REMARK  status: ('A' for Active; 'I' for Inactive)
REMARK    1  A    between atoms: C_1  and  C_11
REMARK    2  A    between atoms: C_4  and  O_7
REMARK    3  A    between atoms: C_5  and  O_9
REMARK    4  A    between atoms: C_12  and  C_13
REMARK    5  A    between atoms: C_18  and  O_19
REMARK                            x       y       z     vdW  Elec       q    Type
REMARK                         _______ _______ _______ _____ _____    ______ ____
ROOT
ATOM      1  C   UNL     1     -46.724 -62.429  42.120  0.00  0.00    +0.000 A 
ATOM      2  C   UNL     1     -47.549 -61.622  42.902  0.00  0.00    +0.000 A 
ATOM      3  C   UNL     1     -45.720 -63.192  42.715  0.00  0.00    +0.000 A 
ATOM      4  C   UNL     1     -45.550 -63.141  44.096  0.00  0.00    +0.000 A 
ATOM      5  C   UNL     1     -47.361 -61.585  44.280  0.00  0.00    +0.000 A 
ATOM      6  C   UNL     1     -46.365 -62.341  44.889  0.00  0.00    +0.000 A 
ENDROOT
BRANCH   4   7
ATOM      7  O   UNL     1     -44.576 -63.878  44.706  0.00  0.00    +0.000 OA
ATOM      8  H   UNL     1     -44.637 -63.726  45.666  0.00  0.00    +0.000 HD
ENDBRANCH   4   7
BRANCH   5   9
ATOM      9  O   UNL     1     -48.181 -60.787  45.026  0.00  0.00    +0.000 OA
ATOM     10  H   UNL     1     -47.634 -60.096  45.439  0.00  0.00    +0.000 HD
ENDBRANCH   5   9
BRANCH   1  11
ATOM     11  C   UNL     1     -46.905 -62.475  40.706  0.00  0.00    +0.000 C 
ATOM     12  C   UNL     1     -47.058 -62.514  39.515  0.00  0.00    +0.000 C 
BRANCH  12  13
ATOM     13  C   UNL     1     -47.240 -62.559  38.101  0.00  0.00    +0.000 A 
ATOM     14  C   UNL     1     -48.334 -61.917  37.521  0.00  0.00    +0.000 A 
ATOM     15  C   UNL     1     -46.324 -63.245  37.304  0.00  0.00    +0.000 A 
ATOM     16  C   UNL     1     -48.513 -61.960  36.141  0.00  0.00    +0.000 A 
ATOM     17  C   UNL     1     -46.501 -63.290  35.924  0.00  0.00    +0.000 A 
ATOM     18  C   UNL     1     -47.594 -62.647  35.353  0.00  0.00    +0.000 A 
BRANCH  18  19
ATOM     19  O   UNL     1     -47.746 -62.705  33.998  0.00  0.00    +0.000 OA
ATOM     20  H   UNL     1     -47.330 -61.915  33.610  0.00  0.00    +0.000 HD
ENDBRANCH  18  19
ENDBRANCH  12  13
ENDBRANCH   1  11
TORSDOF 5
ENDMDL
MODEL 6
REMARK VINA RESULT:      -5.9     35.173     35.901
REMARK  Name = Resveratrol.pdbqt.pdb
REMARK  5 active torsions:
REMARK  status: ('A' for Active; 'I' for Inactive)
REMARK    1  A    between atoms: C_1  and  C_11
REMARK    2  A    between atoms: C_4  and  O_7
REMARK    3  A    between atoms: C_5  and  O_9
REMARK    4  A    between atoms: C_12  and  C_13
REMARK    5  A    between atoms: C_18  and  O_19
REMARK                            x       y       z     vdW  Elec       q    Type
REMARK                         _______ _______ _______ _____ _____    ______ ____
ROOT
ATOM      1  C   UNL     1     -40.518 -42.079  47.544  0.00  0.00    +0.000 A 
ATOM      2  C   UNL     1     -39.566 -43.004  47.968  0.00  0.00    +0.000 A 
ATOM      3  C   UNL     1     -40.485 -41.585  46.240  0.00  0.00    +0.000 A 
ATOM      4  C   UNL     1     -39.494 -42.024  45.367  0.00  0.00    +0.000 A 
ATOM      5  C   UNL     1     -38.583 -43.430  47.080  0.00  0.00    +0.000 A 
ATOM      6  C   UNL     1     -38.537 -42.948  45.776  0.00  0.00    +0.000 A 
ENDROOT
BRANCH   4   7
ATOM      7  O   UNL     1     -39.437 -41.559  44.085  0.00  0.00    +0.000 OA
ATOM      8  H   UNL     1     -38.535 -41.231  43.921  0.00  0.00    +0.000 HD
ENDBRANCH   4   7
BRANCH   5   9
ATOM      9  O   UNL     1     -37.661 -44.337  47.517  0.00  0.00    +0.000 OA
ATOM     10  H   UNL     1     -37.644 -44.303  48.490  0.00  0.00    +0.000 HD
ENDBRANCH   5   9
BRANCH   1  11
ATOM     11  C   UNL     1     -41.530 -41.633  48.445  0.00  0.00    +0.000 C 
ATOM     12  C   UNL     1     -42.381 -41.258  49.205  0.00  0.00    +0.000 C 
BRANCH  12  13
ATOM     13  C   UNL     1     -43.393 -40.811  50.106  0.00  0.00    +0.000 A 
ATOM     14  C   UNL     1     -43.660 -41.538  51.266  0.00  0.00    +0.000 A 
ATOM     15  C   UNL     1     -44.113 -39.651  49.824  0.00  0.00    +0.000 A 
ATOM     16  C   UNL     1     -44.646 -41.104  52.147  0.00  0.00    +0.000 A 
ATOM     17  C   UNL     1     -45.100 -39.214  50.702  0.00  0.00    +0.000 A 
ATOM     18  C   UNL     1     -45.360 -39.945  51.857  0.00  0.00    +0.000 A 
BRANCH  18  19
ATOM     19  O   UNL     1     -46.332 -39.497  52.703  0.00  0.00    +0.000 OA
ATOM     20  H   UNL     1     -45.907 -38.991  53.417  0.00  0.00    +0.000 HD
ENDBRANCH  18  19
ENDBRANCH  12  13
ENDBRANCH   1  11
TORSDOF 5
ENDMDL
MODEL 7
REMARK VINA RESULT:      -5.7      5.394      7.053
REMARK  Name = Resveratrol.pdbqt.pdb
REMARK  5 active torsions:
REMARK  status: ('A' for Active; 'I' for Inactive)
REMARK    1  A    between atoms: C_1  and  C_11
REMARK    2  A    between atoms: C_4  and  O_7
REMARK    3  A    between atoms: C_5  and  O_9
REMARK    4  A    between atoms: C_12  and  C_13
REMARK    5  A    between atoms: C_18  and  O_19
REMARK                            x       y       z     vdW  Elec       q    Type
REMARK                         _______ _______ _______ _____ _____    ______ ____
ROOT
ATOM      1  C   UNL     1     -61.903 -65.616  40.288  0.00  0.00    +0.000 A 
ATOM      2  C   UNL     1     -61.346 -64.366  40.019  0.00  0.00    +0.000 A 
ATOM      3  C   UNL     1     -63.288 -65.776  40.314  0.00  0.00    +0.000 A 
ATOM      4  C   UNL     1     -64.109 -64.679  40.068  0.00  0.00    +0.000 A 
ATOM      5  C   UNL     1     -62.184 -63.282  39.777  0.00  0.00    +0.000 A 
ATOM      6  C   UNL     1     -63.567 -63.426  39.798  0.00  0.00    +0.000 A 
ENDROOT
BRANCH   4   7
ATOM      7  O   UNL     1     -65.467 -64.807  40.086  0.00  0.00    +0.000 OA
ATOM      8  H   UNL     1     -65.816 -64.457  39.247  0.00  0.00    +0.000 HD
ENDBRANCH   4   7
BRANCH   5   9
ATOM      9  O   UNL     1     -61.616 -62.068  39.515  0.00  0.00    +0.000 OA
ATOM     10  H   UNL     1     -60.649 -62.179  39.534  0.00  0.00    +0.000 HD
ENDBRANCH   5   9
BRANCH   1  11
ATOM     11  C   UNL     1     -61.055 -66.734  40.539  0.00  0.00    +0.000 C 
ATOM     12  C   UNL     1     -60.339 -67.676  40.751  0.00  0.00    +0.000 C 
BRANCH  12  13
ATOM     13  C   UNL     1     -59.491 -68.795  41.003  0.00  0.00    +0.000 A 
ATOM     14  C   UNL     1     -59.972 -69.880  41.736  0.00  0.00    +0.000 A 
ATOM     15  C   UNL     1     -58.184 -68.800  40.517  0.00  0.00    +0.000 A 
ATOM     16  C   UNL     1     -59.146 -70.973  41.983  0.00  0.00    +0.000 A 
ATOM     17  C   UNL     1     -57.355 -69.891  40.763  0.00  0.00    +0.000 A 
ATOM     18  C   UNL     1     -57.843 -70.969  41.494  0.00  0.00    +0.000 A 
BRANCH  18  19
ATOM     19  O   UNL     1     -57.012 -72.027  41.722  0.00  0.00    +0.000 OA
ATOM     20  H   UNL     1     -56.096 -71.698  41.738  0.00  0.00    +0.000 HD
ENDBRANCH  18  19
ENDBRANCH  12  13
ENDBRANCH   1  11
TORSDOF 5
ENDMDL
MODEL 8
REMARK VINA RESULT:      -5.5     20.982     22.647
REMARK  Name = Resveratrol.pdbqt.pdb
REMARK  5 active torsions:
REMARK  status: ('A' for Active; 'I' for Inactive)
REMARK    1  A    between atoms: C_1  and  C_11
REMARK    2  A    between atoms: C_4  and  O_7
REMARK    3  A    between atoms: C_5  and  O_9
REMARK    4  A    between atoms: C_12  and  C_13
REMARK    5  A    between atoms: C_18  and  O_19
REMARK                            x       y       z     vdW  Elec       q    Type
REMARK                         _______ _______ _______ _____ _____    ______ ____
ROOT
ATOM      1  C   UNL     1     -42.846 -57.465  36.435  0.00  0.00    +0.000 A 
ATOM      2  C   UNL     1     -43.794 -56.477  36.696  0.00  0.00    +0.000 A 
ATOM      3  C   UNL     1     -41.801 -57.218  35.545  0.00  0.00    +0.000 A 
ATOM      4  C   UNL     1     -41.713 -55.976  34.921  0.00  0.00    +0.000 A 
ATOM      5  C   UNL     1     -43.688 -55.243  36.061  0.00  0.00    +0.000 A 
ATOM      6  C   UNL     1     -42.651 -54.981  35.172  0.00  0.00    +0.000 A 
ENDROOT
BRANCH   4   7
ATOM      7  O   UNL     1     -40.701 -55.706  34.046  0.00  0.00    +0.000 OA
ATOM      8  H   UNL     1     -39.866 -55.677  34.547  0.00  0.00    +0.000 HD
ENDBRANCH   4   7
BRANCH   5   9
ATOM      9  O   UNL     1     -44.627 -54.290  36.333  0.00  0.00    +0.000 OA
ATOM     10  H   UNL     1     -44.597 -54.102  37.288  0.00  0.00    +0.000 HD
ENDBRANCH   5   9
BRANCH   1  11
ATOM     11  C   UNL     1     -42.945 -58.734  37.077  0.00  0.00    +0.000 C 
ATOM     12  C   UNL     1     -43.028 -59.803  37.620  0.00  0.00    +0.000 C 
BRANCH  12  13
ATOM     13  C   UNL     1     -43.127 -61.072  38.263  0.00  0.00    +0.000 A 
ATOM     14  C   UNL     1     -42.674 -62.219  37.611  0.00  0.00    +0.000 A 
ATOM     15  C   UNL     1     -43.677 -61.163  39.541  0.00  0.00    +0.000 A 
ATOM     16  C   UNL     1     -42.769 -63.458  38.237  0.00  0.00    +0.000 A 
ATOM     17  C   UNL     1     -43.775 -62.401  40.170  0.00  0.00    +0.000 A 
ATOM     18  C   UNL     1     -43.320 -63.540  39.512  0.00  0.00    +0.000 A 
BRANCH  18  19
ATOM     19  O   UNL     1     -43.427 -64.742  40.149  0.00  0.00    +0.000 OA
ATOM     20  H   UNL     1     -44.234 -65.184  39.834  0.00  0.00    +0.000 HD
ENDBRANCH  18  19
ENDBRANCH  12  13
ENDBRANCH   1  11
TORSDOF 5
ENDMDL
MODEL 9
REMARK VINA RESULT:      -5.5     27.101     31.246
REMARK  Name = Resveratrol.pdbqt.pdb
REMARK  5 active torsions:
REMARK  status: ('A' for Active; 'I' for Inactive)
REMARK    1  A    between atoms: C_1  and  C_11
REMARK    2  A    between atoms: C_4  and  O_7
REMARK    3  A    between atoms: C_5  and  O_9
REMARK    4  A    between atoms: C_12  and  C_13
REMARK    5  A    between atoms: C_18  and  O_19
REMARK                            x       y       z     vdW  Elec       q    Type
REMARK                         _______ _______ _______ _____ _____    ______ ____
ROOT
ATOM      1  C   UNL     1     -64.625 -42.033  52.393  0.00  0.00    +0.000 A 
ATOM      2  C   UNL     1     -65.443 -43.144  52.191  0.00  0.00    +0.000 A 
ATOM      3  C   UNL     1     -64.183 -41.279  51.306  0.00  0.00    +0.000 A 
ATOM      4  C   UNL     1     -64.566 -41.646  50.018  0.00  0.00    +0.000 A 
ATOM      5  C   UNL     1     -65.813 -43.493  50.896  0.00  0.00    +0.000 A 
ATOM      6  C   UNL     1     -65.381 -42.751  49.802  0.00  0.00    +0.000 A 
ENDROOT
BRANCH   4   7
ATOM      7  O   UNL     1     -64.149 -40.927  48.936  0.00  0.00    +0.000 OA
ATOM      8  H   UNL     1     -64.806 -40.229  48.763  0.00  0.00    +0.000 HD
ENDBRANCH   4   7
BRANCH   5   9
ATOM      9  O   UNL     1     -66.615 -44.585  50.723  0.00  0.00    +0.000 OA
ATOM     10  H   UNL     1     -66.042 -45.357  50.572  0.00  0.00    +0.000 HD
ENDBRANCH   5   9
BRANCH   1  11
ATOM     11  C   UNL     1     -64.237 -41.665  53.715  0.00  0.00    +0.000 C 
ATOM     12  C   UNL     1     -63.911 -41.355  54.829  0.00  0.00    +0.000 C 
BRANCH  12  13
ATOM     13  C   UNL     1     -63.523 -40.988  56.151  0.00  0.00    +0.000 A 
ATOM     14  C   UNL     1     -63.877 -41.798  57.230  0.00  0.00    +0.000 A 
ATOM     15  C   UNL     1     -62.791 -39.820  56.363  0.00  0.00    +0.000 A 
ATOM     16  C   UNL     1     -63.500 -41.442  58.521  0.00  0.00    +0.000 A 
ATOM     17  C   UNL     1     -62.411 -39.460  57.653  0.00  0.00    +0.000 A 
ATOM     18  C   UNL     1     -62.769 -40.274  58.723  0.00  0.00    +0.000 A 
BRANCH  18  19
ATOM     19  O   UNL     1     -62.386 -39.901  59.978  0.00  0.00    +0.000 OA
ATOM     20  H   UNL     1     -61.709 -39.206  59.896  0.00  0.00    +0.000 HD
ENDBRANCH  18  19
ENDBRANCH  12  13
ENDBRANCH   1  11
TORSDOF 5
ENDMDL
