MODEL 1
REMARK VINA RESULT:      -7.2      0.000      0.000
REMARK  Name = RetinoicAcid.pdbqt.pdb
REMARK  6 active torsions:
REMARK  status: ('A' for Active; 'I' for Inactive)
REMARK    1  A    between atoms: C_1  and  C_3
REMARK    2  A    between atoms: C_1  and  C_5
REMARK    3  A    between atoms: C_3  and  C_15
REMARK    4  A    between atoms: C_4  and  C_9
REMARK    5  A    between atoms: C_16  and  C_17
REMARK    6  A    between atoms: C_21  and  O_22
REMARK                            x       y       z     vdW  Elec       q    Type
REMARK                         _______ _______ _______ _____ _____    ______ ____
ROOT
ATOM      1  C   UNL     1     -45.482 -62.545  40.914  0.00  0.00    +0.000 C 
ATOM      2  C   UNL     1     -45.233 -64.010  41.102  0.00  0.00    +0.000 C 
ENDROOT
BRANCH   1   4
ATOM      3  C   UNL     1     -47.299 -61.320  42.347  0.00  0.00    +0.000 C 
ATOM      4  C   UNL     1     -46.463 -61.886  41.694  0.00  0.00    +0.000 C 
BRANCH   3   8
ATOM      5  C   UNL     1     -48.304 -60.777  44.685  0.00  0.00    +0.000 C 
ATOM      6  C   UNL     1     -49.429 -59.976  45.223  0.00  0.00    +0.000 C 
ATOM      7  C   UNL     1     -50.568 -59.079  44.780  0.00  0.00    +0.000 C 
ATOM      8  C   UNL     1     -48.306 -60.638  43.126  0.00  0.00    +0.000 C 
ATOM      9  C   UNL     1     -50.215 -59.215  43.315  0.00  0.00    +0.000 C 
ATOM     10  C   UNL     1     -49.243 -59.875  42.511  0.00  0.00    +0.000 C 
ATOM     11  C   UNL     1     -48.495 -62.272  45.059  0.00  0.00    +0.000 C 
ATOM     12  C   UNL     1     -46.956 -60.229  45.233  0.00  0.00    +0.000 C 
ATOM     13  C   UNL     1     -49.325 -59.664  41.024  0.00  0.00    +0.000 C 
ENDBRANCH   3   8
ENDBRANCH   1   4
BRANCH   1  14
ATOM     14  C   UNL     1     -44.831 -61.891  40.003  0.00  0.00    +0.000 C 
BRANCH  14  15
ATOM     15  C   UNL     1     -44.060 -61.116  38.927  0.00  0.00    +0.000 C 
ATOM     16  C   UNL     1     -43.455 -60.511  38.086  0.00  0.00    +0.000 C 
BRANCH  16  17
ATOM     17  C   UNL     1     -42.739 -59.801  37.092  0.00  0.00    +0.000 C 
ATOM     18  C   UNL     1     -41.399 -60.297  36.643  0.00  0.00    +0.000 C 
ATOM     19  C   UNL     1     -43.225 -58.713  36.597  0.00  0.00    +0.000 C 
ATOM     20  O   UNL     1     -44.604 -57.518  35.159  0.00  0.00    +0.000 OA
ATOM     21  C   UNL     1     -43.776 -57.523  36.052  0.00  0.00    +0.000 C 
BRANCH  21  22
ATOM     22  O   UNL     1     -43.320 -56.397  36.624  0.00  0.00    +0.000 OA
ATOM     23  H   UNL     1     -42.496 -56.674  37.076  0.00  0.00    +0.000 HD
ENDBRANCH  21  22
ENDBRANCH  16  17
ENDBRANCH  14  15
ENDBRANCH   1  14
TORSDOF 6
ENDMDL
MODEL 2
REMARK VINA RESULT:      -7.0      1.796      2.268
REMARK  Name = RetinoicAcid.pdbqt.pdb
REMARK  6 active torsions:
REMARK  status: ('A' for Active; 'I' for Inactive)
REMARK    1  A    between atoms: C_1  and  C_3
REMARK    2  A    between atoms: C_1  and  C_5
REMARK    3  A    between atoms: C_3  and  C_15
REMARK    4  A    between atoms: C_4  and  C_9
REMARK    5  A    between atoms: C_16  and  C_17
REMARK    6  A    between atoms: C_21  and  O_22
REMARK                            x       y       z     vdW  Elec       q    Type
REMARK                         _______ _______ _______ _____ _____    ______ ____
ROOT
ATOM      1  C   UNL     1     -45.596 -62.594  40.786  0.00  0.00    +0.000 C 
ATOM      2  C   UNL     1     -45.444 -64.081  40.886  0.00  0.00    +0.000 C 
ENDROOT
BRANCH   1   4
ATOM      3  C   UNL     1     -47.370 -61.346  42.254  0.00  0.00    +0.000 C 
ATOM      4  C   UNL     1     -46.556 -61.924  41.583  0.00  0.00    +0.000 C 
BRANCH   3   8
ATOM      5  C   UNL     1     -48.305 -60.775  44.614  0.00  0.00    +0.000 C 
ATOM      6  C   UNL     1     -49.406 -59.958  45.176  0.00  0.00    +0.000 C 
ATOM      7  C   UNL     1     -50.546 -59.050  44.757  0.00  0.00    +0.000 C 
ATOM      8  C   UNL     1     -48.347 -60.646  43.054  0.00  0.00    +0.000 C 
ATOM      9  C   UNL     1     -50.234 -59.200  43.285  0.00  0.00    +0.000 C 
ATOM     10  C   UNL     1     -49.292 -59.877  42.459  0.00  0.00    +0.000 C 
ATOM     11  C   UNL     1     -48.503 -62.265  45.003  0.00  0.00    +0.000 C 
ATOM     12  C   UNL     1     -46.937 -60.239  45.122  0.00  0.00    +0.000 C 
ATOM     13  C   UNL     1     -49.412 -59.675  40.974  0.00  0.00    +0.000 C 
ENDBRANCH   3   8
ENDBRANCH   1   4
BRANCH   1  14
ATOM     14  C   UNL     1     -44.881 -61.927  39.935  0.00  0.00    +0.000 C 
BRANCH  14  15
ATOM     15  C   UNL     1     -44.037 -61.138  38.927  0.00  0.00    +0.000 C 
ATOM     16  C   UNL     1     -43.374 -60.521  38.139  0.00  0.00    +0.000 C 
BRANCH  16  17
ATOM     17  C   UNL     1     -42.589 -59.795  37.211  0.00  0.00    +0.000 C 
ATOM     18  C   UNL     1     -42.972 -58.393  36.847  0.00  0.00    +0.000 C 
ATOM     19  C   UNL     1     -41.564 -60.351  36.657  0.00  0.00    +0.000 C 
ATOM     20  O   UNL     1     -39.346 -61.038  36.608  0.00  0.00    +0.000 OA
ATOM     21  C   UNL     1     -40.432 -60.968  36.063  0.00  0.00    +0.000 C 
BRANCH  21  22
ATOM     22  O   UNL     1     -40.669 -61.494  34.850  0.00  0.00    +0.000 OA
ATOM     23  H   UNL     1     -40.648 -62.462  35.000  0.00  0.00    +0.000 HD
ENDBRANCH  21  22
ENDBRANCH  16  17
ENDBRANCH  14  15
ENDBRANCH   1  14
TORSDOF 6
ENDMDL
MODEL 3
REMARK VINA RESULT:      -7.0      1.299      2.568
REMARK  Name = RetinoicAcid.pdbqt.pdb
REMARK  6 active torsions:
REMARK  status: ('A' for Active; 'I' for Inactive)
REMARK    1  A    between atoms: C_1  and  C_3
REMARK    2  A    between atoms: C_1  and  C_5
REMARK    3  A    between atoms: C_3  and  C_15
REMARK    4  A    between atoms: C_4  and  C_9
REMARK    5  A    between atoms: C_16  and  C_17
REMARK    6  A    between atoms: C_21  and  O_22
REMARK                            x       y       z     vdW  Elec       q    Type
REMARK                         _______ _______ _______ _____ _____    ______ ____
ROOT
ATOM      1  C   UNL     1     -44.969 -62.777  39.872  0.00  0.00    +0.000 C 
ATOM      2  C   UNL     1     -45.035 -64.208  39.432  0.00  0.00    +0.000 C 
ENDROOT
BRANCH   1   4
ATOM      3  C   UNL     1     -46.100 -62.053  42.121  0.00  0.00    +0.000 C 
ATOM      4  C   UNL     1     -45.580 -62.380  41.087  0.00  0.00    +0.000 C 
BRANCH   3   8
ATOM      5  C   UNL     1     -47.793 -60.524  43.372  0.00  0.00    +0.000 C 
ATOM      6  C   UNL     1     -48.267 -60.342  44.764  0.00  0.00    +0.000 C 
ATOM      7  C   UNL     1     -48.068 -60.881  46.168  0.00  0.00    +0.000 C 
ATOM      8  C   UNL     1     -46.723 -61.667  43.365  0.00  0.00    +0.000 C 
ATOM      9  C   UNL     1     -47.031 -61.888  45.723  0.00  0.00    +0.000 C 
ATOM     10  C   UNL     1     -46.389 -62.295  44.519  0.00  0.00    +0.000 C 
ATOM     11  C   UNL     1     -47.136 -59.213  42.863  0.00  0.00    +0.000 C 
ATOM     12  C   UNL     1     -48.981 -60.947  42.461  0.00  0.00    +0.000 C 
ATOM     13  C   UNL     1     -45.386 -63.411  44.620  0.00  0.00    +0.000 C 
ENDBRANCH   3   8
ENDBRANCH   1   4
BRANCH   1  14
ATOM     14  C   UNL     1     -44.395 -61.894  39.117  0.00  0.00    +0.000 C 
BRANCH  14  15
ATOM     15  C   UNL     1     -43.715 -60.851  38.221  0.00  0.00    +0.000 C 
ATOM     16  C   UNL     1     -43.186 -60.034  37.519  0.00  0.00    +0.000 C 
BRANCH  16  17
ATOM     17  C   UNL     1     -42.565 -59.068  36.691  0.00  0.00    +0.000 C 
ATOM     18  C   UNL     1     -41.182 -59.312  36.170  0.00  0.00    +0.000 C 
ATOM     19  C   UNL     1     -43.176 -57.966  36.413  0.00  0.00    +0.000 C 
ATOM     20  O   UNL     1     -44.697 -56.677  35.219  0.00  0.00    +0.000 OA
ATOM     21  C   UNL     1     -43.864 -56.763  36.103  0.00  0.00    +0.000 C 
BRANCH  21  22
ATOM     22  O   UNL     1     -43.532 -55.725  36.889  0.00  0.00    +0.000 OA
ATOM     23  H   UNL     1     -44.202 -55.042  36.679  0.00  0.00    +0.000 HD
ENDBRANCH  21  22
ENDBRANCH  16  17
ENDBRANCH  14  15
ENDBRANCH   1  14
TORSDOF 6
ENDMDL
MODEL 4
REMARK VINA RESULT:      -6.5      2.553      3.615
REMARK  Name = RetinoicAcid.pdbqt.pdb
REMARK  6 active torsions:
REMARK  status: ('A' for Active; 'I' for Inactive)
REMARK    1  A    between atoms: C_1  and  C_3
REMARK    2  A    between atoms: C_1  and  C_5
REMARK    3  A    between atoms: C_3  and  C_15
REMARK    4  A    between atoms: C_4  and  C_9
REMARK    5  A    between atoms: C_16  and  C_17
REMARK    6  A    between atoms: C_21  and  O_22
REMARK                            x       y       z     vdW  Elec       q    Type
REMARK                         _______ _______ _______ _____ _____    ______ ____
ROOT
ATOM      1  C   UNL     1     -46.279 -62.578  39.469  0.00  0.00    +0.000 C 
ATOM      2  C   UNL     1     -47.107 -63.598  38.748  0.00  0.00    +0.000 C 
ENDROOT
BRANCH   1   4
ATOM      3  C   UNL     1     -46.946 -61.833  41.889  0.00  0.00    +0.000 C 
ATOM      4  C   UNL     1     -46.638 -62.170  40.776  0.00  0.00    +0.000 C 
BRANCH   3   8
ATOM      5  C   UNL     1     -48.415 -60.339  43.432  0.00  0.00    +0.000 C 
ATOM      6  C   UNL     1     -48.599 -60.134  44.888  0.00  0.00    +0.000 C 
ATOM      7  C   UNL     1     -48.088 -60.619  46.231  0.00  0.00    +0.000 C 
ATOM      8  C   UNL     1     -47.316 -61.435  43.227  0.00  0.00    +0.000 C 
ATOM      9  C   UNL     1     -47.117 -61.595  45.602  0.00  0.00    +0.000 C 
ATOM     10  C   UNL     1     -46.720 -62.012  44.300  0.00  0.00    +0.000 C 
ATOM     11  C   UNL     1     -47.942 -59.018  42.769  0.00  0.00    +0.000 C 
ATOM     12  C   UNL     1     -49.743 -60.841  42.798  0.00  0.00    +0.000 C 
ATOM     13  C   UNL     1     -45.665 -63.080  44.214  0.00  0.00    +0.000 C 
ENDBRANCH   3   8
ENDBRANCH   1   4
BRANCH   1  14
ATOM     14  C   UNL     1     -45.263 -62.035  38.876  0.00  0.00    +0.000 C 
BRANCH  14  15
ATOM     15  C   UNL     1     -44.060 -61.393  38.173  0.00  0.00    +0.000 C 
ATOM     16  C   UNL     1     -43.118 -60.891  37.624  0.00  0.00    +0.000 C 
BRANCH  16  17
ATOM     17  C   UNL     1     -42.004 -60.305  36.975  0.00  0.00    +0.000 C 
ATOM     18  C   UNL     1     -42.152 -58.976  36.299  0.00  0.00    +0.000 C 
ATOM     19  C   UNL     1     -40.875 -60.928  36.939  0.00  0.00    +0.000 C 
ATOM     20  O   UNL     1     -38.840 -61.595  37.841  0.00  0.00    +0.000 OA
ATOM     21  C   UNL     1     -39.633 -61.617  36.918  0.00  0.00    +0.000 C 
BRANCH  21  22
ATOM     22  O   UNL     1     -39.418 -62.319  35.793  0.00  0.00    +0.000 OA
ATOM     23  H   UNL     1     -38.632 -62.868  36.000  0.00  0.00    +0.000 HD
ENDBRANCH  21  22
ENDBRANCH  16  17
ENDBRANCH  14  15
ENDBRANCH   1  14
TORSDOF 6
ENDMDL
MODEL 5
REMARK VINA RESULT:      -6.0     10.277     14.757
REMARK  Name = RetinoicAcid.pdbqt.pdb
REMARK  6 active torsions:
REMARK  status: ('A' for Active; 'I' for Inactive)
REMARK    1  A    between atoms: C_1  and  C_3
REMARK    2  A    between atoms: C_1  and  C_5
REMARK    3  A    between atoms: C_3  and  C_15
REMARK    4  A    between atoms: C_4  and  C_9
REMARK    5  A    between atoms: C_16  and  C_17
REMARK    6  A    between atoms: C_21  and  O_22
REMARK                            x       y       z     vdW  Elec       q    Type
REMARK                         _______ _______ _______ _____ _____    ______ ____
ROOT
ATOM      1  C   UNL     1     -46.373 -61.980  28.275  0.00  0.00    +0.000 C 
ATOM      2  C   UNL     1     -46.466 -60.683  27.530  0.00  0.00    +0.000 C 
ENDROOT
BRANCH   1   4
ATOM      3  C   UNL     1     -45.898 -64.201  26.971  0.00  0.00    +0.000 C 
ATOM      4  C   UNL     1     -46.119 -63.184  27.574  0.00  0.00    +0.000 C 
BRANCH   3   8
ATOM      5  C   UNL     1     -44.691 -65.379  24.989  0.00  0.00    +0.000 C 
ATOM      6  C   UNL     1     -44.583 -66.754  24.449  0.00  0.00    +0.000 C 
ATOM      7  C   UNL     1     -45.067 -68.170  24.695  0.00  0.00    +0.000 C 
ATOM      8  C   UNL     1     -45.627 -65.419  26.244  0.00  0.00    +0.000 C 
ATOM      9  C   UNL     1     -45.878 -67.770  25.908  0.00  0.00    +0.000 C 
ATOM     10  C   UNL     1     -46.174 -66.591  26.649  0.00  0.00    +0.000 C 
ATOM     11  C   UNL     1     -45.316 -64.440  23.922  0.00  0.00    +0.000 C 
ATOM     12  C   UNL     1     -43.288 -64.873  25.430  0.00  0.00    +0.000 C 
ATOM     13  C   UNL     1     -47.073 -66.741  27.845  0.00  0.00    +0.000 C 
ENDBRANCH   3   8
ENDBRANCH   1   4
BRANCH   1  14
ATOM     14  C   UNL     1     -46.572 -62.006  29.555  0.00  0.00    +0.000 C 
BRANCH  14  15
ATOM     15  C   UNL     1     -46.809 -62.037  31.070  0.00  0.00    +0.000 C 
ATOM     16  C   UNL     1     -46.993 -62.062  32.256  0.00  0.00    +0.000 C 
BRANCH  16  17
ATOM     17  C   UNL     1     -47.205 -62.091  33.656  0.00  0.00    +0.000 C 
ATOM     18  C   UNL     1     -47.302 -63.406  34.367  0.00  0.00    +0.000 C 
ATOM     19  C   UNL     1     -47.348 -60.988  34.311  0.00  0.00    +0.000 C 
ATOM     20  O   UNL     1     -46.545 -59.096  35.393  0.00  0.00    +0.000 OA
ATOM     21  C   UNL     1     -47.490 -59.768  35.024  0.00  0.00    +0.000 C 
BRANCH  21  22
ATOM     22  O   UNL     1     -48.765 -59.405  35.236  0.00  0.00    +0.000 OA
ATOM     23  H   UNL     1     -48.818 -59.268  36.205  0.00  0.00    +0.000 HD
ENDBRANCH  21  22
ENDBRANCH  16  17
ENDBRANCH  14  15
ENDBRANCH   1  14
TORSDOF 6
ENDMDL
MODEL 6
REMARK VINA RESULT:      -6.0      4.912      9.304
REMARK  Name = RetinoicAcid.pdbqt.pdb
REMARK  6 active torsions:
REMARK  status: ('A' for Active; 'I' for Inactive)
REMARK    1  A    between atoms: C_1  and  C_3
REMARK    2  A    between atoms: C_1  and  C_5
REMARK    3  A    between atoms: C_3  and  C_15
REMARK    4  A    between atoms: C_4  and  C_9
REMARK    5  A    between atoms: C_16  and  C_17
REMARK    6  A    between atoms: C_21  and  O_22
REMARK                            x       y       z     vdW  Elec       q    Type
REMARK                         _______ _______ _______ _____ _____    ______ ____
ROOT
ATOM      1  C   UNL     1     -41.943 -60.346  36.751  0.00  0.00    +0.000 C 
ATOM      2  C   UNL     1     -40.680 -61.133  36.920  0.00  0.00    +0.000 C 
ENDROOT
BRANCH   1   4
ATOM      3  C   UNL     1     -41.854 -57.862  35.924  0.00  0.00    +0.000 C 
ATOM      4  C   UNL     1     -41.889 -59.004  36.303  0.00  0.00    +0.000 C 
BRANCH   3   8
ATOM      5  C   UNL     1     -43.150 -55.677  35.364  0.00  0.00    +0.000 C 
ATOM      6  C   UNL     1     -42.822 -54.313  34.887  0.00  0.00    +0.000 C 
ATOM      7  C   UNL     1     -41.647 -53.449  34.473  0.00  0.00    +0.000 C 
ATOM      8  C   UNL     1     -41.817 -56.492  35.472  0.00  0.00    +0.000 C 
ATOM      9  C   UNL     1     -40.643 -54.555  34.713  0.00  0.00    +0.000 C 
ATOM     10  C   UNL     1     -40.635 -55.911  35.150  0.00  0.00    +0.000 C 
ATOM     11  C   UNL     1     -44.090 -56.380  34.347  0.00  0.00    +0.000 C 
ATOM     12  C   UNL     1     -43.804 -55.602  36.773  0.00  0.00    +0.000 C 
ATOM     13  C   UNL     1     -39.300 -56.598  35.231  0.00  0.00    +0.000 C 
ENDBRANCH   3   8
ENDBRANCH   1   4
BRANCH   1  14
ATOM     14  C   UNL     1     -43.083 -60.879  37.061  0.00  0.00    +0.000 C 
BRANCH  14  15
ATOM     15  C   UNL     1     -44.433 -61.511  37.425  0.00  0.00    +0.000 C 
ATOM     16  C   UNL     1     -45.488 -62.007  37.710  0.00  0.00    +0.000 C 
BRANCH  16  17
ATOM     17  C   UNL     1     -46.730 -62.596  38.048  0.00  0.00    +0.000 C 
ATOM     18  C   UNL     1     -46.782 -64.030  38.478  0.00  0.00    +0.000 C 
ATOM     19  C   UNL     1     -47.819 -61.908  37.957  0.00  0.00    +0.000 C 
ATOM     20  O   UNL     1     -49.375 -60.368  38.732  0.00  0.00    +0.000 OA
ATOM     21  C   UNL     1     -49.008 -61.138  37.864  0.00  0.00    +0.000 C 
BRANCH  21  22
ATOM     22  O   UNL     1     -49.686 -61.314  36.717  0.00  0.00    +0.000 OA
ATOM     23  H   UNL     1     -50.039 -62.225  36.786  0.00  0.00    +0.000 HD
ENDBRANCH  21  22
ENDBRANCH  16  17
ENDBRANCH  14  15
ENDBRANCH   1  14
TORSDOF 6
ENDMDL
MODEL 7
REMARK VINA RESULT:      -6.0     10.164     14.552
REMARK  Name = RetinoicAcid.pdbqt.pdb
REMARK  6 active torsions:
REMARK  status: ('A' for Active; 'I' for Inactive)
REMARK    1  A    between atoms: C_1  and  C_3
REMARK    2  A    between atoms: C_1  and  C_5
REMARK    3  A    between atoms: C_3  and  C_15
REMARK    4  A    between atoms: C_4  and  C_9
REMARK    5  A    between atoms: C_16  and  C_17
REMARK    6  A    between atoms: C_21  and  O_22
REMARK                            x       y       z     vdW  Elec       q    Type
REMARK                         _______ _______ _______ _____ _____    ______ ____
ROOT
ATOM      1  C   UNL     1     -46.367 -61.948  28.281  0.00  0.00    +0.000 C 
ATOM      2  C   UNL     1     -46.514 -60.660  27.531  0.00  0.00    +0.000 C 
ENDROOT
BRANCH   1   4
ATOM      3  C   UNL     1     -45.778 -64.150  26.991  0.00  0.00    +0.000 C 
ATOM      4  C   UNL     1     -46.044 -63.140  27.588  0.00  0.00    +0.000 C 
BRANCH   3   8
ATOM      5  C   UNL     1     -45.545 -66.742  27.001  0.00  0.00    +0.000 C 
ATOM      6  C   UNL     1     -45.179 -67.801  26.032  0.00  0.00    +0.000 C 
ATOM      7  C   UNL     1     -44.754 -67.999  24.590  0.00  0.00    +0.000 C 
ATOM      8  C   UNL     1     -45.461 -65.360  26.270  0.00  0.00    +0.000 C 
ATOM      9  C   UNL     1     -44.800 -66.517  24.287  0.00  0.00    +0.000 C 
ATOM     10  C   UNL     1     -45.100 -65.301  24.964  0.00  0.00    +0.000 C 
ATOM     11  C   UNL     1     -44.546 -66.746  28.190  0.00  0.00    +0.000 C 
ATOM     12  C   UNL     1     -47.004 -66.958  27.493  0.00  0.00    +0.000 C 
ATOM     13  C   UNL     1     -45.001 -64.030  24.166  0.00  0.00    +0.000 C 
ENDBRANCH   3   8
ENDBRANCH   1   4
BRANCH   1  14
ATOM     14  C   UNL     1     -46.582 -61.981  29.559  0.00  0.00    +0.000 C 
BRANCH  14  15
ATOM     15  C   UNL     1     -46.835 -62.018  31.071  0.00  0.00    +0.000 C 
ATOM     16  C   UNL     1     -47.032 -62.049  32.255  0.00  0.00    +0.000 C 
BRANCH  16  17
ATOM     17  C   UNL     1     -47.258 -62.085  33.652  0.00  0.00    +0.000 C 
ATOM     18  C   UNL     1     -47.401 -63.404  34.349  0.00  0.00    +0.000 C 
ATOM     19  C   UNL     1     -47.373 -60.986  34.318  0.00  0.00    +0.000 C 
ATOM     20  O   UNL     1     -46.525 -59.130  35.427  0.00  0.00    +0.000 OA
ATOM     21  C   UNL     1     -47.486 -59.769  35.042  0.00  0.00    +0.000 C 
BRANCH  21  22
ATOM     22  O   UNL     1     -48.752 -59.369  35.246  0.00  0.00    +0.000 OA
ATOM     23  H   UNL     1     -49.209 -60.175  35.565  0.00  0.00    +0.000 HD
ENDBRANCH  21  22
ENDBRANCH  16  17
ENDBRANCH  14  15
ENDBRANCH   1  14
TORSDOF 6
ENDMDL
MODEL 8
REMARK VINA RESULT:      -6.0     25.691     27.950
REMARK  Name = RetinoicAcid.pdbqt.pdb
REMARK  6 active torsions:
REMARK  status: ('A' for Active; 'I' for Inactive)
REMARK    1  A    between atoms: C_1  and  C_3
REMARK    2  A    between atoms: C_1  and  C_5
REMARK    3  A    between atoms: C_3  and  C_15
REMARK    4  A    between atoms: C_4  and  C_9
REMARK    5  A    between atoms: C_16  and  C_17
REMARK    6  A    between atoms: C_21  and  O_22
REMARK                            x       y       z     vdW  Elec       q    Type
REMARK                         _______ _______ _______ _____ _____    ______ ____
ROOT
ATOM      1  C   UNL     1     -45.994 -76.545  64.531  0.00  0.00    +0.000 C 
ATOM      2  C   UNL     1     -45.971 -76.457  66.026  0.00  0.00    +0.000 C 
ENDROOT
BRANCH   1   4
ATOM      3  C   UNL     1     -43.842 -75.997  63.142  0.00  0.00    +0.000 C 
ATOM      4  C   UNL     1     -44.828 -76.246  63.785  0.00  0.00    +0.000 C 
BRANCH   3   8
ATOM      5  C   UNL     1     -41.426 -75.035  63.057  0.00  0.00    +0.000 C 
ATOM      6  C   UNL     1     -40.368 -74.849  62.037  0.00  0.00    +0.000 C 
ATOM      7  C   UNL     1     -40.080 -75.080  60.567  0.00  0.00    +0.000 C 
ATOM      8  C   UNL     1     -42.663 -75.698  62.364  0.00  0.00    +0.000 C 
ATOM      9  C   UNL     1     -41.441 -75.690  60.312  0.00  0.00    +0.000 C 
ATOM     10  C   UNL     1     -42.624 -75.997  61.042  0.00  0.00    +0.000 C 
ATOM     11  C   UNL     1     -41.850 -73.657  63.635  0.00  0.00    +0.000 C 
ATOM     12  C   UNL     1     -40.917 -75.982  64.181  0.00  0.00    +0.000 C 
ATOM     13  C   UNL     1     -43.750 -76.645  60.283  0.00  0.00    +0.000 C 
ENDBRANCH   3   8
ENDBRANCH   1   4
BRANCH   1  14
ATOM     14  C   UNL     1     -47.095 -76.848  63.918  0.00  0.00    +0.000 C 
BRANCH  14  15
ATOM     15  C   UNL     1     -48.398 -77.209  63.193  0.00  0.00    +0.000 C 
ATOM     16  C   UNL     1     -49.417 -77.494  62.626  0.00  0.00    +0.000 C 
BRANCH  16  17
ATOM     17  C   UNL     1     -50.619 -77.833  61.960  0.00  0.00    +0.000 C 
ATOM     18  C   UNL     1     -51.850 -78.140  62.757  0.00  0.00    +0.000 C 
ATOM     19  C   UNL     1     -50.646 -77.910  60.672  0.00  0.00    +0.000 C 
ATOM     20  O   UNL     1     -50.794 -77.002  58.539  0.00  0.00    +0.000 OA
ATOM     21  C   UNL     1     -50.666 -77.979  59.254  0.00  0.00    +0.000 C 
BRANCH  21  22
ATOM     22  O   UNL     1     -50.509 -79.220  58.765  0.00  0.00    +0.000 OA
ATOM     23  H   UNL     1     -49.556 -79.409  58.893  0.00  0.00    +0.000 HD
ENDBRANCH  21  22
ENDBRANCH  16  17
ENDBRANCH  14  15
ENDBRANCH   1  14
TORSDOF 6
ENDMDL
MODEL 9
REMARK VINA RESULT:      -5.9      5.698      8.074
REMARK  Name = RetinoicAcid.pdbqt.pdb
REMARK  6 active torsions:
REMARK  status: ('A' for Active; 'I' for Inactive)
REMARK    1  A    between atoms: C_1  and  C_3
REMARK    2  A    between atoms: C_1  and  C_5
REMARK    3  A    between atoms: C_3  and  C_15
REMARK    4  A    between atoms: C_4  and  C_9
REMARK    5  A    between atoms: C_16  and  C_17
REMARK    6  A    between atoms: C_21  and  O_22
REMARK                            x       y       z     vdW  Elec       q    Type
REMARK                         _______ _______ _______ _____ _____    ______ ____
ROOT
ATOM      1  C   UNL     1     -43.674 -60.149  37.071  0.00  0.00    +0.000 C 
ATOM      2  C   UNL     1     -43.454 -60.594  38.484  0.00  0.00    +0.000 C 
ENDROOT
BRANCH   1   4
ATOM      3  C   UNL     1     -45.222 -61.548  35.488  0.00  0.00    +0.000 C 
ATOM      4  C   UNL     1     -44.513 -60.900  36.213  0.00  0.00    +0.000 C 
BRANCH   3   8
ATOM      5  C   UNL     1     -47.026 -61.607  33.614  0.00  0.00    +0.000 C 
ATOM      6  C   UNL     1     -47.768 -62.641  32.855  0.00  0.00    +0.000 C 
ATOM      7  C   UNL     1     -47.916 -64.145  32.727  0.00  0.00    +0.000 C 
ATOM      8  C   UNL     1     -46.072 -62.331  34.622  0.00  0.00    +0.000 C 
ATOM      9  C   UNL     1     -46.889 -64.420  33.803  0.00  0.00    +0.000 C 
ATOM     10  C   UNL     1     -46.039 -63.685  34.677  0.00  0.00    +0.000 C 
ATOM     11  C   UNL     1     -48.022 -60.719  34.408  0.00  0.00    +0.000 C 
ATOM     12  C   UNL     1     -46.166 -60.753  32.640  0.00  0.00    +0.000 C 
ATOM     13  C   UNL     1     -45.152 -64.477  35.598  0.00  0.00    +0.000 C 
ENDBRANCH   3   8
ENDBRANCH   1   4
BRANCH   1  14
ATOM     14  C   UNL     1     -43.057 -59.102  36.619  0.00  0.00    +0.000 C 
BRANCH  14  15
ATOM     15  C   UNL     1     -42.329 -57.863  36.083  0.00  0.00    +0.000 C 
ATOM     16  C   UNL     1     -41.757 -56.895  35.664  0.00  0.00    +0.000 C 
BRANCH  16  17
ATOM     17  C   UNL     1     -41.081 -55.755  35.165  0.00  0.00    +0.000 C 
ATOM     18  C   UNL     1     -39.658 -55.874  34.711  0.00  0.00    +0.000 C 
ATOM     19  C   UNL     1     -41.678 -54.612  35.131  0.00  0.00    +0.000 C 
ATOM     20  O   UNL     1     -43.109 -53.041  34.192  0.00  0.00    +0.000 OA
ATOM     21  C   UNL     1     -42.350 -53.361  35.088  0.00  0.00    +0.000 C 
BRANCH  21  22
ATOM     22  O   UNL     1     -42.091 -52.565  36.139  0.00  0.00    +0.000 OA
ATOM     23  H   UNL     1     -41.399 -53.045  36.638  0.00  0.00    +0.000 HD
ENDBRANCH  21  22
ENDBRANCH  16  17
ENDBRANCH  14  15
ENDBRANCH   1  14
TORSDOF 6
ENDMDL
