MODEL 1
REMARK VINA RESULT:      -7.3      0.000      0.000
REMARK  Name = SB_202190.pdbqt.pdb
REMARK  4 active torsions:
REMARK  status: ('A' for Active; 'I' for Inactive)
REMARK    1  A    between atoms: C_4  and  C_7
REMARK    2  A    between atoms: C_5  and  C_19
REMARK    3  A    between atoms: C_6  and  C_8
REMARK    4  A    between atoms: C_15  and  O_26
REMARK                            x       y       z     vdW  Elec       q    Type
REMARK                         _______ _______ _______ _____ _____    ______ ____
ROOT
ATOM      1  N   UNL     1     -46.403 -63.535  41.785  0.00  0.00    +0.000 N 
ATOM      2  N   UNL     1     -47.279 -61.785  40.782  0.00  0.00    +0.000 NA
ATOM      3  C   UNL     1     -46.201 -63.761  40.438  0.00  0.00    +0.000 A 
ATOM      4  C   UNL     1     -46.790 -62.658  39.835  0.00  0.00    +0.000 A 
ATOM      5  C   UNL     1     -47.040 -62.329  41.957  0.00  0.00    +0.000 A 
ATOM      6  H   UNL     1     -46.097 -64.138  42.535  0.00  0.00    +0.000 HD
ENDROOT
BRANCH   4   7
ATOM      7  C   UNL     1     -46.933 -62.384  38.420  0.00  0.00    +0.000 A 
ATOM      8  C   UNL     1     -48.186 -62.370  37.805  0.00  0.00    +0.000 A 
ATOM      9  C   UNL     1     -48.309 -62.060  36.453  0.00  0.00    +0.000 A 
ATOM     10  C   UNL     1     -47.169 -61.746  35.722  0.00  0.00    +0.000 A 
ATOM     11  F   UNL     1     -47.283 -61.452  34.420  0.00  0.00    +0.000 F 
ATOM     12  C   UNL     1     -45.914 -61.736  36.319  0.00  0.00    +0.000 A 
ATOM     13  C   UNL     1     -45.801 -62.049  37.672  0.00  0.00    +0.000 A 
ENDBRANCH   4   7
BRANCH   3  15
ATOM     14  N   UNL     1     -44.057 -67.137  38.955  0.00  0.00    +0.000 NA
ATOM     15  C   UNL     1     -45.474 -64.927  39.945  0.00  0.00    +0.000 A 
ATOM     16  C   UNL     1     -46.110 -65.881  39.154  0.00  0.00    +0.000 A 
ATOM     17  C   UNL     1     -44.117 -65.084  40.226  0.00  0.00    +0.000 A 
ATOM     18  C   UNL     1     -45.368 -66.957  38.692  0.00  0.00    +0.000 A 
ATOM     19  C   UNL     1     -43.464 -66.196  39.719  0.00  0.00    +0.000 A 
ENDBRANCH   3  15
BRANCH   5  20
ATOM     20  C   UNL     1     -47.387 -61.765  43.257  0.00  0.00    +0.000 A 
ATOM     21  C   UNL     1     -48.117 -60.576  43.324  0.00  0.00    +0.000 A 
ATOM     22  C   UNL     1     -47.003 -62.391  44.446  0.00  0.00    +0.000 A 
ATOM     23  C   UNL     1     -48.460 -60.018  44.553  0.00  0.00    +0.000 A 
ATOM     24  C   UNL     1     -47.340 -61.841  45.681  0.00  0.00    +0.000 A 
ATOM     25  C   UNL     1     -48.067 -60.658  45.724  0.00  0.00    +0.000 A 
BRANCH  25  26
ATOM     26  O   UNL     1     -48.387 -60.137  46.944  0.00  0.00    +0.000 OA
ATOM     27  H   UNL     1     -48.457 -59.171  46.853  0.00  0.00    +0.000 HD
ENDBRANCH  25  26
ENDBRANCH   5  20
TORSDOF 4
ENDMDL
MODEL 2
REMARK VINA RESULT:      -7.2      2.289      4.336
REMARK  Name = SB_202190.pdbqt.pdb
REMARK  4 active torsions:
REMARK  status: ('A' for Active; 'I' for Inactive)
REMARK    1  A    between atoms: C_4  and  C_7
REMARK    2  A    between atoms: C_5  and  C_19
REMARK    3  A    between atoms: C_6  and  C_8
REMARK    4  A    between atoms: C_15  and  O_26
REMARK                            x       y       z     vdW  Elec       q    Type
REMARK                         _______ _______ _______ _____ _____    ______ ____
ROOT
ATOM      1  N   UNL     1     -47.151 -61.761  40.728  0.00  0.00    +0.000 N 
ATOM      2  N   UNL     1     -46.410 -63.331  42.078  0.00  0.00    +0.000 NA
ATOM      3  C   UNL     1     -46.550 -62.687  39.899  0.00  0.00    +0.000 A 
ATOM      4  C   UNL     1     -46.068 -63.644  40.781  0.00  0.00    +0.000 A 
ATOM      5  C   UNL     1     -47.062 -62.188  42.031  0.00  0.00    +0.000 A 
ATOM      6  H   UNL     1     -47.620 -60.919  40.427  0.00  0.00    +0.000 HD
ENDROOT
BRANCH   4   7
ATOM      7  C   UNL     1     -45.293 -64.829  40.476  0.00  0.00    +0.000 A 
ATOM      8  C   UNL     1     -45.844 -65.894  39.760  0.00  0.00    +0.000 A 
ATOM      9  C   UNL     1     -45.071 -67.006  39.436  0.00  0.00    +0.000 A 
ATOM     10  C   UNL     1     -43.735 -67.038  39.819  0.00  0.00    +0.000 A 
ATOM     11  F   UNL     1     -42.989 -68.108  39.513  0.00  0.00    +0.000 F 
ATOM     12  C   UNL     1     -43.162 -65.981  40.516  0.00  0.00    +0.000 A 
ATOM     13  C   UNL     1     -43.944 -64.874  40.836  0.00  0.00    +0.000 A 
ENDBRANCH   4   7
BRANCH   3  15
ATOM     14  N   UNL     1     -46.562 -62.224  35.658  0.00  0.00    +0.000 NA
ATOM     15  C   UNL     1     -46.555 -62.548  38.445  0.00  0.00    +0.000 A 
ATOM     16  C   UNL     1     -47.754 -62.538  37.735  0.00  0.00    +0.000 A 
ATOM     17  C   UNL     1     -45.360 -62.382  37.746  0.00  0.00    +0.000 A 
ATOM     18  C   UNL     1     -47.705 -62.379  36.360  0.00  0.00    +0.000 A 
ATOM     19  C   UNL     1     -45.417 -62.233  36.370  0.00  0.00    +0.000 A 
ENDBRANCH   3  15
BRANCH   5  20
ATOM     20  C   UNL     1     -47.617 -61.463  43.169  0.00  0.00    +0.000 A 
ATOM     21  C   UNL     1     -46.836 -61.262  44.311  0.00  0.00    +0.000 A 
ATOM     22  C   UNL     1     -48.921 -60.960  43.145  0.00  0.00    +0.000 A 
ATOM     23  C   UNL     1     -47.343 -60.573  45.409  0.00  0.00    +0.000 A 
ATOM     24  C   UNL     1     -49.438 -60.270  44.239  0.00  0.00    +0.000 A 
ATOM     25  C   UNL     1     -48.644 -60.081  45.363  0.00  0.00    +0.000 A 
BRANCH  25  26
ATOM     26  O   UNL     1     -49.170 -59.402  46.422  0.00  0.00    +0.000 OA
ATOM     27  H   UNL     1     -49.163 -58.452  46.209  0.00  0.00    +0.000 HD
ENDBRANCH  25  26
ENDBRANCH   5  20
TORSDOF 4
ENDMDL
MODEL 3
REMARK VINA RESULT:      -7.1      2.614      2.942
REMARK  Name = SB_202190.pdbqt.pdb
REMARK  4 active torsions:
REMARK  status: ('A' for Active; 'I' for Inactive)
REMARK    1  A    between atoms: C_4  and  C_7
REMARK    2  A    between atoms: C_5  and  C_19
REMARK    3  A    between atoms: C_6  and  C_8
REMARK    4  A    between atoms: C_15  and  O_26
REMARK                            x       y       z     vdW  Elec       q    Type
REMARK                         _______ _______ _______ _____ _____    ______ ____
ROOT
ATOM      1  N   UNL     1     -45.760 -63.371  41.996  0.00  0.00    +0.000 N 
ATOM      2  N   UNL     1     -45.114 -61.388  41.302  0.00  0.00    +0.000 NA
ATOM      3  C   UNL     1     -44.831 -63.627  41.007  0.00  0.00    +0.000 A 
ATOM      4  C   UNL     1     -44.467 -62.360  40.571  0.00  0.00    +0.000 A 
ATOM      5  C   UNL     1     -45.894 -62.013  42.158  0.00  0.00    +0.000 A 
ATOM      6  H   UNL     1     -46.240 -64.068  42.546  0.00  0.00    +0.000 HD
ENDROOT
BRANCH   4   7
ATOM      7  C   UNL     1     -43.559 -62.012  39.499  0.00  0.00    +0.000 A 
ATOM      8  C   UNL     1     -42.555 -62.888  39.083  0.00  0.00    +0.000 A 
ATOM      9  C   UNL     1     -41.719 -62.556  38.020  0.00  0.00    +0.000 A 
ATOM     10  C   UNL     1     -41.907 -61.346  37.362  0.00  0.00    +0.000 A 
ATOM     11  F   UNL     1     -41.102 -61.021  36.341  0.00  0.00    +0.000 F 
ATOM     12  C   UNL     1     -42.912 -60.468  37.747  0.00  0.00    +0.000 A 
ATOM     13  C   UNL     1     -43.742 -60.808  38.812  0.00  0.00    +0.000 A 
ENDBRANCH   4   7
BRANCH   3  15
ATOM     14  N   UNL     1     -43.572 -67.569  39.972  0.00  0.00    +0.000 NA
ATOM     15  C   UNL     1     -44.415 -64.984  40.663  0.00  0.00    +0.000 A 
ATOM     16  C   UNL     1     -45.003 -65.660  39.596  0.00  0.00    +0.000 A 
ATOM     17  C   UNL     1     -43.392 -65.611  41.373  0.00  0.00    +0.000 A 
ATOM     18  C   UNL     1     -44.555 -66.936  39.296  0.00  0.00    +0.000 A 
ATOM     19  C   UNL     1     -43.017 -66.890  40.996  0.00  0.00    +0.000 A 
ENDBRANCH   3  15
BRANCH   5  20
ATOM     20  C   UNL     1     -46.776 -61.389  43.138  0.00  0.00    +0.000 A 
ATOM     21  C   UNL     1     -47.706 -60.431  42.725  0.00  0.00    +0.000 A 
ATOM     22  C   UNL     1     -46.713 -61.730  44.493  0.00  0.00    +0.000 A 
ATOM     23  C   UNL     1     -48.558 -59.822  43.643  0.00  0.00    +0.000 A 
ATOM     24  C   UNL     1     -47.560 -61.127  45.419  0.00  0.00    +0.000 A 
ATOM     25  C   UNL     1     -48.477 -60.177  44.985  0.00  0.00    +0.000 A 
BRANCH  25  26
ATOM     26  O   UNL     1     -49.298 -59.599  45.909  0.00  0.00    +0.000 OA
ATOM     27  H   UNL     1     -48.755 -59.039  46.491  0.00  0.00    +0.000 HD
ENDBRANCH  25  26
ENDBRANCH   5  20
TORSDOF 4
ENDMDL
MODEL 4
REMARK VINA RESULT:      -7.1     22.148     24.852
REMARK  Name = SB_202190.pdbqt.pdb
REMARK  4 active torsions:
REMARK  status: ('A' for Active; 'I' for Inactive)
REMARK    1  A    between atoms: C_4  and  C_7
REMARK    2  A    between atoms: C_5  and  C_19
REMARK    3  A    between atoms: C_6  and  C_8
REMARK    4  A    between atoms: C_15  and  O_26
REMARK                            x       y       z     vdW  Elec       q    Type
REMARK                         _______ _______ _______ _____ _____    ______ ____
ROOT
ATOM      1  N   UNL     1     -33.344 -46.162  53.242  0.00  0.00    +0.000 N 
ATOM      2  N   UNL     1     -34.968 -46.771  51.891  0.00  0.00    +0.000 NA
ATOM      3  C   UNL     1     -33.871 -44.978  52.765  0.00  0.00    +0.000 A 
ATOM      4  C   UNL     1     -34.869 -45.397  51.896  0.00  0.00    +0.000 A 
ATOM      5  C   UNL     1     -34.038 -47.221  52.707  0.00  0.00    +0.000 A 
ATOM      6  H   UNL     1     -32.592 -46.244  53.911  0.00  0.00    +0.000 HD
ENDROOT
BRANCH   4   7
ATOM      7  C   UNL     1     -35.724 -44.581  51.059  0.00  0.00    +0.000 A 
ATOM      8  C   UNL     1     -35.352 -44.237  49.758  0.00  0.00    +0.000 A 
ATOM      9  C   UNL     1     -36.208 -43.490  48.951  0.00  0.00    +0.000 A 
ATOM     10  C   UNL     1     -37.446 -43.104  49.449  0.00  0.00    +0.000 A 
ATOM     11  F   UNL     1     -38.270 -42.382  48.678  0.00  0.00    +0.000 F 
ATOM     12  C   UNL     1     -37.843 -43.452  50.735  0.00  0.00    +0.000 A 
ATOM     13  C   UNL     1     -36.981 -44.198  51.535  0.00  0.00    +0.000 A 
ENDBRANCH   4   7
BRANCH   3  15
ATOM     14  N   UNL     1     -32.518 -41.166  54.119  0.00  0.00    +0.000 NA
ATOM     15  C   UNL     1     -33.392 -43.675  53.218  0.00  0.00    +0.000 A 
ATOM     16  C   UNL     1     -33.590 -42.535  52.443  0.00  0.00    +0.000 A 
ATOM     17  C   UNL     1     -32.762 -43.545  54.455  0.00  0.00    +0.000 A 
ATOM     18  C   UNL     1     -33.137 -41.319  52.929  0.00  0.00    +0.000 A 
ATOM     19  C   UNL     1     -32.343 -42.285  54.851  0.00  0.00    +0.000 A 
ENDBRANCH   3  15
BRANCH   5  20
ATOM     20  C   UNL     1     -33.763 -48.619  53.017  0.00  0.00    +0.000 A 
ATOM     21  C   UNL     1     -34.820 -49.484  53.318  0.00  0.00    +0.000 A 
ATOM     22  C   UNL     1     -32.458 -49.120  53.019  0.00  0.00    +0.000 A 
ATOM     23  C   UNL     1     -34.582 -50.823  53.616  0.00  0.00    +0.000 A 
ATOM     24  C   UNL     1     -32.210 -50.458  53.317  0.00  0.00    +0.000 A 
ATOM     25  C   UNL     1     -33.275 -51.299  53.612  0.00  0.00    +0.000 A 
BRANCH  25  26
ATOM     26  O   UNL     1     -33.009 -52.606  53.900  0.00  0.00    +0.000 OA
ATOM     27  H   UNL     1     -33.628 -53.161  53.395  0.00  0.00    +0.000 HD
ENDBRANCH  25  26
ENDBRANCH   5  20
TORSDOF 4
ENDMDL
MODEL 5
REMARK VINA RESULT:      -7.1      3.972      7.496
REMARK  Name = SB_202190.pdbqt.pdb
REMARK  4 active torsions:
REMARK  status: ('A' for Active; 'I' for Inactive)
REMARK    1  A    between atoms: C_4  and  C_7
REMARK    2  A    between atoms: C_5  and  C_19
REMARK    3  A    between atoms: C_6  and  C_8
REMARK    4  A    between atoms: C_15  and  O_26
REMARK                            x       y       z     vdW  Elec       q    Type
REMARK                         _______ _______ _______ _____ _____    ______ ____
ROOT
ATOM      1  N   UNL     1     -46.127 -64.589  38.052  0.00  0.00    +0.000 N 
ATOM      2  N   UNL     1     -45.607 -64.873  40.169  0.00  0.00    +0.000 NA
ATOM      3  C   UNL     1     -46.555 -63.436  38.679  0.00  0.00    +0.000 A 
ATOM      4  C   UNL     1     -46.240 -63.660  40.013  0.00  0.00    +0.000 A 
ATOM      5  C   UNL     1     -45.547 -65.425  38.976  0.00  0.00    +0.000 A 
ATOM      6  H   UNL     1     -46.191 -64.779  37.062  0.00  0.00    +0.000 HD
ENDROOT
BRANCH   4   7
ATOM      7  C   UNL     1     -46.514 -62.806  41.149  0.00  0.00    +0.000 A 
ATOM      8  C   UNL     1     -47.322 -63.236  42.204  0.00  0.00    +0.000 A 
ATOM      9  C   UNL     1     -47.538 -62.419  43.311  0.00  0.00    +0.000 A 
ATOM     10  C   UNL     1     -46.924 -61.173  43.364  0.00  0.00    +0.000 A 
ATOM     11  F   UNL     1     -47.132 -60.382  44.426  0.00  0.00    +0.000 F 
ATOM     12  C   UNL     1     -46.101 -60.733  42.335  0.00  0.00    +0.000 A 
ATOM     13  C   UNL     1     -45.893 -61.557  41.231  0.00  0.00    +0.000 A 
ENDBRANCH   4   7
BRANCH   3  15
ATOM     14  N   UNL     1     -48.291 -60.215  36.487  0.00  0.00    +0.000 NA
ATOM     15  C   UNL     1     -47.141 -62.321  37.942  0.00  0.00    +0.000 A 
ATOM     16  C   UNL     1     -46.396 -61.623  36.994  0.00  0.00    +0.000 A 
ATOM     17  C   UNL     1     -48.473 -61.961  38.145  0.00  0.00    +0.000 A 
ATOM     18  C   UNL     1     -47.007 -60.589  36.304  0.00  0.00    +0.000 A 
ATOM     19  C   UNL     1     -48.992 -60.910  37.406  0.00  0.00    +0.000 A 
ENDBRANCH   3  15
BRANCH   5  20
ATOM     20  C   UNL     1     -44.963 -66.722  38.652  0.00  0.00    +0.000 A 
ATOM     21  C   UNL     1     -45.654 -67.606  37.819  0.00  0.00    +0.000 A 
ATOM     22  C   UNL     1     -43.718 -67.105  39.159  0.00  0.00    +0.000 A 
ATOM     23  C   UNL     1     -45.116 -68.849  37.496  0.00  0.00    +0.000 A 
ATOM     24  C   UNL     1     -43.171 -68.346  38.843  0.00  0.00    +0.000 A 
ATOM     25  C   UNL     1     -43.875 -69.209  38.012  0.00  0.00    +0.000 A 
BRANCH  25  26
ATOM     26  O   UNL     1     -43.321 -70.420  37.714  0.00  0.00    +0.000 OA
ATOM     27  H   UNL     1     -44.017 -71.097  37.780  0.00  0.00    +0.000 HD
ENDBRANCH  25  26
ENDBRANCH   5  20
TORSDOF 4
ENDMDL
MODEL 6
REMARK VINA RESULT:      -7.0      2.406      4.325
REMARK  Name = SB_202190.pdbqt.pdb
REMARK  4 active torsions:
REMARK  status: ('A' for Active; 'I' for Inactive)
REMARK    1  A    between atoms: C_4  and  C_7
REMARK    2  A    between atoms: C_5  and  C_19
REMARK    3  A    between atoms: C_6  and  C_8
REMARK    4  A    between atoms: C_15  and  O_26
REMARK                            x       y       z     vdW  Elec       q    Type
REMARK                         _______ _______ _______ _____ _____    ______ ____
ROOT
ATOM      1  N   UNL     1     -45.553 -61.677  41.072  0.00  0.00    +0.000 N 
ATOM      2  N   UNL     1     -46.265 -63.654  41.721  0.00  0.00    +0.000 NA
ATOM      3  C   UNL     1     -45.183 -62.538  40.057  0.00  0.00    +0.000 A 
ATOM      4  C   UNL     1     -45.618 -63.775  40.510  0.00  0.00    +0.000 A 
ATOM      5  C   UNL     1     -46.215 -62.380  42.050  0.00  0.00    +0.000 A 
ATOM      6  H   UNL     1     -45.399 -60.679  41.082  0.00  0.00    +0.000 HD
ENDROOT
BRANCH   4   7
ATOM      7  C   UNL     1     -45.448 -65.067  39.878  0.00  0.00    +0.000 A 
ATOM      8  C   UNL     1     -44.521 -65.994  40.357  0.00  0.00    +0.000 A 
ATOM      9  C   UNL     1     -44.403 -67.249  39.766  0.00  0.00    +0.000 A 
ATOM     10  C   UNL     1     -45.233 -67.578  38.701  0.00  0.00    +0.000 A 
ATOM     11  F   UNL     1     -45.120 -68.783  38.126  0.00  0.00    +0.000 F 
ATOM     12  C   UNL     1     -46.176 -66.677  38.220  0.00  0.00    +0.000 A 
ATOM     13  C   UNL     1     -46.285 -65.424  38.818  0.00  0.00    +0.000 A 
ENDBRANCH   4   7
BRANCH   3  15
ATOM     14  N   UNL     1     -43.264 -61.219  36.483  0.00  0.00    +0.000 NA
ATOM     15  C   UNL     1     -44.530 -62.068  38.839  0.00  0.00    +0.000 A 
ATOM     16  C   UNL     1     -43.200 -61.652  38.858  0.00  0.00    +0.000 A 
ATOM     17  C   UNL     1     -45.216 -62.066  37.625  0.00  0.00    +0.000 A 
ATOM     18  C   UNL     1     -42.621 -61.238  37.669  0.00  0.00    +0.000 A 
ATOM     19  C   UNL     1     -44.548 -61.632  36.491  0.00  0.00    +0.000 A 
ENDBRANCH   3  15
BRANCH   5  20
ATOM     20  C   UNL     1     -46.769 -61.778  43.257  0.00  0.00    +0.000 A 
ATOM     21  C   UNL     1     -46.795 -62.509  44.448  0.00  0.00    +0.000 A 
ATOM     22  C   UNL     1     -47.278 -60.476  43.253  0.00  0.00    +0.000 A 
ATOM     23  C   UNL     1     -47.318 -61.955  45.614  0.00  0.00    +0.000 A 
ATOM     24  C   UNL     1     -47.804 -59.913  44.413  0.00  0.00    +0.000 A 
ATOM     25  C   UNL     1     -47.819 -60.658  45.585  0.00  0.00    +0.000 A 
BRANCH  25  26
ATOM     26  O   UNL     1     -48.338 -60.086  46.710  0.00  0.00    +0.000 OA
ATOM     27  H   UNL     1     -48.880 -59.324  46.442  0.00  0.00    +0.000 HD
ENDBRANCH  25  26
ENDBRANCH   5  20
TORSDOF 4
ENDMDL
MODEL 7
REMARK VINA RESULT:      -6.9      4.155      7.317
REMARK  Name = SB_202190.pdbqt.pdb
REMARK  4 active torsions:
REMARK  status: ('A' for Active; 'I' for Inactive)
REMARK    1  A    between atoms: C_4  and  C_7
REMARK    2  A    between atoms: C_5  and  C_19
REMARK    3  A    between atoms: C_6  and  C_8
REMARK    4  A    between atoms: C_15  and  O_26
REMARK                            x       y       z     vdW  Elec       q    Type
REMARK                         _______ _______ _______ _____ _____    ______ ____
ROOT
ATOM      1  N   UNL     1     -43.539 -64.771  39.973  0.00  0.00    +0.000 N 
ATOM      2  N   UNL     1     -44.168 -64.894  42.076  0.00  0.00    +0.000 NA
ATOM      3  C   UNL     1     -44.181 -63.575  40.221  0.00  0.00    +0.000 A 
ATOM      4  C   UNL     1     -44.591 -63.697  41.542  0.00  0.00    +0.000 A 
ATOM      5  C   UNL     1     -43.535 -65.535  41.116  0.00  0.00    +0.000 A 
ATOM      6  H   UNL     1     -43.102 -65.035  39.102  0.00  0.00    +0.000 HD
ENDROOT
BRANCH   4   7
ATOM      7  C   UNL     1     -45.368 -62.760  42.325  0.00  0.00    +0.000 A 
ATOM      8  C   UNL     1     -45.505 -62.906  43.707  0.00  0.00    +0.000 A 
ATOM      9  C   UNL     1     -46.219 -61.970  44.452  0.00  0.00    +0.000 A 
ATOM     10  C   UNL     1     -46.781 -60.875  43.806  0.00  0.00    +0.000 A 
ATOM     11  F   UNL     1     -47.472 -59.975  44.518  0.00  0.00    +0.000 F 
ATOM     12  C   UNL     1     -46.641 -60.701  42.435  0.00  0.00    +0.000 A 
ATOM     13  C   UNL     1     -45.927 -61.643  41.698  0.00  0.00    +0.000 A 
ENDBRANCH   4   7
BRANCH   3  15
ATOM     14  N   UNL     1     -44.423 -60.523  37.250  0.00  0.00    +0.000 NA
ATOM     15  C   UNL     1     -44.274 -62.519  39.217  0.00  0.00    +0.000 A 
ATOM     16  C   UNL     1     -43.361 -61.467  39.203  0.00  0.00    +0.000 A 
ATOM     17  C   UNL     1     -45.256 -62.568  38.228  0.00  0.00    +0.000 A 
ATOM     18  C   UNL     1     -43.478 -60.504  38.214  0.00  0.00    +0.000 A 
ATOM     19  C   UNL     1     -45.291 -61.555  37.283  0.00  0.00    +0.000 A 
ENDBRANCH   3  15
BRANCH   5  20
ATOM     20  C   UNL     1     -42.917 -66.852  41.218  0.00  0.00    +0.000 A 
ATOM     21  C   UNL     1     -43.065 -67.599  42.390  0.00  0.00    +0.000 A 
ATOM     22  C   UNL     1     -42.174 -67.390  40.163  0.00  0.00    +0.000 A 
ATOM     23  C   UNL     1     -42.484 -68.859  42.511  0.00  0.00    +0.000 A 
ATOM     24  C   UNL     1     -41.588 -68.649  40.274  0.00  0.00    +0.000 A 
ATOM     25  C   UNL     1     -41.749 -69.374  41.448  0.00  0.00    +0.000 A 
BRANCH  25  26
ATOM     26  O   UNL     1     -41.167 -70.605  41.535  0.00  0.00    +0.000 OA
ATOM     27  H   UNL     1     -41.137 -70.991  40.642  0.00  0.00    +0.000 HD
ENDBRANCH  25  26
ENDBRANCH   5  20
TORSDOF 4
ENDMDL
MODEL 8
REMARK VINA RESULT:      -6.8     10.476     13.260
REMARK  Name = SB_202190.pdbqt.pdb
REMARK  4 active torsions:
REMARK  status: ('A' for Active; 'I' for Inactive)
REMARK    1  A    between atoms: C_4  and  C_7
REMARK    2  A    between atoms: C_5  and  C_19
REMARK    3  A    between atoms: C_6  and  C_8
REMARK    4  A    between atoms: C_15  and  O_26
REMARK                            x       y       z     vdW  Elec       q    Type
REMARK                         _______ _______ _______ _____ _____    ______ ____
ROOT
ATOM      1  N   UNL     1     -42.543 -52.531  33.142  0.00  0.00    +0.000 N 
ATOM      2  N   UNL     1     -44.212 -53.705  33.960  0.00  0.00    +0.000 NA
ATOM      3  C   UNL     1     -41.946 -53.601  33.778  0.00  0.00    +0.000 A 
ATOM      4  C   UNL     1     -43.020 -54.302  34.306  0.00  0.00    +0.000 A 
ATOM      5  C   UNL     1     -43.909 -52.634  33.258  0.00  0.00    +0.000 A 
ATOM      6  H   UNL     1     -42.060 -51.804  32.634  0.00  0.00    +0.000 HD
ENDROOT
BRANCH   4   7
ATOM      7  C   UNL     1     -42.991 -55.493  35.131  0.00  0.00    +0.000 A 
ATOM      8  C   UNL     1     -43.780 -55.602  36.277  0.00  0.00    +0.000 A 
ATOM      9  C   UNL     1     -43.774 -56.772  37.033  0.00  0.00    +0.000 A 
ATOM     10  C   UNL     1     -42.984 -57.840  36.624  0.00  0.00    +0.000 A 
ATOM     11  F   UNL     1     -42.972 -58.966  37.350  0.00  0.00    +0.000 F 
ATOM     12  C   UNL     1     -42.206 -57.759  35.475  0.00  0.00    +0.000 A 
ATOM     13  C   UNL     1     -42.218 -56.584  34.727  0.00  0.00    +0.000 A 
ENDBRANCH   4   7
BRANCH   3  15
ATOM     14  N   UNL     1     -37.733 -54.268  33.710  0.00  0.00    +0.000 NA
ATOM     15  C   UNL     1     -40.501 -53.810  33.757  0.00  0.00    +0.000 A 
ATOM     16  C   UNL     1     -39.779 -53.921  34.943  0.00  0.00    +0.000 A 
ATOM     17  C   UNL     1     -39.823 -53.944  32.545  0.00  0.00    +0.000 A 
ATOM     18  C   UNL     1     -38.414 -54.143  34.868  0.00  0.00    +0.000 A 
ATOM     19  C   UNL     1     -38.455 -54.163  32.576  0.00  0.00    +0.000 A 
ENDBRANCH   3  15
BRANCH   5  20
ATOM     20  C   UNL     1     -44.852 -51.683  32.679  0.00  0.00    +0.000 A 
ATOM     21  C   UNL     1     -45.910 -51.198  33.454  0.00  0.00    +0.000 A 
ATOM     22  C   UNL     1     -44.723 -51.243  31.359  0.00  0.00    +0.000 A 
ATOM     23  C   UNL     1     -46.823 -50.290  32.923  0.00  0.00    +0.000 A 
ATOM     24  C   UNL     1     -45.631 -50.335  30.819  0.00  0.00    +0.000 A 
ATOM     25  C   UNL     1     -46.675 -49.866  31.607  0.00  0.00    +0.000 A 
BRANCH  25  26
ATOM     26  O   UNL     1     -47.553 -48.977  31.059  0.00  0.00    +0.000 OA
ATOM     27  H   UNL     1     -47.251 -48.768  30.157  0.00  0.00    +0.000 HD
ENDBRANCH  25  26
ENDBRANCH   5  20
TORSDOF 4
ENDMDL
MODEL 9
REMARK VINA RESULT:      -6.7     25.094     28.134
REMARK  Name = SB_202190.pdbqt.pdb
REMARK  4 active torsions:
REMARK  status: ('A' for Active; 'I' for Inactive)
REMARK    1  A    between atoms: C_4  and  C_7
REMARK    2  A    between atoms: C_5  and  C_19
REMARK    3  A    between atoms: C_6  and  C_8
REMARK    4  A    between atoms: C_15  and  O_26
REMARK                            x       y       z     vdW  Elec       q    Type
REMARK                         _______ _______ _______ _____ _____    ______ ____
ROOT
ATOM      1  N   UNL     1     -33.566 -63.281  63.405  0.00  0.00    +0.000 N 
ATOM      2  N   UNL     1     -34.733 -64.817  64.459  0.00  0.00    +0.000 NA
ATOM      3  C   UNL     1     -34.036 -62.652  64.540  0.00  0.00    +0.000 A 
ATOM      4  C   UNL     1     -34.790 -63.635  65.165  0.00  0.00    +0.000 A 
ATOM      5  C   UNL     1     -33.991 -64.588  63.396  0.00  0.00    +0.000 A 
ATOM      6  H   UNL     1     -32.968 -62.864  62.705  0.00  0.00    +0.000 HD
ENDROOT
BRANCH   4   7
ATOM      7  C   UNL     1     -35.573 -63.525  66.378  0.00  0.00    +0.000 A 
ATOM      8  C   UNL     1     -35.057 -63.920  67.614  0.00  0.00    +0.000 A 
ATOM      9  C   UNL     1     -35.807 -63.764  68.777  0.00  0.00    +0.000 A 
ATOM     10  C   UNL     1     -37.072 -63.192  68.698  0.00  0.00    +0.000 A 
ATOM     11  F   UNL     1     -37.798 -63.044  69.814  0.00  0.00    +0.000 F 
ATOM     12  C   UNL     1     -37.596 -62.775  67.480  0.00  0.00    +0.000 A 
ATOM     13  C   UNL     1     -36.839 -62.936  66.323  0.00  0.00    +0.000 A 
ENDBRANCH   4   7
BRANCH   3  15
ATOM     14  N   UNL     1     -32.949 -58.634  65.478  0.00  0.00    +0.000 NA
ATOM     15  C   UNL     1     -33.682 -61.274  64.869  0.00  0.00    +0.000 A 
ATOM     16  C   UNL     1     -33.217 -60.941  66.140  0.00  0.00    +0.000 A 
ATOM     17  C   UNL     1     -33.764 -60.273  63.901  0.00  0.00    +0.000 A 
ATOM     18  C   UNL     1     -32.871 -59.624  66.392  0.00  0.00    +0.000 A 
ATOM     19  C   UNL     1     -33.396 -58.984  64.254  0.00  0.00    +0.000 A 
ENDBRANCH   3  15
BRANCH   5  20
ATOM     20  C   UNL     1     -33.655 -65.551  62.353  0.00  0.00    +0.000 A 
ATOM     21  C   UNL     1     -33.362 -65.101  61.063  0.00  0.00    +0.000 A 
ATOM     22  C   UNL     1     -33.618 -66.923  62.616  0.00  0.00    +0.000 A 
ATOM     23  C   UNL     1     -33.038 -66.002  60.051  0.00  0.00    +0.000 A 
ATOM     24  C   UNL     1     -33.296 -67.832  61.611  0.00  0.00    +0.000 A 
ATOM     25  C   UNL     1     -33.008 -67.363  60.335  0.00  0.00    +0.000 A 
BRANCH  25  26
ATOM     26  O   UNL     1     -32.694 -68.271  59.366  0.00  0.00    +0.000 OA
ATOM     27  H   UNL     1     -32.126 -68.955  59.762  0.00  0.00    +0.000 HD
ENDBRANCH  25  26
ENDBRANCH   5  20
TORSDOF 4
ENDMDL
