MODEL 1
REMARK VINA RESULT:      -7.4      0.000      0.000
REMARK  Name = Simvastatin.pdbqt.pdb
REMARK  7 active torsions:
REMARK  status: ('A' for Active; 'I' for Inactive)
REMARK    1  A    between atoms: C_2  and  C_13
REMARK    2  A    between atoms: C_3  and  O_24
REMARK    3  A    between atoms: C_14  and  C_15
REMARK    4  A    between atoms: C_20  and  O_22
REMARK    5  A    between atoms: O_24  and  C_25
REMARK    6  A    between atoms: C_25  and  C_27
REMARK    7  A    between atoms: C_27  and  C_30
REMARK                            x       y       z     vdW  Elec       q    Type
REMARK                         _______ _______ _______ _____ _____    ______ ____
ROOT
ATOM      1  C   UNL     1     -46.276 -63.881  37.052  0.00  0.00    +0.000 A 
ATOM      2  C   UNL     1     -47.166 -62.944  37.840  0.00  0.00    +0.000 A 
ATOM      3  C   UNL     1     -45.412 -64.965  37.642  0.00  0.00    +0.000 A 
ATOM      4  C   UNL     1     -48.184 -62.122  37.132  0.00  0.00    +0.000 A 
ATOM      5  C   UNL     1     -46.326 -63.760  35.514  0.00  0.00    +0.000 A 
ATOM      6  C   UNL     1     -44.771 -65.748  36.622  0.00  0.00    +0.000 A 
ATOM      7  C   UNL     1     -44.812 -65.740  35.191  0.00  0.00    +0.000 A 
ATOM      8  C   UNL     1     -45.668 -64.654  34.838  0.00  0.00    +0.000 A 
ATOM      9  C   UNL     1     -48.110 -62.272  35.717  0.00  0.00    +0.000 A 
ATOM     10  C   UNL     1     -47.367 -62.929  35.043  0.00  0.00    +0.000 A 
ATOM     11  C   UNL     1     -49.159 -61.173  37.759  0.00  0.00    +0.000 C 
ATOM     12  C   UNL     1     -44.881 -67.031  34.441  0.00  0.00    +0.000 C 
ENDROOT
BRANCH   2  13
ATOM     13  C   UNL     1     -46.874 -62.700  39.214  0.00  0.00    +0.000 C 
ATOM     14  C   UNL     1     -46.626 -62.460  40.708  0.00  0.00    +0.000 C 
BRANCH  14  15
ATOM     15  C   UNL     1     -46.448 -62.278  42.100  0.00  0.00    +0.000 C 
ATOM     16  O   UNL     1     -45.717 -63.291  42.823  0.00  0.00    +0.000 OA
ATOM     17  C   UNL     1     -45.553 -63.194  44.208  0.00  0.00    +0.000 C 
ATOM     18  O   UNL     1     -44.949 -64.012  44.885  0.00  0.00    +0.000 OA
ATOM     19  C   UNL     1     -46.174 -62.032  44.793  0.00  0.00    +0.000 C 
ATOM     20  C   UNL     1     -46.923 -60.961  44.260  0.00  0.00    +0.000 C 
ATOM     21  C   UNL     1     -46.986 -61.215  42.872  0.00  0.00    +0.000 C 
BRANCH  20  22
ATOM     22  O   UNL     1     -47.949 -60.394  44.958  0.00  0.00    +0.000 OA
ATOM     23  H   UNL     1     -47.664 -60.041  45.823  0.00  0.00    +0.000 HD
ENDBRANCH  20  22
ENDBRANCH  14  15
ENDBRANCH   2  13
BRANCH   3  24
ATOM     24  O   UNL     1     -45.966 -65.633  38.738  0.00  0.00    +0.000 OA
BRANCH  24  25
ATOM     25  C   UNL     1     -45.002 -66.118  39.604  0.00  0.00    +0.000 C 
ATOM     26  O   UNL     1     -44.126 -65.414  40.111  0.00  0.00    +0.000 OA
BRANCH  25  27
ATOM     27  C   UNL     1     -45.171 -67.661  39.823  0.00  0.00    +0.000 C 
ATOM     28  C   UNL     1     -44.690 -68.427  38.533  0.00  0.00    +0.000 C 
ATOM     29  C   UNL     1     -46.684 -68.034  40.098  0.00  0.00    +0.000 C 
BRANCH  27  30
ATOM     30  C   UNL     1     -44.345 -68.032  41.006  0.00  0.00    +0.000 C 
ATOM     31  C   UNL     1     -43.521 -68.445  42.261  0.00  0.00    +0.000 C 
ENDBRANCH  27  30
ENDBRANCH  25  27
ENDBRANCH  24  25
ENDBRANCH   3  24
TORSDOF 7
ENDMDL
MODEL 2
REMARK VINA RESULT:      -6.9      2.803      7.330
REMARK  Name = Simvastatin.pdbqt.pdb
REMARK  7 active torsions:
REMARK  status: ('A' for Active; 'I' for Inactive)
REMARK    1  A    between atoms: C_2  and  C_13
REMARK    2  A    between atoms: C_3  and  O_24
REMARK    3  A    between atoms: C_14  and  C_15
REMARK    4  A    between atoms: C_20  and  O_22
REMARK    5  A    between atoms: O_24  and  C_25
REMARK    6  A    between atoms: C_25  and  C_27
REMARK    7  A    between atoms: C_27  and  C_30
REMARK                            x       y       z     vdW  Elec       q    Type
REMARK                         _______ _______ _______ _____ _____    ______ ____
ROOT
ATOM      1  C   UNL     1     -44.733 -63.248  39.193  0.00  0.00    +0.000 A 
ATOM      2  C   UNL     1     -44.086 -63.350  37.829  0.00  0.00    +0.000 A 
ATOM      3  C   UNL     1     -45.416 -64.376  39.921  0.00  0.00    +0.000 A 
ATOM      4  C   UNL     1     -43.196 -62.259  37.349  0.00  0.00    +0.000 A 
ATOM      5  C   UNL     1     -44.606 -61.894  39.923  0.00  0.00    +0.000 A 
ATOM      6  C   UNL     1     -45.832 -63.984  41.240  0.00  0.00    +0.000 A 
ATOM      7  C   UNL     1     -45.701 -62.782  42.005  0.00  0.00    +0.000 A 
ATOM      8  C   UNL     1     -45.041 -61.851  41.148  0.00  0.00    +0.000 A 
ATOM      9  C   UNL     1     -43.148 -61.163  38.258  0.00  0.00    +0.000 A 
ATOM     10  C   UNL     1     -43.710 -60.996  39.304  0.00  0.00    +0.000 A 
ATOM     11  C   UNL     1     -42.457 -62.216  36.046  0.00  0.00    +0.000 C 
ATOM     12  C   UNL     1     -45.343 -62.858  43.455  0.00  0.00    +0.000 C 
ENDROOT
BRANCH   2  13
ATOM     13  C   UNL     1     -44.507 -64.379  36.936  0.00  0.00    +0.000 C 
ATOM     14  C   UNL     1     -44.891 -65.493  35.955  0.00  0.00    +0.000 C 
BRANCH  14  15
ATOM     15  C   UNL     1     -45.184 -66.542  35.050  0.00  0.00    +0.000 C 
ATOM     16  O   UNL     1     -45.668 -66.184  33.739  0.00  0.00    +0.000 OA
ATOM     17  C   UNL     1     -46.025 -67.176  32.820  0.00  0.00    +0.000 C 
ATOM     18  O   UNL     1     -46.442 -66.948  31.695  0.00  0.00    +0.000 OA
ATOM     19  C   UNL     1     -45.866 -68.520  33.316  0.00  0.00    +0.000 C 
ATOM     20  C   UNL     1     -45.427 -69.054  34.546  0.00  0.00    +0.000 C 
ATOM     21  C   UNL     1     -45.110 -67.930  35.340  0.00  0.00    +0.000 C 
BRANCH  20  22
ATOM     22  O   UNL     1     -45.969 -70.196  35.059  0.00  0.00    +0.000 OA
ATOM     23  H   UNL     1     -45.318 -70.920  35.130  0.00  0.00    +0.000 HD
ENDBRANCH  20  22
ENDBRANCH  14  15
ENDBRANCH   2  13
BRANCH   3  24
ATOM     24  O   UNL     1     -44.820 -65.631  39.762  0.00  0.00    +0.000 OA
BRANCH  24  25
ATOM     25  C   UNL     1     -45.728 -66.605  39.391  0.00  0.00    +0.000 C 
ATOM     26  O   UNL     1     -46.765 -66.367  38.768  0.00  0.00    +0.000 OA
BRANCH  25  27
ATOM     27  C   UNL     1     -45.267 -68.020  39.887  0.00  0.00    +0.000 C 
ATOM     28  C   UNL     1     -44.645 -68.819  38.681  0.00  0.00    +0.000 C 
ATOM     29  C   UNL     1     -46.488 -68.844  40.464  0.00  0.00    +0.000 C 
BRANCH  27  30
ATOM     30  C   UNL     1     -44.261 -67.804  40.964  0.00  0.00    +0.000 C 
ATOM     31  C   UNL     1     -43.174 -67.596  42.060  0.00  0.00    +0.000 C 
ENDBRANCH  27  30
ENDBRANCH  25  27
ENDBRANCH  24  25
ENDBRANCH   3  24
TORSDOF 7
ENDMDL
MODEL 3
REMARK VINA RESULT:      -6.9     23.347     26.539
REMARK  Name = Simvastatin.pdbqt.pdb
REMARK  7 active torsions:
REMARK  status: ('A' for Active; 'I' for Inactive)
REMARK    1  A    between atoms: C_2  and  C_13
REMARK    2  A    between atoms: C_3  and  O_24
REMARK    3  A    between atoms: C_14  and  C_15
REMARK    4  A    between atoms: C_20  and  O_22
REMARK    5  A    between atoms: O_24  and  C_25
REMARK    6  A    between atoms: C_25  and  C_27
REMARK    7  A    between atoms: C_27  and  C_30
REMARK                            x       y       z     vdW  Elec       q    Type
REMARK                         _______ _______ _______ _____ _____    ______ ____
ROOT
ATOM      1  C   UNL     1     -40.279 -41.756  49.212  0.00  0.00    +0.000 A 
ATOM      2  C   UNL     1     -39.180 -42.605  48.610  0.00  0.00    +0.000 A 
ATOM      3  C   UNL     1     -40.212 -41.061  50.546  0.00  0.00    +0.000 A 
ATOM      4  C   UNL     1     -39.247 -42.991  47.175  0.00  0.00    +0.000 A 
ATOM      5  C   UNL     1     -41.535 -41.527  48.345  0.00  0.00    +0.000 A 
ATOM      6  C   UNL     1     -41.375 -40.248  50.782  0.00  0.00    +0.000 A 
ATOM      7  C   UNL     1     -42.541 -39.937  50.013  0.00  0.00    +0.000 A 
ATOM      8  C   UNL     1     -42.416 -40.689  48.805  0.00  0.00    +0.000 A 
ATOM      9  C   UNL     1     -40.455 -42.560  46.555  0.00  0.00    +0.000 A 
ATOM     10  C   UNL     1     -41.392 -41.967  47.010  0.00  0.00    +0.000 A 
ATOM     11  C   UNL     1     -38.234 -43.796  46.419  0.00  0.00    +0.000 C 
ATOM     12  C   UNL     1     -43.058 -38.535  49.979  0.00  0.00    +0.000 C 
ENDROOT
BRANCH   2  13
ATOM     13  C   UNL     1     -38.214 -43.202  49.471  0.00  0.00    +0.000 C 
ATOM     14  C   UNL     1     -37.143 -43.874  50.339  0.00  0.00    +0.000 C 
BRANCH  14  15
ATOM     15  C   UNL     1     -36.118 -44.502  51.087  0.00  0.00    +0.000 C 
ATOM     16  O   UNL     1     -34.789 -43.946  51.006  0.00  0.00    +0.000 OA
ATOM     17  C   UNL     1     -33.724 -44.553  51.680  0.00  0.00    +0.000 C 
ATOM     18  O   UNL     1     -32.575 -44.139  51.657  0.00  0.00    +0.000 OA
ATOM     19  C   UNL     1     -34.093 -45.737  52.415  0.00  0.00    +0.000 C 
ATOM     20  C   UNL     1     -35.313 -46.423  52.599  0.00  0.00    +0.000 C 
ATOM     21  C   UNL     1     -36.263 -45.681  51.863  0.00  0.00    +0.000 C 
BRANCH  20  22
ATOM     22  O   UNL     1     -35.354 -47.783  52.707  0.00  0.00    +0.000 OA
ATOM     23  H   UNL     1     -34.668 -48.222  52.168  0.00  0.00    +0.000 HD
ENDBRANCH  20  22
ENDBRANCH  14  15
ENDBRANCH   2  13
BRANCH   3  24
ATOM     24  O   UNL     1     -38.960 -40.534  50.877  0.00  0.00    +0.000 OA
BRANCH  24  25
ATOM     25  C   UNL     1     -38.934 -39.153  50.813  0.00  0.00    +0.000 C 
ATOM     26  O   UNL     1     -39.513 -38.422  51.620  0.00  0.00    +0.000 OA
BRANCH  25  27
ATOM     27  C   UNL     1     -38.098 -38.665  49.579  0.00  0.00    +0.000 C 
ATOM     28  C   UNL     1     -37.005 -39.743  49.230  0.00  0.00    +0.000 C 
ATOM     29  C   UNL     1     -37.374 -37.293  49.892  0.00  0.00    +0.000 C 
BRANCH  27  30
ATOM     30  C   UNL     1     -39.049 -38.477  48.448  0.00  0.00    +0.000 C 
ATOM     31  C   UNL     1     -40.078 -38.300  47.293  0.00  0.00    +0.000 C 
ENDBRANCH  27  30
ENDBRANCH  25  27
ENDBRANCH  24  25
ENDBRANCH   3  24
TORSDOF 7
ENDMDL
MODEL 4
REMARK VINA RESULT:      -6.8      7.023      9.089
REMARK  Name = Simvastatin.pdbqt.pdb
REMARK  7 active torsions:
REMARK  status: ('A' for Active; 'I' for Inactive)
REMARK    1  A    between atoms: C_2  and  C_13
REMARK    2  A    between atoms: C_3  and  O_24
REMARK    3  A    between atoms: C_14  and  C_15
REMARK    4  A    between atoms: C_20  and  O_22
REMARK    5  A    between atoms: O_24  and  C_25
REMARK    6  A    between atoms: C_25  and  C_27
REMARK    7  A    between atoms: C_27  and  C_30
REMARK                            x       y       z     vdW  Elec       q    Type
REMARK                         _______ _______ _______ _____ _____    ______ ____
ROOT
ATOM      1  C   UNL     1     -45.105 -63.956  29.400  0.00  0.00    +0.000 A 
ATOM      2  C   UNL     1     -46.082 -62.807  29.519  0.00  0.00    +0.000 A 
ATOM      3  C   UNL     1     -44.773 -64.936  30.494  0.00  0.00    +0.000 A 
ATOM      4  C   UNL     1     -46.542 -62.097  28.295  0.00  0.00    +0.000 A 
ATOM      5  C   UNL     1     -44.462 -64.181  28.014  0.00  0.00    +0.000 A 
ATOM      6  C   UNL     1     -43.890 -65.972  30.030  0.00  0.00    +0.000 A 
ATOM      7  C   UNL     1     -43.304 -66.283  28.762  0.00  0.00    +0.000 A 
ATOM      8  C   UNL     1     -43.731 -65.247  27.878  0.00  0.00    +0.000 A 
ATOM      9  C   UNL     1     -45.888 -62.566  27.120  0.00  0.00    +0.000 A 
ATOM     10  C   UNL     1     -45.044 -63.408  26.985  0.00  0.00    +0.000 A 
ATOM     11  C   UNL     1     -47.523 -60.966  28.235  0.00  0.00    +0.000 C 
ATOM     12  C   UNL     1     -43.251 -67.702  28.295  0.00  0.00    +0.000 C 
ENDROOT
BRANCH   2  13
ATOM     13  C   UNL     1     -46.380 -62.281  30.810  0.00  0.00    +0.000 C 
ATOM     14  C   UNL     1     -46.653 -61.660  32.186  0.00  0.00    +0.000 C 
BRANCH  14  15
ATOM     15  C   UNL     1     -46.881 -61.032  33.434  0.00  0.00    +0.000 C 
ATOM     16  O   UNL     1     -48.161 -61.237  34.067  0.00  0.00    +0.000 OA
ATOM     17  C   UNL     1     -48.465 -60.599  35.274  0.00  0.00    +0.000 C 
ATOM     18  O   UNL     1     -49.526 -60.725  35.866  0.00  0.00    +0.000 OA
ATOM     19  C   UNL     1     -47.408 -59.756  35.775  0.00  0.00    +0.000 C 
ATOM     20  C   UNL     1     -46.120 -59.430  35.300  0.00  0.00    +0.000 C 
ATOM     21  C   UNL     1     -45.982 -60.153  34.094  0.00  0.00    +0.000 C 
BRANCH  20  22
ATOM     22  O   UNL     1     -45.587 -58.188  35.486  0.00  0.00    +0.000 OA
ATOM     23  H   UNL     1     -45.202 -57.820  34.668  0.00  0.00    +0.000 HD
ENDBRANCH  20  22
ENDBRANCH  14  15
ENDBRANCH   2  13
BRANCH   3  24
ATOM     24  O   UNL     1     -45.848 -65.301  31.309  0.00  0.00    +0.000 OA
BRANCH  24  25
ATOM     25  C   UNL     1     -46.197 -66.631  31.160  0.00  0.00    +0.000 C 
ATOM     26  O   UNL     1     -45.511 -67.566  31.577  0.00  0.00    +0.000 OA
BRANCH  25  27
ATOM     27  C   UNL     1     -47.551 -66.771  30.380  0.00  0.00    +0.000 C 
ATOM     28  C   UNL     1     -48.443 -65.501  30.651  0.00  0.00    +0.000 C 
ATOM     29  C   UNL     1     -48.345 -68.056  30.849  0.00  0.00    +0.000 C 
BRANCH  27  30
ATOM     30  C   UNL     1     -47.217 -66.893  28.933  0.00  0.00    +0.000 C 
ATOM     31  C   UNL     1     -46.846 -67.065  27.431  0.00  0.00    +0.000 C 
ENDBRANCH  27  30
ENDBRANCH  25  27
ENDBRANCH  24  25
ENDBRANCH   3  24
TORSDOF 7
ENDMDL
MODEL 5
REMARK VINA RESULT:      -6.8      2.621      5.692
REMARK  Name = Simvastatin.pdbqt.pdb
REMARK  7 active torsions:
REMARK  status: ('A' for Active; 'I' for Inactive)
REMARK    1  A    between atoms: C_2  and  C_13
REMARK    2  A    between atoms: C_3  and  O_24
REMARK    3  A    between atoms: C_14  and  C_15
REMARK    4  A    between atoms: C_20  and  O_22
REMARK    5  A    between atoms: O_24  and  C_25
REMARK    6  A    between atoms: C_25  and  C_27
REMARK    7  A    between atoms: C_27  and  C_30
REMARK                            x       y       z     vdW  Elec       q    Type
REMARK                         _______ _______ _______ _____ _____    ______ ____
ROOT
ATOM      1  C   UNL     1     -46.421 -63.754  35.831  0.00  0.00    +0.000 A 
ATOM      2  C   UNL     1     -45.479 -64.928  35.672  0.00  0.00    +0.000 A 
ATOM      3  C   UNL     1     -46.556 -62.904  37.067  0.00  0.00    +0.000 A 
ATOM      4  C   UNL     1     -45.227 -65.497  34.321  0.00  0.00    +0.000 A 
ATOM      5  C   UNL     1     -47.249 -63.355  34.590  0.00  0.00    +0.000 A 
ATOM      6  C   UNL     1     -47.459 -61.805  36.860  0.00  0.00    +0.000 A 
ATOM      7  C   UNL     1     -48.211 -61.335  35.737  0.00  0.00    +0.000 A 
ATOM      8  C   UNL     1     -47.953 -62.267  34.686  0.00  0.00    +0.000 A 
ATOM      9  C   UNL     1     -46.027 -64.879  33.317  0.00  0.00    +0.000 A 
ATOM     10  C   UNL     1     -46.850 -64.012  33.405  0.00  0.00    +0.000 A 
ATOM     11  C   UNL     1     -44.306 -66.630  33.987  0.00  0.00    +0.000 C 
ATOM     12  C   UNL     1     -48.280 -59.870  35.447  0.00  0.00    +0.000 C 
ENDROOT
BRANCH   2  13
ATOM     13  C   UNL     1     -45.016 -65.609  36.837  0.00  0.00    +0.000 C 
ATOM     14  C   UNL     1     -44.460 -66.299  38.088  0.00  0.00    +0.000 C 
BRANCH  14  15
ATOM     15  C   UNL     1     -43.907 -66.886  39.251  0.00  0.00    +0.000 C 
ATOM     16  O   UNL     1     -42.471 -66.877  39.392  0.00  0.00    +0.000 OA
ATOM     17  C   UNL     1     -41.863 -67.488  40.493  0.00  0.00    +0.000 C 
ATOM     18  O   UNL     1     -40.656 -67.519  40.679  0.00  0.00    +0.000 OA
ATOM     19  C   UNL     1     -42.791 -68.100  41.412  0.00  0.00    +0.000 C 
ATOM     20  C   UNL     1     -44.197 -68.218  41.435  0.00  0.00    +0.000 C 
ATOM     21  C   UNL     1     -44.638 -67.552  40.270  0.00  0.00    +0.000 C 
BRANCH  20  22
ATOM     22  O   UNL     1     -44.809 -69.332  41.929  0.00  0.00    +0.000 OA
ATOM     23  H   UNL     1     -45.688 -69.139  42.308  0.00  0.00    +0.000 HD
ENDBRANCH  20  22
ENDBRANCH  14  15
ENDBRANCH   2  13
BRANCH   3  24
ATOM     24  O   UNL     1     -45.361 -62.659  37.750  0.00  0.00    +0.000 OA
BRANCH  24  25
ATOM     25  C   UNL     1     -45.458 -62.937  39.101  0.00  0.00    +0.000 C 
ATOM     26  O   UNL     1     -46.509 -63.269  39.654  0.00  0.00    +0.000 OA
BRANCH  25  27
ATOM     27  C   UNL     1     -44.073 -62.752  39.812  0.00  0.00    +0.000 C 
ATOM     28  C   UNL     1     -44.008 -63.682  41.081  0.00  0.00    +0.000 C 
ATOM     29  C   UNL     1     -43.869 -61.252  40.274  0.00  0.00    +0.000 C 
BRANCH  27  30
ATOM     30  C   UNL     1     -43.017 -63.115  38.826  0.00  0.00    +0.000 C 
ATOM     31  C   UNL     1     -41.947 -63.522  37.770  0.00  0.00    +0.000 C 
ENDBRANCH  27  30
ENDBRANCH  25  27
ENDBRANCH  24  25
ENDBRANCH   3  24
TORSDOF 7
ENDMDL
MODEL 6
REMARK VINA RESULT:      -6.7      3.949      6.805
REMARK  Name = Simvastatin.pdbqt.pdb
REMARK  7 active torsions:
REMARK  status: ('A' for Active; 'I' for Inactive)
REMARK    1  A    between atoms: C_2  and  C_13
REMARK    2  A    between atoms: C_3  and  O_24
REMARK    3  A    between atoms: C_14  and  C_15
REMARK    4  A    between atoms: C_20  and  O_22
REMARK    5  A    between atoms: O_24  and  C_25
REMARK    6  A    between atoms: C_25  and  C_27
REMARK    7  A    between atoms: C_27  and  C_30
REMARK                            x       y       z     vdW  Elec       q    Type
REMARK                         _______ _______ _______ _____ _____    ______ ____
ROOT
ATOM      1  C   UNL     1     -46.715 -62.483  34.233  0.00  0.00    +0.000 A 
ATOM      2  C   UNL     1     -47.214 -62.723  35.641  0.00  0.00    +0.000 A 
ATOM      3  C   UNL     1     -46.030 -63.505  33.364  0.00  0.00    +0.000 A 
ATOM      4  C   UNL     1     -48.126 -61.738  36.281  0.00  0.00    +0.000 A 
ATOM      5  C   UNL     1     -47.008 -61.097  33.618  0.00  0.00    +0.000 A 
ATOM      6  C   UNL     1     -45.776 -62.995  32.044  0.00  0.00    +0.000 A 
ATOM      7  C   UNL     1     -46.067 -61.760  31.383  0.00  0.00    +0.000 A 
ATOM      8  C   UNL     1     -46.701 -60.940  32.365  0.00  0.00    +0.000 A 
ATOM      9  C   UNL     1     -48.341 -60.591  35.463  0.00  0.00    +0.000 A 
ATOM     10  C   UNL     1     -47.899 -60.313  34.384  0.00  0.00    +0.000 A 
ATOM     11  C   UNL     1     -48.732 -61.838  37.647  0.00  0.00    +0.000 C 
ATOM     12  C   UNL     1     -46.561 -61.768  29.972  0.00  0.00    +0.000 C 
ENDROOT
BRANCH   2  13
ATOM     13  C   UNL     1     -46.635 -63.773  36.413  0.00  0.00    +0.000 C 
ATOM     14  C   UNL     1     -46.079 -64.928  37.255  0.00  0.00    +0.000 C 
BRANCH  14  15
ATOM     15  C   UNL     1     -45.621 -66.025  38.023  0.00  0.00    +0.000 C 
ATOM     16  O   UNL     1     -44.259 -66.462  37.828  0.00  0.00    +0.000 OA
ATOM     17  C   UNL     1     -43.766 -67.573  38.519  0.00  0.00    +0.000 C 
ATOM     18  O   UNL     1     -42.627 -67.999  38.405  0.00  0.00    +0.000 OA
ATOM     19  C   UNL     1     -44.729 -68.199  39.390  0.00  0.00    +0.000 C 
ATOM     20  C   UNL     1     -46.080 -67.928  39.695  0.00  0.00    +0.000 C 
ATOM     21  C   UNL     1     -46.407 -66.789  38.925  0.00  0.00    +0.000 C 
BRANCH  20  22
ATOM     22  O   UNL     1     -46.968 -68.932  39.949  0.00  0.00    +0.000 OA
ATOM     23  H   UNL     1     -47.869 -68.600  40.125  0.00  0.00    +0.000 HD
ENDBRANCH  20  22
ENDBRANCH  14  15
ENDBRANCH   2  13
BRANCH   3  24
ATOM     24  O   UNL     1     -46.518 -64.809  33.486  0.00  0.00    +0.000 OA
BRANCH  24  25
ATOM     25  C   UNL     1     -47.603 -65.047  32.662  0.00  0.00    +0.000 C 
ATOM     26  O   UNL     1     -48.658 -64.413  32.724  0.00  0.00    +0.000 OA
BRANCH  25  27
ATOM     27  C   UNL     1     -47.307 -66.230  31.675  0.00  0.00    +0.000 C 
ATOM     28  C   UNL     1     -48.370 -67.372  31.896  0.00  0.00    +0.000 C 
ATOM     29  C   UNL     1     -45.864 -66.828  31.922  0.00  0.00    +0.000 C 
BRANCH  27  30
ATOM     30  C   UNL     1     -47.388 -65.683  30.292  0.00  0.00    +0.000 C 
ATOM     31  C   UNL     1     -47.521 -65.109  28.850  0.00  0.00    +0.000 C 
ENDBRANCH  27  30
ENDBRANCH  25  27
ENDBRANCH  24  25
ENDBRANCH   3  24
TORSDOF 7
ENDMDL
MODEL 7
REMARK VINA RESULT:      -6.7      9.910     14.630
REMARK  Name = Simvastatin.pdbqt.pdb
REMARK  7 active torsions:
REMARK  status: ('A' for Active; 'I' for Inactive)
REMARK    1  A    between atoms: C_2  and  C_13
REMARK    2  A    between atoms: C_3  and  O_24
REMARK    3  A    between atoms: C_14  and  C_15
REMARK    4  A    between atoms: C_20  and  O_22
REMARK    5  A    between atoms: O_24  and  C_25
REMARK    6  A    between atoms: C_25  and  C_27
REMARK    7  A    between atoms: C_27  and  C_30
REMARK                            x       y       z     vdW  Elec       q    Type
REMARK                         _______ _______ _______ _____ _____    ______ ____
ROOT
ATOM      1  C   UNL     1     -46.889 -66.486  28.455  0.00  0.00    +0.000 A 
ATOM      2  C   UNL     1     -46.185 -65.674  27.389  0.00  0.00    +0.000 A 
ATOM      3  C   UNL     1     -46.822 -67.984  28.596  0.00  0.00    +0.000 A 
ATOM      4  C   UNL     1     -46.089 -64.196  27.528  0.00  0.00    +0.000 A 
ATOM      5  C   UNL     1     -47.672 -65.697  29.526  0.00  0.00    +0.000 A 
ATOM      6  C   UNL     1     -47.513 -68.439  29.772  0.00  0.00    +0.000 A 
ATOM      7  C   UNL     1     -48.204 -67.776  30.836  0.00  0.00    +0.000 A 
ATOM      8  C   UNL     1     -48.159 -66.386  30.515  0.00  0.00    +0.000 A 
ATOM      9  C   UNL     1     -46.797 -63.714  28.667  0.00  0.00    +0.000 A 
ATOM     10  C   UNL     1     -47.442 -64.305  29.488  0.00  0.00    +0.000 A 
ATOM     11  C   UNL     1     -45.405 -63.253  26.587  0.00  0.00    +0.000 C 
ATOM     12  C   UNL     1     -48.012 -68.233  32.246  0.00  0.00    +0.000 C 
ENDROOT
BRANCH   2  13
ATOM     13  C   UNL     1     -45.816 -66.306  26.165  0.00  0.00    +0.000 C 
ATOM     14  C   UNL     1     -45.366 -66.937  24.842  0.00  0.00    +0.000 C 
BRANCH  14  15
ATOM     15  C   UNL     1     -44.893 -67.490  23.628  0.00  0.00    +0.000 C 
ATOM     16  O   UNL     1     -44.298 -66.593  22.667  0.00  0.00    +0.000 OA
ATOM     17  C   UNL     1     -43.861 -67.071  21.427  0.00  0.00    +0.000 C 
ATOM     18  O   UNL     1     -43.349 -66.372  20.566  0.00  0.00    +0.000 OA
ATOM     19  C   UNL     1     -44.074 -68.484  21.235  0.00  0.00    +0.000 C 
ATOM     20  C   UNL     1     -44.638 -69.498  22.038  0.00  0.00    +0.000 C 
ATOM     21  C   UNL     1     -45.015 -68.849  23.234  0.00  0.00    +0.000 C 
BRANCH  20  22
ATOM     22  O   UNL     1     -45.355 -70.522  21.491  0.00  0.00    +0.000 OA
ATOM     23  H   UNL     1     -45.488 -71.261  22.116  0.00  0.00    +0.000 HD
ENDBRANCH  20  22
ENDBRANCH  14  15
ENDBRANCH   2  13
BRANCH   3  24
ATOM     24  O   UNL     1     -45.579 -68.552  28.299  0.00  0.00    +0.000 OA
BRANCH  24  25
ATOM     25  C   UNL     1     -44.812 -68.766  29.430  0.00  0.00    +0.000 C 
ATOM     26  O   UNL     1     -45.145 -69.521  30.346  0.00  0.00    +0.000 OA
BRANCH  25  27
ATOM     27  C   UNL     1     -43.499 -67.909  29.387  0.00  0.00    +0.000 C 
ATOM     28  C   UNL     1     -43.083 -67.665  27.887  0.00  0.00    +0.000 C 
ATOM     29  C   UNL     1     -42.313 -68.651  30.126  0.00  0.00    +0.000 C 
BRANCH  27  30
ATOM     30  C   UNL     1     -43.788 -66.623  30.080  0.00  0.00    +0.000 C 
ATOM     31  C   UNL     1     -44.131 -65.273  30.777  0.00  0.00    +0.000 C 
ENDBRANCH  27  30
ENDBRANCH  25  27
ENDBRANCH  24  25
ENDBRANCH   3  24
TORSDOF 7
ENDMDL
MODEL 8
REMARK VINA RESULT:      -6.7      3.017      5.074
REMARK  Name = Simvastatin.pdbqt.pdb
REMARK  7 active torsions:
REMARK  status: ('A' for Active; 'I' for Inactive)
REMARK    1  A    between atoms: C_2  and  C_13
REMARK    2  A    between atoms: C_3  and  O_24
REMARK    3  A    between atoms: C_14  and  C_15
REMARK    4  A    between atoms: C_20  and  O_22
REMARK    5  A    between atoms: O_24  and  C_25
REMARK    6  A    between atoms: C_25  and  C_27
REMARK    7  A    between atoms: C_27  and  C_30
REMARK                            x       y       z     vdW  Elec       q    Type
REMARK                         _______ _______ _______ _____ _____    ______ ____
ROOT
ATOM      1  C   UNL     1     -46.099 -63.879  37.398  0.00  0.00    +0.000 A 
ATOM      2  C   UNL     1     -45.926 -64.021  38.894  0.00  0.00    +0.000 A 
ATOM      3  C   UNL     1     -45.604 -64.857  36.366  0.00  0.00    +0.000 A 
ATOM      4  C   UNL     1     -46.707 -63.151  39.815  0.00  0.00    +0.000 A 
ATOM      5  C   UNL     1     -46.921 -62.669  36.904  0.00  0.00    +0.000 A 
ATOM      6  C   UNL     1     -46.021 -64.489  35.040  0.00  0.00    +0.000 A 
ATOM      7  C   UNL     1     -46.825 -63.430  34.511  0.00  0.00    +0.000 A 
ATOM      8  C   UNL     1     -47.184 -62.624  35.632  0.00  0.00    +0.000 A 
ATOM      9  C   UNL     1     -47.486 -62.185  39.115  0.00  0.00    +0.000 A 
ATOM     10  C   UNL     1     -47.586 -61.974  37.938  0.00  0.00    +0.000 A 
ATOM     11  C   UNL     1     -46.678 -63.183  41.313  0.00  0.00    +0.000 C 
ATOM     12  C   UNL     1     -47.824 -63.720  33.437  0.00  0.00    +0.000 C 
ENDROOT
BRANCH   2  13
ATOM     13  C   UNL     1     -44.864 -64.829  39.397  0.00  0.00    +0.000 C 
ATOM     14  C   UNL     1     -43.767 -65.755  39.936  0.00  0.00    +0.000 C 
BRANCH  14  15
ATOM     15  C   UNL     1     -42.789 -66.660  40.413  0.00  0.00    +0.000 C 
ATOM     16  O   UNL     1     -41.757 -67.080  39.496  0.00  0.00    +0.000 OA
ATOM     17  C   UNL     1     -40.794 -68.013  39.892  0.00  0.00    +0.000 C 
ATOM     18  O   UNL     1     -39.893 -68.415  39.171  0.00  0.00    +0.000 OA
ATOM     19  C   UNL     1     -40.953 -68.483  41.246  0.00  0.00    +0.000 C 
ATOM     20  C   UNL     1     -41.886 -68.202  42.266  0.00  0.00    +0.000 C 
ATOM     21  C   UNL     1     -42.768 -67.253  41.703  0.00  0.00    +0.000 C 
BRANCH  20  22
ATOM     22  O   UNL     1     -42.293 -69.164  43.143  0.00  0.00    +0.000 OA
ATOM     23  H   UNL     1     -41.901 -70.037  42.948  0.00  0.00    +0.000 HD
ENDBRANCH  20  22
ENDBRANCH  14  15
ENDBRANCH   2  13
BRANCH   3  24
ATOM     24  O   UNL     1     -45.690 -66.203  36.735  0.00  0.00    +0.000 OA
BRANCH  24  25
ATOM     25  C   UNL     1     -44.481 -66.863  36.616  0.00  0.00    +0.000 C 
ATOM     26  O   UNL     1     -43.432 -66.307  36.285  0.00  0.00    +0.000 OA
BRANCH  25  27
ATOM     27  C   UNL     1     -44.643 -68.390  36.934  0.00  0.00    +0.000 C 
ATOM     28  C   UNL     1     -43.221 -69.065  36.990  0.00  0.00    +0.000 C 
ATOM     29  C   UNL     1     -45.502 -69.114  35.820  0.00  0.00    +0.000 C 
BRANCH  27  30
ATOM     30  C   UNL     1     -45.340 -68.497  38.246  0.00  0.00    +0.000 C 
ATOM     31  C   UNL     1     -46.091 -68.566  39.608  0.00  0.00    +0.000 C 
ENDBRANCH  27  30
ENDBRANCH  25  27
ENDBRANCH  24  25
ENDBRANCH   3  24
TORSDOF 7
ENDMDL
MODEL 9
REMARK VINA RESULT:      -6.7      7.930     10.287
REMARK  Name = Simvastatin.pdbqt.pdb
REMARK  7 active torsions:
REMARK  status: ('A' for Active; 'I' for Inactive)
REMARK    1  A    between atoms: C_2  and  C_13
REMARK    2  A    between atoms: C_3  and  O_24
REMARK    3  A    between atoms: C_14  and  C_15
REMARK    4  A    between atoms: C_20  and  O_22
REMARK    5  A    between atoms: O_24  and  C_25
REMARK    6  A    between atoms: C_25  and  C_27
REMARK    7  A    between atoms: C_27  and  C_30
REMARK                            x       y       z     vdW  Elec       q    Type
REMARK                         _______ _______ _______ _____ _____    ______ ____
ROOT
ATOM      1  C   UNL     1     -44.006 -59.037  36.016  0.00  0.00    +0.000 A 
ATOM      2  C   UNL     1     -42.999 -58.042  35.480  0.00  0.00    +0.000 A 
ATOM      3  C   UNL     1     -45.477 -59.049  35.692  0.00  0.00    +0.000 A 
ATOM      4  C   UNL     1     -41.544 -58.308  35.635  0.00  0.00    +0.000 A 
ATOM      5  C   UNL     1     -43.456 -60.176  36.901  0.00  0.00    +0.000 A 
ATOM      6  C   UNL     1     -46.140 -60.185  36.274  0.00  0.00    +0.000 A 
ATOM      7  C   UNL     1     -45.697 -61.305  37.047  0.00  0.00    +0.000 A 
ATOM      8  C   UNL     1     -44.298 -61.105  37.245  0.00  0.00    +0.000 A 
ATOM      9  C   UNL     1     -41.287 -59.487  36.391  0.00  0.00    +0.000 A 
ATOM     10  C   UNL     1     -42.046 -60.257  36.912  0.00  0.00    +0.000 A 
ATOM     11  C   UNL     1     -40.422 -57.447  35.139  0.00  0.00    +0.000 C 
ATOM     12  C   UNL     1     -46.231 -62.670  36.752  0.00  0.00    +0.000 C 
ENDROOT
BRANCH   2  13
ATOM     13  C   UNL     1     -43.454 -56.767  35.033  0.00  0.00    +0.000 C 
ATOM     14  C   UNL     1     -43.889 -55.365  34.589  0.00  0.00    +0.000 C 
BRANCH  14  15
ATOM     15  C   UNL     1     -44.230 -54.049  34.195  0.00  0.00    +0.000 C 
ATOM     16  O   UNL     1     -44.227 -53.748  32.784  0.00  0.00    +0.000 OA
ATOM     17  C   UNL     1     -44.504 -52.452  32.335  0.00  0.00    +0.000 C 
ATOM     18  O   UNL     1     -44.519 -52.124  31.159  0.00  0.00    +0.000 OA
ATOM     19  C   UNL     1     -44.770 -51.509  33.393  0.00  0.00    +0.000 C 
ATOM     20  C   UNL     1     -44.807 -51.614  34.800  0.00  0.00    +0.000 C 
ATOM     21  C   UNL     1     -44.512 -52.969  35.072  0.00  0.00    +0.000 C 
BRANCH  20  22
ATOM     22  O   UNL     1     -44.395 -50.590  35.601  0.00  0.00    +0.000 OA
ATOM     23  H   UNL     1     -44.031 -50.903  36.451  0.00  0.00    +0.000 HD
ENDBRANCH  20  22
ENDBRANCH  14  15
ENDBRANCH   2  13
BRANCH   3  24
ATOM     24  O   UNL     1     -45.798 -58.699  34.377  0.00  0.00    +0.000 OA
BRANCH  24  25
ATOM     25  C   UNL     1     -46.017 -59.803  33.575  0.00  0.00    +0.000 C 
ATOM     26  O   UNL     1     -46.940 -60.601  33.752  0.00  0.00    +0.000 OA
BRANCH  25  27
ATOM     27  C   UNL     1     -44.932 -59.901  32.446  0.00  0.00    +0.000 C 
ATOM     28  C   UNL     1     -44.429 -58.455  32.079  0.00  0.00    +0.000 C 
ATOM     29  C   UNL     1     -45.527 -60.576  31.145  0.00  0.00    +0.000 C 
BRANCH  27  30
ATOM     30  C   UNL     1     -43.819 -60.738  32.975  0.00  0.00    +0.000 C 
ATOM     31  C   UNL     1     -42.689 -61.641  33.552  0.00  0.00    +0.000 C 
ENDBRANCH  27  30
ENDBRANCH  25  27
ENDBRANCH  24  25
ENDBRANCH   3  24
TORSDOF 7
ENDMDL
