MODEL 1
REMARK VINA RESULT:      -8.5      0.000      0.000
REMARK  Name = Staurosporine.pdbqt.pdb
REMARK  2 active torsions:
REMARK  status: ('A' for Active; 'I' for Inactive)
REMARK    1  A    between atoms: C_3  and  O_11
REMARK    2  A    between atoms: C_5  and  N_8
REMARK                            x       y       z     vdW  Elec       q    Type
REMARK                         _______ _______ _______ _____ _____    ______ ____
ROOT
ATOM      1  O   UNL     1     -43.164 -64.708  38.646  0.00  0.00    +0.000 OA
ATOM      2  C   UNL     1     -43.628 -65.542  37.549  0.00  0.00    +0.000 C 
ATOM      3  C   UNL     1     -43.990 -66.989  37.940  0.00  0.00    +0.000 C 
ATOM      4  C   UNL     1     -43.988 -64.758  39.758  0.00  0.00    +0.000 C 
ATOM      5  C   UNL     1     -44.334 -67.272  39.331  0.00  0.00    +0.000 C 
ATOM      6  C   UNL     1     -44.257 -66.099  40.104  0.00  0.00    +0.000 C 
ATOM      7  C   UNL     1     -42.379 -65.624  36.608  0.00  0.00    +0.000 C 
ATOM      8  N   UNL     1     -44.755 -64.833  36.901  0.00  0.00    +0.000 N 
ATOM      9  C   UNL     1     -45.630 -63.889  37.377  0.00  0.00    +0.000 A 
ATOM     10  C   UNL     1     -45.760 -63.425  38.690  0.00  0.00    +0.000 A 
ATOM     11  C   UNL     1     -46.576 -63.341  36.500  0.00  0.00    +0.000 A 
ATOM     12  N   UNL     1     -45.049 -63.876  39.760  0.00  0.00    +0.000 N 
ATOM     13  C   UNL     1     -46.822 -62.534  38.905  0.00  0.00    +0.000 A 
ATOM     14  C   UNL     1     -45.773 -63.281  40.813  0.00  0.00    +0.000 A 
ATOM     15  C   UNL     1     -46.827 -62.431  40.313  0.00  0.00    +0.000 A 
ATOM     16  C   UNL     1     -45.549 -63.409  42.193  0.00  0.00    +0.000 A 
ATOM     17  C   UNL     1     -47.628 -61.751  41.252  0.00  0.00    +0.000 A 
ATOM     18  C   UNL     1     -47.390 -61.892  42.619  0.00  0.00    +0.000 A 
ATOM     19  C   UNL     1     -46.368 -62.710  43.078  0.00  0.00    +0.000 A 
ATOM     20  C   UNL     1     -47.770 -61.969  38.029  0.00  0.00    +0.000 A 
ATOM     21  C   UNL     1     -47.616 -62.420  36.689  0.00  0.00    +0.000 A 
ATOM     22  C   UNL     1     -48.898 -61.073  38.135  0.00  0.00    +0.000 C 
ATOM     23  C   UNL     1     -48.699 -61.781  35.894  0.00  0.00    +0.000 C 
ATOM     24  N   UNL     1     -49.361 -61.043  36.812  0.00  0.00    +0.000 N 
ATOM     25  H   UNL     1     -50.163 -60.477  36.572  0.00  0.00    +0.000 HD
ATOM     26  O   UNL     1     -49.406 -60.452  39.057  0.00  0.00    +0.000 OA
ATOM     27  C   UNL     1     -46.310 -64.027  35.305  0.00  0.00    +0.000 A 
ATOM     28  C   UNL     1     -45.220 -64.938  35.562  0.00  0.00    +0.000 A 
ATOM     29  C   UNL     1     -46.881 -64.008  34.016  0.00  0.00    +0.000 A 
ATOM     30  C   UNL     1     -44.755 -65.774  34.531  0.00  0.00    +0.000 A 
ATOM     31  C   UNL     1     -45.351 -65.717  33.271  0.00  0.00    +0.000 A 
ATOM     32  C   UNL     1     -46.397 -64.847  33.014  0.00  0.00    +0.000 A 
ENDROOT
BRANCH   5  33
ATOM     33  N   UNL     1     -44.882 -68.504  39.782  0.00  0.00    +0.000 N 
ATOM     34  C   UNL     1     -46.292 -68.467  40.104  0.00  0.00    +0.000 C 
ATOM     35  H   UNL     1     -44.291 -69.027  40.432  0.00  0.00    +0.000 HD
ENDBRANCH   5  33
BRANCH   3  36
ATOM     36  O   UNL     1     -44.481 -67.779  36.923  0.00  0.00    +0.000 OA
ATOM     37  C   UNL     1     -43.629 -68.856  36.639  0.00  0.00    +0.000 C 
ENDBRANCH   3  36
TORSDOF 2
ENDMDL
MODEL 2
REMARK VINA RESULT:      -8.1      6.313     10.824
REMARK  Name = Staurosporine.pdbqt.pdb
REMARK  2 active torsions:
REMARK  status: ('A' for Active; 'I' for Inactive)
REMARK    1  A    between atoms: C_3  and  O_11
REMARK    2  A    between atoms: C_5  and  N_8
REMARK                            x       y       z     vdW  Elec       q    Type
REMARK                         _______ _______ _______ _____ _____    ______ ____
ROOT
ATOM      1  O   UNL     1     -47.810 -68.030  29.386  0.00  0.00    +0.000 OA
ATOM      2  C   UNL     1     -47.348 -67.478  30.649  0.00  0.00    +0.000 C 
ATOM      3  C   UNL     1     -46.183 -68.245  31.307  0.00  0.00    +0.000 C 
ATOM      4  C   UNL     1     -46.783 -68.287  28.492  0.00  0.00    +0.000 C 
ATOM      5  C   UNL     1     -45.328 -69.077  30.463  0.00  0.00    +0.000 C 
ATOM      6  C   UNL     1     -45.761 -69.025  29.125  0.00  0.00    +0.000 C 
ATOM      7  C   UNL     1     -48.590 -67.644  31.588  0.00  0.00    +0.000 C 
ATOM      8  N   UNL     1     -47.025 -66.051  30.415  0.00  0.00    +0.000 N 
ATOM      9  C   UNL     1     -46.675 -65.372  29.275  0.00  0.00    +0.000 A 
ATOM     10  C   UNL     1     -46.405 -65.904  28.010  0.00  0.00    +0.000 A 
ATOM     11  C   UNL     1     -46.484 -63.986  29.346  0.00  0.00    +0.000 A 
ATOM     12  N   UNL     1     -46.401 -67.228  27.695  0.00  0.00    +0.000 N 
ATOM     13  C   UNL     1     -45.961 -64.975  27.057  0.00  0.00    +0.000 A 
ATOM     14  C   UNL     1     -45.810 -67.181  26.417  0.00  0.00    +0.000 A 
ATOM     15  C   UNL     1     -45.572 -65.821  25.995  0.00  0.00    +0.000 A 
ATOM     16  C   UNL     1     -45.490 -68.259  25.575  0.00  0.00    +0.000 A 
ATOM     17  C   UNL     1     -44.999 -65.615  24.725  0.00  0.00    +0.000 A 
ATOM     18  C   UNL     1     -44.688 -66.697  23.904  0.00  0.00    +0.000 A 
ATOM     19  C   UNL     1     -44.929 -67.996  24.326  0.00  0.00    +0.000 A 
ATOM     20  C   UNL     1     -45.776 -63.580  27.115  0.00  0.00    +0.000 A 
ATOM     21  C   UNL     1     -46.080 -63.039  28.395  0.00  0.00    +0.000 A 
ATOM     22  C   UNL     1     -45.316 -62.541  26.223  0.00  0.00    +0.000 C 
ATOM     23  C   UNL     1     -45.802 -61.579  28.320  0.00  0.00    +0.000 C 
ATOM     24  N   UNL     1     -45.376 -61.410  27.050  0.00  0.00    +0.000 N 
ATOM     25  H   UNL     1     -45.110 -60.506  26.686  0.00  0.00    +0.000 HD
ATOM     26  O   UNL     1     -44.950 -62.523  25.058  0.00  0.00    +0.000 OA
ATOM     27  C   UNL     1     -46.709 -63.721  30.707  0.00  0.00    +0.000 A 
ATOM     28  C   UNL     1     -47.018 -64.977  31.347  0.00  0.00    +0.000 A 
ATOM     29  C   UNL     1     -46.667 -62.555  31.498  0.00  0.00    +0.000 A 
ATOM     30  C   UNL     1     -47.272 -65.009  32.729  0.00  0.00    +0.000 A 
ATOM     31  C   UNL     1     -47.222 -63.827  33.470  0.00  0.00    +0.000 A 
ATOM     32  C   UNL     1     -46.925 -62.617  32.865  0.00  0.00    +0.000 A 
ENDROOT
BRANCH   5  33
ATOM     33  N   UNL     1     -44.109 -69.665  30.897  0.00  0.00    +0.000 N 
ATOM     34  C   UNL     1     -42.915 -68.924  30.558  0.00  0.00    +0.000 C 
ATOM     35  H   UNL     1     -44.053 -70.679  30.777  0.00  0.00    +0.000 HD
ENDBRANCH   5  33
BRANCH   3  36
ATOM     36  O   UNL     1     -45.697 -67.705  32.478  0.00  0.00    +0.000 OA
ATOM     37  C   UNL     1     -45.909 -68.557  33.573  0.00  0.00    +0.000 C 
ENDBRANCH   3  36
TORSDOF 2
ENDMDL
MODEL 3
REMARK VINA RESULT:      -7.4      1.676      5.539
REMARK  Name = Staurosporine.pdbqt.pdb
REMARK  2 active torsions:
REMARK  status: ('A' for Active; 'I' for Inactive)
REMARK    1  A    between atoms: C_3  and  O_11
REMARK    2  A    between atoms: C_5  and  N_8
REMARK                            x       y       z     vdW  Elec       q    Type
REMARK                         _______ _______ _______ _____ _____    ______ ____
ROOT
ATOM      1  O   UNL     1     -45.632 -66.559  37.399  0.00  0.00    +0.000 OA
ATOM      2  C   UNL     1     -45.221 -65.882  38.619  0.00  0.00    +0.000 C 
ATOM      3  C   UNL     1     -43.698 -65.714  38.788  0.00  0.00    +0.000 C 
ATOM      4  C   UNL     1     -45.033 -66.047  36.260  0.00  0.00    +0.000 C 
ATOM      5  C   UNL     1     -42.854 -65.748  37.596  0.00  0.00    +0.000 C 
ATOM      6  C   UNL     1     -43.638 -65.950  36.445  0.00  0.00    +0.000 C 
ATOM      7  C   UNL     1     -45.700 -66.857  39.747  0.00  0.00    +0.000 C 
ATOM      8  N   UNL     1     -45.942 -64.590  38.669  0.00  0.00    +0.000 N 
ATOM      9  C   UNL     1     -46.485 -63.811  37.679  0.00  0.00    +0.000 A 
ATOM     10  C   UNL     1     -46.384 -63.990  36.295  0.00  0.00    +0.000 A 
ATOM     11  C   UNL     1     -47.175 -62.645  38.037  0.00  0.00    +0.000 A 
ATOM     12  N   UNL     1     -45.673 -64.972  35.677  0.00  0.00    +0.000 N 
ATOM     13  C   UNL     1     -46.950 -62.968  35.520  0.00  0.00    +0.000 A 
ATOM     14  C   UNL     1     -45.700 -64.505  34.348  0.00  0.00    +0.000 A 
ATOM     15  C   UNL     1     -46.504 -63.312  34.225  0.00  0.00    +0.000 A 
ATOM     16  C   UNL     1     -45.088 -65.076  33.220  0.00  0.00    +0.000 A 
ATOM     17  C   UNL     1     -46.639 -62.736  32.946  0.00  0.00    +0.000 A 
ATOM     18  C   UNL     1     -46.024 -63.318  31.839  0.00  0.00    +0.000 A 
ATOM     19  C   UNL     1     -45.260 -64.467  31.978  0.00  0.00    +0.000 A 
ATOM     20  C   UNL     1     -47.655 -61.799  35.870  0.00  0.00    +0.000 A 
ATOM     21  C   UNL     1     -47.781 -61.636  37.278  0.00  0.00    +0.000 A 
ATOM     22  C   UNL     1     -48.257 -60.685  35.175  0.00  0.00    +0.000 C 
ATOM     23  C   UNL     1     -48.502 -60.353  37.497  0.00  0.00    +0.000 C 
ATOM     24  N   UNL     1     -48.721 -59.902  36.242  0.00  0.00    +0.000 N 
ATOM     25  H   UNL     1     -49.205 -59.035  36.057  0.00  0.00    +0.000 HD
ATOM     26  O   UNL     1     -48.391 -60.391  33.997  0.00  0.00    +0.000 OA
ATOM     27  C   UNL     1     -47.049 -62.640  39.436  0.00  0.00    +0.000 A 
ATOM     28  C   UNL     1     -46.289 -63.809  39.806  0.00  0.00    +0.000 A 
ATOM     29  C   UNL     1     -47.473 -61.762  40.455  0.00  0.00    +0.000 A 
ATOM     30  C   UNL     1     -45.994 -64.046  41.160  0.00  0.00    +0.000 A 
ATOM     31  C   UNL     1     -46.438 -63.150  42.133  0.00  0.00    +0.000 A 
ATOM     32  C   UNL     1     -47.168 -62.025  41.788  0.00  0.00    +0.000 A 
ENDROOT
BRANCH   5  33
ATOM     33  N   UNL     1     -41.475 -65.402  37.585  0.00  0.00    +0.000 N 
ATOM     34  C   UNL     1     -40.562 -66.519  37.686  0.00  0.00    +0.000 C 
ATOM     35  H   UNL     1     -41.233 -64.578  38.140  0.00  0.00    +0.000 HD
ENDBRANCH   5  33
BRANCH   3  36
ATOM     36  O   UNL     1     -43.293 -65.028  39.912  0.00  0.00    +0.000 OA
ATOM     37  C   UNL     1     -42.688 -65.875  40.852  0.00  0.00    +0.000 C 
ENDBRANCH   3  36
TORSDOF 2
ENDMDL
MODEL 4
REMARK VINA RESULT:      -7.3     22.610     25.068
REMARK  Name = Staurosporine.pdbqt.pdb
REMARK  2 active torsions:
REMARK  status: ('A' for Active; 'I' for Inactive)
REMARK    1  A    between atoms: C_3  and  O_11
REMARK    2  A    between atoms: C_5  and  N_8
REMARK                            x       y       z     vdW  Elec       q    Type
REMARK                         _______ _______ _______ _____ _____    ______ ____
ROOT
ATOM      1  O   UNL     1     -52.776 -43.252  37.857  0.00  0.00    +0.000 OA
ATOM      2  C   UNL     1     -53.432 -42.203  38.621  0.00  0.00    +0.000 C 
ATOM      3  C   UNL     1     -52.488 -41.125  39.188  0.00  0.00    +0.000 C 
ATOM      4  C   UNL     1     -51.902 -42.767  36.898  0.00  0.00    +0.000 C 
ATOM      5  C   UNL     1     -51.190 -40.924  38.548  0.00  0.00    +0.000 C 
ATOM      6  C   UNL     1     -51.032 -41.816  37.471  0.00  0.00    +0.000 C 
ATOM      7  C   UNL     1     -54.031 -42.974  39.845  0.00  0.00    +0.000 C 
ATOM      8  N   UNL     1     -54.494 -41.630  37.762  0.00  0.00    +0.000 N 
ATOM      9  C   UNL     1     -54.637 -41.587  36.398  0.00  0.00    +0.000 A 
ATOM     10  C   UNL     1     -53.714 -41.987  35.426  0.00  0.00    +0.000 A 
ATOM     11  C   UNL     1     -55.800 -41.021  35.858  0.00  0.00    +0.000 A 
ATOM     12  N   UNL     1     -52.462 -42.460  35.675  0.00  0.00    +0.000 N 
ATOM     13  C   UNL     1     -54.091 -41.721  34.102  0.00  0.00    +0.000 A 
ATOM     14  C   UNL     1     -51.917 -42.427  34.375  0.00  0.00    +0.000 A 
ATOM     15  C   UNL     1     -52.902 -42.020  33.401  0.00  0.00    +0.000 A 
ATOM     16  C   UNL     1     -50.612 -42.763  33.979  0.00  0.00    +0.000 A 
ATOM     17  C   UNL     1     -52.506 -41.957  32.050  0.00  0.00    +0.000 A 
ATOM     18  C   UNL     1     -51.207 -42.294  31.677  0.00  0.00    +0.000 A 
ATOM     19  C   UNL     1     -50.277 -42.688  32.628  0.00  0.00    +0.000 A 
ATOM     20  C   UNL     1     -55.260 -41.163  33.549  0.00  0.00    +0.000 A 
ATOM     21  C   UNL     1     -56.210 -40.786  34.538  0.00  0.00    +0.000 A 
ATOM     22  C   UNL     1     -55.746 -40.830  32.229  0.00  0.00    +0.000 C 
ATOM     23  C   UNL     1     -57.362 -40.181  33.818  0.00  0.00    +0.000 C 
ATOM     24  N   UNL     1     -56.992 -40.258  32.521  0.00  0.00    +0.000 N 
ATOM     25  H   UNL     1     -57.580 -39.924  31.772  0.00  0.00    +0.000 HD
ATOM     26  O   UNL     1     -55.294 -40.959  31.101  0.00  0.00    +0.000 OA
ATOM     27  C   UNL     1     -56.498 -40.616  37.007  0.00  0.00    +0.000 A 
ATOM     28  C   UNL     1     -55.693 -40.973  38.151  0.00  0.00    +0.000 A 
ATOM     29  C   UNL     1     -57.726 -39.958  37.226  0.00  0.00    +0.000 A 
ATOM     30  C   UNL     1     -56.149 -40.664  39.444  0.00  0.00    +0.000 A 
ATOM     31  C   UNL     1     -57.372 -40.014  39.611  0.00  0.00    +0.000 A 
ATOM     32  C   UNL     1     -58.151 -39.666  38.520  0.00  0.00    +0.000 A 
ENDROOT
BRANCH   5  33
ATOM     33  N   UNL     1     -50.319 -39.838  38.834  0.00  0.00    +0.000 N 
ATOM     34  C   UNL     1     -49.248 -40.137  39.760  0.00  0.00    +0.000 C 
ATOM     35  H   UNL     1     -50.783 -38.936  38.967  0.00  0.00    +0.000 HD
ENDBRANCH   5  33
BRANCH   3  36
ATOM     36  O   UNL     1     -53.098 -40.094  39.870  0.00  0.00    +0.000 OA
ATOM     37  C   UNL     1     -52.698 -40.048  41.214  0.00  0.00    +0.000 C 
ENDBRANCH   3  36
TORSDOF 2
ENDMDL
MODEL 5
REMARK VINA RESULT:      -7.1     23.335     25.741
REMARK  Name = Staurosporine.pdbqt.pdb
REMARK  2 active torsions:
REMARK  status: ('A' for Active; 'I' for Inactive)
REMARK    1  A    between atoms: C_3  and  O_11
REMARK    2  A    between atoms: C_5  and  N_8
REMARK                            x       y       z     vdW  Elec       q    Type
REMARK                         _______ _______ _______ _____ _____    ______ ____
ROOT
ATOM      1  O   UNL     1     -55.773 -42.432  30.022  0.00  0.00    +0.000 OA
ATOM      2  C   UNL     1     -54.645 -41.743  29.416  0.00  0.00    +0.000 C 
ATOM      3  C   UNL     1     -54.947 -40.317  28.916  0.00  0.00    +0.000 C 
ATOM      4  C   UNL     1     -56.431 -41.672  30.976  0.00  0.00    +0.000 C 
ATOM      5  C   UNL     1     -56.076 -39.595  29.497  0.00  0.00    +0.000 C 
ATOM      6  C   UNL     1     -56.723 -40.392  30.460  0.00  0.00    +0.000 C 
ATOM      7  C   UNL     1     -54.333 -42.613  28.152  0.00  0.00    +0.000 C 
ATOM      8  N   UNL     1     -53.532 -41.777  30.392  0.00  0.00    +0.000 N 
ATOM      9  C   UNL     1     -53.523 -41.901  31.759  0.00  0.00    +0.000 A 
ATOM     10  C   UNL     1     -54.620 -41.905  32.626  0.00  0.00    +0.000 A 
ATOM     11  C   UNL     1     -52.291 -41.964  32.424  0.00  0.00    +0.000 A 
ATOM     12  N   UNL     1     -55.920 -41.740  32.255  0.00  0.00    +0.000 N 
ATOM     13  C   UNL     1     -54.299 -41.935  33.991  0.00  0.00    +0.000 A 
ATOM     14  C   UNL     1     -56.520 -41.556  33.517  0.00  0.00    +0.000 A 
ATOM     15  C   UNL     1     -55.561 -41.710  34.585  0.00  0.00    +0.000 A 
ATOM     16  C   UNL     1     -57.870 -41.291  33.798  0.00  0.00    +0.000 A 
ATOM     17  C   UNL     1     -56.021 -41.571  35.909  0.00  0.00    +0.000 A 
ATOM     18  C   UNL     1     -57.364 -41.307  36.168  0.00  0.00    +0.000 A 
ATOM     19  C   UNL     1     -58.271 -41.168  35.128  0.00  0.00    +0.000 A 
ATOM     20  C   UNL     1     -53.066 -42.009  34.668  0.00  0.00    +0.000 A 
ATOM     21  C   UNL     1     -51.954 -42.034  33.782  0.00  0.00    +0.000 A 
ATOM     22  C   UNL     1     -52.619 -42.026  36.042  0.00  0.00    +0.000 C 
ATOM     23  C   UNL     1     -50.732 -42.070  34.630  0.00  0.00    +0.000 C 
ATOM     24  N   UNL     1     -51.226 -42.063  35.887  0.00  0.00    +0.000 N 
ATOM     25  H   UNL     1     -50.630 -42.087  36.701  0.00  0.00    +0.000 HD
ATOM     26  O   UNL     1     -53.192 -42.017  37.122  0.00  0.00    +0.000 OA
ATOM     27  C   UNL     1     -51.373 -41.839  31.368  0.00  0.00    +0.000 A 
ATOM     28  C   UNL     1     -52.132 -41.710  30.147  0.00  0.00    +0.000 A 
ATOM     29  C   UNL     1     -49.966 -41.796  31.293  0.00  0.00    +0.000 A 
ATOM     30  C   UNL     1     -51.459 -41.550  28.924  0.00  0.00    +0.000 A 
ATOM     31  C   UNL     1     -50.065 -41.516  28.900  0.00  0.00    +0.000 A 
ATOM     32  C   UNL     1     -49.327 -41.638  30.065  0.00  0.00    +0.000 A 
ENDROOT
BRANCH   5  33
ATOM     33  N   UNL     1     -56.337 -38.215  29.281  0.00  0.00    +0.000 N 
ATOM     34  C   UNL     1     -57.331 -37.930  28.270  0.00  0.00    +0.000 C 
ATOM     35  H   UNL     1     -55.509 -37.615  29.272  0.00  0.00    +0.000 HD
ENDBRANCH   5  33
BRANCH   3  36
ATOM     36  O   UNL     1     -53.876 -39.630  28.386  0.00  0.00    +0.000 OA
ATOM     37  C   UNL     1     -54.048 -39.365  27.019  0.00  0.00    +0.000 C 
ENDBRANCH   3  36
TORSDOF 2
ENDMDL
MODEL 6
REMARK VINA RESULT:      -7.0     22.261     24.624
REMARK  Name = Staurosporine.pdbqt.pdb
REMARK  2 active torsions:
REMARK  status: ('A' for Active; 'I' for Inactive)
REMARK    1  A    between atoms: C_3  and  O_11
REMARK    2  A    between atoms: C_5  and  N_8
REMARK                            x       y       z     vdW  Elec       q    Type
REMARK                         _______ _______ _______ _____ _____    ______ ____
ROOT
ATOM      1  O   UNL     1     -66.535 -71.184  25.528  0.00  0.00    +0.000 OA
ATOM      2  C   UNL     1     -66.530 -72.595  25.179  0.00  0.00    +0.000 C 
ATOM      3  C   UNL     1     -65.220 -73.104  24.546  0.00  0.00    +0.000 C 
ATOM      4  C   UNL     1     -65.420 -70.795  26.253  0.00  0.00    +0.000 C 
ATOM      5  C   UNL     1     -63.987 -72.362  24.798  0.00  0.00    +0.000 C 
ATOM      6  C   UNL     1     -64.245 -71.246  25.615  0.00  0.00    +0.000 C 
ATOM      7  C   UNL     1     -67.637 -72.693  24.076  0.00  0.00    +0.000 C 
ATOM      8  N   UNL     1     -66.902 -73.352  26.396  0.00  0.00    +0.000 N 
ATOM      9  C   UNL     1     -66.797 -73.041  27.729  0.00  0.00    +0.000 A 
ATOM     10  C   UNL     1     -66.171 -71.930  28.303  0.00  0.00    +0.000 A 
ATOM     11  C   UNL     1     -67.297 -73.945  28.676  0.00  0.00    +0.000 A 
ATOM     12  N   UNL     1     -65.504 -70.959  27.620  0.00  0.00    +0.000 N 
ATOM     13  C   UNL     1     -66.122 -71.932  29.705  0.00  0.00    +0.000 A 
ATOM     14  C   UNL     1     -64.872 -70.290  28.686  0.00  0.00    +0.000 A 
ATOM     15  C   UNL     1     -65.265 -70.839  29.961  0.00  0.00    +0.000 A 
ATOM     16  C   UNL     1     -63.989 -69.199  28.617  0.00  0.00    +0.000 A 
ATOM     17  C   UNL     1     -64.726 -70.257  31.126  0.00  0.00    +0.000 A 
ATOM     18  C   UNL     1     -63.851 -69.176  31.036  0.00  0.00    +0.000 A 
ATOM     19  C   UNL     1     -63.489 -68.659  29.801  0.00  0.00    +0.000 A 
ATOM     20  C   UNL     1     -66.631 -72.829  30.664  0.00  0.00    +0.000 A 
ATOM     21  C   UNL     1     -67.292 -73.944  30.077  0.00  0.00    +0.000 A 
ATOM     22  C   UNL     1     -66.627 -72.945  32.104  0.00  0.00    +0.000 C 
ATOM     23  C   UNL     1     -67.736 -74.817  31.196  0.00  0.00    +0.000 C 
ATOM     24  N   UNL     1     -67.307 -74.156  32.294  0.00  0.00    +0.000 N 
ATOM     25  H   UNL     1     -67.465 -74.504  33.229  0.00  0.00    +0.000 HD
ATOM     26  O   UNL     1     -66.190 -72.251  33.010  0.00  0.00    +0.000 OA
ATOM     27  C   UNL     1     -67.767 -74.995  27.869  0.00  0.00    +0.000 A 
ATOM     28  C   UNL     1     -67.508 -74.634  26.496  0.00  0.00    +0.000 A 
ATOM     29  C   UNL     1     -68.370 -76.241  28.136  0.00  0.00    +0.000 A 
ATOM     30  C   UNL     1     -67.864 -75.522  25.466  0.00  0.00    +0.000 A 
ATOM     31  C   UNL     1     -68.462 -76.743  25.779  0.00  0.00    +0.000 A 
ATOM     32  C   UNL     1     -68.714 -77.099  27.094  0.00  0.00    +0.000 A 
ENDROOT
BRANCH   5  33
ATOM     33  N   UNL     1     -62.690 -72.830  24.452  0.00  0.00    +0.000 N 
ATOM     34  C   UNL     1     -61.698 -71.797  24.252  0.00  0.00    +0.000 C 
ATOM     35  H   UNL     1     -62.674 -73.599  23.778  0.00  0.00    +0.000 HD
ENDBRANCH   5  33
BRANCH   3  36
ATOM     36  O   UNL     1     -65.179 -74.451  24.257  0.00  0.00    +0.000 OA
ATOM     37  C   UNL     1     -65.069 -74.687  22.879  0.00  0.00    +0.000 C 
ENDBRANCH   3  36
TORSDOF 2
ENDMDL
MODEL 7
REMARK VINA RESULT:      -7.0      7.864     11.311
REMARK  Name = Staurosporine.pdbqt.pdb
REMARK  2 active torsions:
REMARK  status: ('A' for Active; 'I' for Inactive)
REMARK    1  A    between atoms: C_3  and  O_11
REMARK    2  A    between atoms: C_5  and  N_8
REMARK                            x       y       z     vdW  Elec       q    Type
REMARK                         _______ _______ _______ _____ _____    ______ ____
ROOT
ATOM      1  O   UNL     1     -42.313 -57.498  30.244  0.00  0.00    +0.000 OA
ATOM      2  C   UNL     1     -42.561 -56.475  31.247  0.00  0.00    +0.000 C 
ATOM      3  C   UNL     1     -43.226 -55.190  30.714  0.00  0.00    +0.000 C 
ATOM      4  C   UNL     1     -43.419 -57.772  29.455  0.00  0.00    +0.000 C 
ATOM      5  C   UNL     1     -43.991 -55.262  29.471  0.00  0.00    +0.000 C 
ATOM      6  C   UNL     1     -43.968 -56.572  28.957  0.00  0.00    +0.000 C 
ATOM      7  C   UNL     1     -41.120 -56.080  31.718  0.00  0.00    +0.000 C 
ATOM      8  N   UNL     1     -43.340 -57.105  32.337  0.00  0.00    +0.000 N 
ATOM      9  C   UNL     1     -44.167 -58.200  32.349  0.00  0.00    +0.000 A 
ATOM     10  C   UNL     1     -44.598 -58.961  31.258  0.00  0.00    +0.000 A 
ATOM     11  C   UNL     1     -44.732 -58.607  33.565  0.00  0.00    +0.000 A 
ATOM     12  N   UNL     1     -44.295 -58.713  29.954  0.00  0.00    +0.000 N 
ATOM     13  C   UNL     1     -45.534 -59.960  31.561  0.00  0.00    +0.000 A 
ATOM     14  C   UNL     1     -45.195 -59.589  29.315  0.00  0.00    +0.000 A 
ATOM     15  C   UNL     1     -45.927 -60.383  30.273  0.00  0.00    +0.000 A 
ATOM     16  C   UNL     1     -45.396 -59.763  27.936  0.00  0.00    +0.000 A 
ATOM     17  C   UNL     1     -46.854 -61.322  29.779  0.00  0.00    +0.000 A 
ATOM     18  C   UNL     1     -47.040 -61.480  28.407  0.00  0.00    +0.000 A 
ATOM     19  C   UNL     1     -46.323 -60.710  27.503  0.00  0.00    +0.000 A 
ATOM     20  C   UNL     1     -46.100 -60.383  32.781  0.00  0.00    +0.000 A 
ATOM     21  C   UNL     1     -45.637 -59.626  33.892  0.00  0.00    +0.000 A 
ATOM     22  C   UNL     1     -47.068 -61.367  33.207  0.00  0.00    +0.000 C 
ATOM     23  C   UNL     1     -46.342 -60.151  35.092  0.00  0.00    +0.000 C 
ATOM     24  N   UNL     1     -47.124 -61.130  34.587  0.00  0.00    +0.000 N 
ATOM     25  H   UNL     1     -47.732 -61.688  35.169  0.00  0.00    +0.000 HD
ATOM     26  O   UNL     1     -47.722 -62.221  32.627  0.00  0.00    +0.000 OA
ATOM     27  C   UNL     1     -44.238 -57.645  34.462  0.00  0.00    +0.000 A 
ATOM     28  C   UNL     1     -43.413 -56.733  33.707  0.00  0.00    +0.000 A 
ATOM     29  C   UNL     1     -44.409 -57.414  35.843  0.00  0.00    +0.000 A 
ATOM     30  C   UNL     1     -42.800 -55.649  34.359  0.00  0.00    +0.000 A 
ATOM     31  C   UNL     1     -42.996 -55.463  35.728  0.00  0.00    +0.000 A 
ATOM     32  C   UNL     1     -43.786 -56.331  36.461  0.00  0.00    +0.000 A 
ENDROOT
BRANCH   5  33
ATOM     33  N   UNL     1     -44.819 -54.215  28.982  0.00  0.00    +0.000 N 
ATOM     34  C   UNL     1     -44.279 -53.479  27.860  0.00  0.00    +0.000 C 
ATOM     35  H   UNL     1     -45.275 -53.653  29.705  0.00  0.00    +0.000 HD
ENDBRANCH   5  33
BRANCH   3  36
ATOM     36  O   UNL     1     -43.516 -54.230  31.659  0.00  0.00    +0.000 OA
ATOM     37  C   UNL     1     -42.784 -53.053  31.450  0.00  0.00    +0.000 C 
ENDBRANCH   3  36
TORSDOF 2
ENDMDL
MODEL 8
REMARK VINA RESULT:      -6.9      2.454      6.172
REMARK  Name = Staurosporine.pdbqt.pdb
REMARK  2 active torsions:
REMARK  status: ('A' for Active; 'I' for Inactive)
REMARK    1  A    between atoms: C_3  and  O_11
REMARK    2  A    between atoms: C_5  and  N_8
REMARK                            x       y       z     vdW  Elec       q    Type
REMARK                         _______ _______ _______ _____ _____    ______ ____
ROOT
ATOM      1  O   UNL     1     -45.625 -68.739  38.190  0.00  0.00    +0.000 OA
ATOM      2  C   UNL     1     -45.313 -67.712  39.171  0.00  0.00    +0.000 C 
ATOM      3  C   UNL     1     -43.896 -67.795  39.771  0.00  0.00    +0.000 C 
ATOM      4  C   UNL     1     -44.652 -68.877  37.213  0.00  0.00    +0.000 C 
ATOM      5  C   UNL     1     -42.856 -68.489  39.016  0.00  0.00    +0.000 C 
ATOM      6  C   UNL     1     -43.378 -68.992  37.810  0.00  0.00    +0.000 C 
ATOM      7  C   UNL     1     -46.319 -68.011  40.333  0.00  0.00    +0.000 C 
ATOM      8  N   UNL     1     -45.583 -66.401  38.538  0.00  0.00    +0.000 N 
ATOM      9  C   UNL     1     -45.612 -66.014  37.221  0.00  0.00    +0.000 A 
ATOM     10  C   UNL     1     -45.258 -66.769  36.098  0.00  0.00    +0.000 A 
ATOM     11  C   UNL     1     -45.964 -64.693  36.912  0.00  0.00    +0.000 A 
ATOM     12  N   UNL     1     -44.770 -68.040  36.124  0.00  0.00    +0.000 N 
ATOM     13  C   UNL     1     -45.281 -66.073  34.881  0.00  0.00    +0.000 A 
ATOM     14  C   UNL     1     -44.344 -68.173  34.787  0.00  0.00    +0.000 A 
ATOM     15  C   UNL     1     -44.681 -67.006  34.008  0.00  0.00    +0.000 A 
ATOM     16  C   UNL     1     -43.701 -69.271  34.193  0.00  0.00    +0.000 A 
ATOM     17  C   UNL     1     -44.333 -67.001  32.642  0.00  0.00    +0.000 A 
ATOM     18  C   UNL     1     -43.695 -68.100  32.071  0.00  0.00    +0.000 A 
ATOM     19  C   UNL     1     -43.384 -69.214  32.836  0.00  0.00    +0.000 A 
ATOM     20  C   UNL     1     -45.643 -64.750  34.559  0.00  0.00    +0.000 A 
ATOM     21  C   UNL     1     -46.031 -63.993  35.700  0.00  0.00    +0.000 A 
ATOM     22  C   UNL     1     -45.689 -63.931  33.370  0.00  0.00    +0.000 C 
ATOM     23  C   UNL     1     -46.342 -62.621  35.218  0.00  0.00    +0.000 C 
ATOM     24  N   UNL     1     -46.115 -62.700  33.889  0.00  0.00    +0.000 N 
ATOM     25  H   UNL     1     -46.246 -61.912  33.271  0.00  0.00    +0.000 HD
ATOM     26  O   UNL     1     -45.450 -64.135  32.189  0.00  0.00    +0.000 OA
ATOM     27  C   UNL     1     -46.166 -64.131  38.183  0.00  0.00    +0.000 A 
ATOM     28  C   UNL     1     -45.918 -65.166  39.158  0.00  0.00    +0.000 A 
ATOM     29  C   UNL     1     -46.514 -62.844  38.641  0.00  0.00    +0.000 A 
ATOM     30  C   UNL     1     -46.031 -64.871  40.528  0.00  0.00    +0.000 A 
ATOM     31  C   UNL     1     -46.381 -63.582  40.933  0.00  0.00    +0.000 A 
ATOM     32  C   UNL     1     -46.621 -62.582  40.005  0.00  0.00    +0.000 A 
ENDROOT
BRANCH   5  33
ATOM     33  N   UNL     1     -41.474 -68.462  39.350  0.00  0.00    +0.000 N 
ATOM     34  C   UNL     1     -40.990 -69.627  40.057  0.00  0.00    +0.000 C 
ATOM     35  H   UNL     1     -41.131 -67.561  39.691  0.00  0.00    +0.000 HD
ENDBRANCH   5  33
BRANCH   3  36
ATOM     36  O   UNL     1     -43.565 -66.798  40.664  0.00  0.00    +0.000 OA
ATOM     37  C   UNL     1     -43.304 -67.309  41.944  0.00  0.00    +0.000 C 
ENDBRANCH   3  36
TORSDOF 2
ENDMDL
MODEL 9
REMARK VINA RESULT:      -6.8     23.231     26.017
REMARK  Name = Staurosporine.pdbqt.pdb
REMARK  2 active torsions:
REMARK  status: ('A' for Active; 'I' for Inactive)
REMARK    1  A    between atoms: C_3  and  O_11
REMARK    2  A    between atoms: C_5  and  N_8
REMARK                            x       y       z     vdW  Elec       q    Type
REMARK                         _______ _______ _______ _____ _____    ______ ____
ROOT
ATOM      1  O   UNL     1     -57.605 -41.622  33.886  0.00  0.00    +0.000 OA
ATOM      2  C   UNL     1     -56.447 -41.263  33.083  0.00  0.00    +0.000 C 
ATOM      3  C   UNL     1     -56.478 -39.836  32.499  0.00  0.00    +0.000 C 
ATOM      4  C   UNL     1     -57.923 -40.673  34.843  0.00  0.00    +0.000 C 
ATOM      5  C   UNL     1     -57.313 -38.831  33.153  0.00  0.00    +0.000 C 
ATOM      6  C   UNL     1     -57.981 -39.391  34.256  0.00  0.00    +0.000 C 
ATOM      7  C   UNL     1     -56.531 -42.252  31.872  0.00  0.00    +0.000 C 
ATOM      8  N   UNL     1     -55.243 -41.510  33.909  0.00  0.00    +0.000 N 
ATOM      9  C   UNL     1     -55.067 -41.555  35.269  0.00  0.00    +0.000 A 
ATOM     10  C   UNL     1     -55.998 -41.245  36.265  0.00  0.00    +0.000 A 
ATOM     11  C   UNL     1     -53.800 -41.877  35.776  0.00  0.00    +0.000 A 
ATOM     12  N   UNL     1     -57.263 -40.791  36.049  0.00  0.00    +0.000 N 
ATOM     13  C   UNL     1     -55.500 -41.274  37.576  0.00  0.00    +0.000 A 
ATOM     14  C   UNL     1     -57.616 -40.396  37.355  0.00  0.00    +0.000 A 
ATOM     15  C   UNL     1     -56.576 -40.717  38.302  0.00  0.00    +0.000 A 
ATOM     16  C   UNL     1     -58.813 -39.795  37.780  0.00  0.00    +0.000 A 
ATOM     17  C   UNL     1     -56.795 -40.396  39.656  0.00  0.00    +0.000 A 
ATOM     18  C   UNL     1     -57.989 -39.800  40.059  0.00  0.00    +0.000 A 
ATOM     19  C   UNL     1     -58.978 -39.504  39.133  0.00  0.00    +0.000 A 
ATOM     20  C   UNL     1     -54.233 -41.606  38.096  0.00  0.00    +0.000 A 
ATOM     21  C   UNL     1     -53.297 -41.950  37.082  0.00  0.00    +0.000 A 
ATOM     22  C   UNL     1     -53.609 -41.654  39.398  0.00  0.00    +0.000 C 
ATOM     23  C   UNL     1     -52.008 -42.234  37.768  0.00  0.00    +0.000 C 
ATOM     24  N   UNL     1     -52.300 -42.035  39.072  0.00  0.00    +0.000 N 
ATOM     25  H   UNL     1     -51.615 -42.157  39.803  0.00  0.00    +0.000 HD
ATOM     26  O   UNL     1     -54.002 -41.445  40.536  0.00  0.00    +0.000 OA
ATOM     27  C   UNL     1     -53.041 -42.038  34.606  0.00  0.00    +0.000 A 
ATOM     28  C   UNL     1     -53.917 -41.798  33.484  0.00  0.00    +0.000 A 
ATOM     29  C   UNL     1     -51.688 -42.342  34.350  0.00  0.00    +0.000 A 
ATOM     30  C   UNL     1     -53.409 -41.875  32.176  0.00  0.00    +0.000 A 
ATOM     31  C   UNL     1     -52.063 -42.181  31.973  0.00  0.00    +0.000 A 
ATOM     32  C   UNL     1     -51.213 -42.413  33.042  0.00  0.00    +0.000 A 
ENDROOT
BRANCH   5  33
ATOM     33  N   UNL     1     -57.274 -37.443  32.849  0.00  0.00    +0.000 N 
ATOM     34  C   UNL     1     -58.276 -36.993  31.907  0.00  0.00    +0.000 C 
ATOM     35  H   UNL     1     -56.337 -37.055  32.720  0.00  0.00    +0.000 HD
ENDBRANCH   5  33
BRANCH   3  36
ATOM     36  O   UNL     1     -55.364 -39.460  31.779  0.00  0.00    +0.000 OA
ATOM     37  C   UNL     1     -55.657 -39.282  30.419  0.00  0.00    +0.000 C 
ENDBRANCH   3  36
TORSDOF 2
ENDMDL
