MODEL 1
REMARK VINA RESULT:      -6.0      0.000      0.000
REMARK  Name = Testosterone.pdbqt.pdb
REMARK  1 active torsions:
REMARK  status: ('A' for Active; 'I' for Inactive)
REMARK    1  A    between atoms: C_9  and  O_21
REMARK                            x       y       z     vdW  Elec       q    Type
REMARK                         _______ _______ _______ _____ _____    ______ ____
ROOT
ATOM      1  O   UNL     1     -48.942 -66.801  30.967  0.00  0.00    +0.000 OA
ATOM      2  C   UNL     1     -44.958 -66.698  37.503  0.00  0.00    +0.000 C 
ATOM      3  C   UNL     1     -44.545 -68.046  38.267  0.00  0.00    +0.000 C 
ATOM      4  C   UNL     1     -45.172 -66.673  36.043  0.00  0.00    +0.000 C 
ATOM      5  C   UNL     1     -45.348 -67.872  35.152  0.00  0.00    +0.000 C 
ATOM      6  C   UNL     1     -45.479 -67.793  33.615  0.00  0.00    +0.000 C 
ATOM      7  C   UNL     1     -44.907 -69.141  37.366  0.00  0.00    +0.000 C 
ATOM      8  C   UNL     1     -45.260 -69.079  35.900  0.00  0.00    +0.000 C 
ATOM      9  C   UNL     1     -45.420 -68.023  39.543  0.00  0.00    +0.000 C 
ATOM     10  C   UNL     1     -45.869 -66.004  38.364  0.00  0.00    +0.000 C 
ATOM     11  C   UNL     1     -45.386 -65.454  35.358  0.00  0.00    +0.000 C 
ATOM     12  C   UNL     1     -46.195 -66.833  39.582  0.00  0.00    +0.000 C 
ATOM     13  C   UNL     1     -45.938 -66.317  33.021  0.00  0.00    +0.000 C 
ATOM     14  C   UNL     1     -45.751 -65.239  33.921  0.00  0.00    +0.000 C 
ATOM     15  C   UNL     1     -43.040 -68.017  38.631  0.00  0.00    +0.000 C 
ATOM     16  C   UNL     1     -46.576 -68.700  33.139  0.00  0.00    +0.000 C 
ATOM     17  C   UNL     1     -44.118 -68.144  32.955  0.00  0.00    +0.000 C 
ATOM     18  C   UNL     1     -47.795 -68.474  32.215  0.00  0.00    +0.000 C 
ATOM     19  C   UNL     1     -46.982 -66.278  32.220  0.00  0.00    +0.000 C 
ATOM     20  C   UNL     1     -48.024 -67.144  31.686  0.00  0.00    +0.000 C 
ENDROOT
BRANCH   9  21
ATOM     21  O   UNL     1     -45.022 -68.634  40.719  0.00  0.00    +0.000 OA
ATOM     22  H   UNL     1     -45.042 -68.007  41.469  0.00  0.00    +0.000 HD
ENDBRANCH   9  21
TORSDOF 1
ENDMDL
MODEL 2
REMARK VINA RESULT:      -5.9      3.135      4.076
REMARK  Name = Testosterone.pdbqt.pdb
REMARK  1 active torsions:
REMARK  status: ('A' for Active; 'I' for Inactive)
REMARK    1  A    between atoms: C_9  and  O_21
REMARK                            x       y       z     vdW  Elec       q    Type
REMARK                         _______ _______ _______ _____ _____    ______ ____
ROOT
ATOM      1  O   UNL     1     -48.618 -68.489  31.585  0.00  0.00    +0.000 OA
ATOM      2  C   UNL     1     -46.786 -62.591  36.110  0.00  0.00    +0.000 C 
ATOM      3  C   UNL     1     -45.497 -62.620  37.062  0.00  0.00    +0.000 C 
ATOM      4  C   UNL     1     -46.843 -63.380  34.863  0.00  0.00    +0.000 C 
ATOM      5  C   UNL     1     -45.917 -64.502  34.481  0.00  0.00    +0.000 C 
ATOM      6  C   UNL     1     -45.965 -65.235  33.123  0.00  0.00    +0.000 C 
ATOM      7  C   UNL     1     -44.762 -63.834  36.701  0.00  0.00    +0.000 C 
ATOM      8  C   UNL     1     -44.929 -64.710  35.483  0.00  0.00    +0.000 C 
ATOM      9  C   UNL     1     -46.098 -62.702  38.486  0.00  0.00    +0.000 C 
ATOM     10  C   UNL     1     -47.930 -62.547  36.972  0.00  0.00    +0.000 C 
ATOM     11  C   UNL     1     -47.917 -63.231  33.955  0.00  0.00    +0.000 C 
ATOM     12  C   UNL     1     -47.518 -62.669  38.418  0.00  0.00    +0.000 C 
ATOM     13  C   UNL     1     -47.395 -65.102  32.299  0.00  0.00    +0.000 C 
ATOM     14  C   UNL     1     -48.217 -64.028  32.722  0.00  0.00    +0.000 C 
ATOM     15  C   UNL     1     -44.671 -61.322  36.887  0.00  0.00    +0.000 C 
ATOM     16  C   UNL     1     -45.834 -66.717  33.326  0.00  0.00    +0.000 C 
ATOM     17  C   UNL     1     -44.852 -64.684  32.190  0.00  0.00    +0.000 C 
ATOM     18  C   UNL     1     -46.669 -67.919  32.829  0.00  0.00    +0.000 C 
ATOM     19  C   UNL     1     -47.983 -66.214  31.911  0.00  0.00    +0.000 C 
ATOM     20  C   UNL     1     -47.851 -67.658  32.032  0.00  0.00    +0.000 C 
ENDROOT
BRANCH   9  21
ATOM     21  O   UNL     1     -45.442 -62.193  39.592  0.00  0.00    +0.000 OA
ATOM     22  H   UNL     1     -45.149 -62.908  40.191  0.00  0.00    +0.000 HD
ENDBRANCH   9  21
TORSDOF 1
ENDMDL
MODEL 3
REMARK VINA RESULT:      -5.9     24.045     27.799
REMARK  Name = Testosterone.pdbqt.pdb
REMARK  1 active torsions:
REMARK  status: ('A' for Active; 'I' for Inactive)
REMARK    1  A    between atoms: C_9  and  O_21
REMARK                            x       y       z     vdW  Elec       q    Type
REMARK                         _______ _______ _______ _____ _____    ______ ____
ROOT
ATOM      1  O   UNL     1     -43.371 -76.328  56.291  0.00  0.00    +0.000 OA
ATOM      2  C   UNL     1     -41.399 -74.575  63.478  0.00  0.00    +0.000 C 
ATOM      3  C   UNL     1     -42.288 -75.020  64.735  0.00  0.00    +0.000 C 
ATOM      4  C   UNL     1     -41.399 -75.348  62.220  0.00  0.00    +0.000 C 
ATOM      5  C   UNL     1     -42.399 -76.399  61.826  0.00  0.00    +0.000 C 
ATOM      6  C   UNL     1     -42.302 -77.242  60.536  0.00  0.00    +0.000 C 
ATOM      7  C   UNL     1     -43.315 -75.916  64.199  0.00  0.00    +0.000 C 
ATOM      8  C   UNL     1     -43.368 -76.590  62.850  0.00  0.00    +0.000 C 
ATOM      9  C   UNL     1     -42.883 -73.688  65.250  0.00  0.00    +0.000 C 
ATOM     10  C   UNL     1     -41.446 -73.144  63.430  0.00  0.00    +0.000 C 
ATOM     11  C   UNL     1     -40.499 -75.037  61.174  0.00  0.00    +0.000 C 
ATOM     12  C   UNL     1     -42.392 -72.603  64.473  0.00  0.00    +0.000 C 
ATOM     13  C   UNL     1     -41.349 -76.600  59.344  0.00  0.00    +0.000 C 
ATOM     14  C   UNL     1     -40.440 -75.609  59.790  0.00  0.00    +0.000 C 
ATOM     15  C   UNL     1     -41.398 -75.680  65.817  0.00  0.00    +0.000 C 
ATOM     16  C   UNL     1     -43.645 -77.338  59.873  0.00  0.00    +0.000 C 
ATOM     17  C   UNL     1     -41.726 -78.646  60.869  0.00  0.00    +0.000 C 
ATOM     18  C   UNL     1     -44.121 -77.072  58.426  0.00  0.00    +0.000 C 
ATOM     19  C   UNL     1     -41.879 -76.456  58.147  0.00  0.00    +0.000 C 
ATOM     20  C   UNL     1     -43.153 -76.599  57.456  0.00  0.00    +0.000 C 
ENDROOT
BRANCH   9  21
ATOM     21  O   UNL     1     -43.222 -73.497  66.577  0.00  0.00    +0.000 OA
ATOM     22  H   UNL     1     -42.499 -73.059  67.069  0.00  0.00    +0.000 HD
ENDBRANCH   9  21
TORSDOF 1
ENDMDL
MODEL 4
REMARK VINA RESULT:      -5.7      4.026      6.565
REMARK  Name = Testosterone.pdbqt.pdb
REMARK  1 active torsions:
REMARK  status: ('A' for Active; 'I' for Inactive)
REMARK    1  A    between atoms: C_9  and  O_21
REMARK                            x       y       z     vdW  Elec       q    Type
REMARK                         _______ _______ _______ _____ _____    ______ ____
ROOT
ATOM      1  O   UNL     1     -46.703 -60.185  36.397  0.00  0.00    +0.000 OA
ATOM      2  C   UNL     1     -46.024 -66.627  32.316  0.00  0.00    +0.000 C 
ATOM      3  C   UNL     1     -47.237 -67.213  31.448  0.00  0.00    +0.000 C 
ATOM      4  C   UNL     1     -45.908 -65.183  32.605  0.00  0.00    +0.000 C 
ATOM      5  C   UNL     1     -46.992 -64.155  32.430  0.00  0.00    +0.000 C 
ATOM      6  C   UNL     1     -46.790 -62.642  32.662  0.00  0.00    +0.000 C 
ATOM      7  C   UNL     1     -48.283 -66.190  31.482  0.00  0.00    +0.000 C 
ATOM      8  C   UNL     1     -48.178 -64.748  31.914  0.00  0.00    +0.000 C 
ATOM      9  C   UNL     1     -47.645 -68.495  32.212  0.00  0.00    +0.000 C 
ATOM     10  C   UNL     1     -45.767 -67.579  33.355  0.00  0.00    +0.000 C 
ATOM     11  C   UNL     1     -44.759 -64.656  33.238  0.00  0.00    +0.000 C 
ATOM     12  C   UNL     1     -46.787 -68.691  33.328  0.00  0.00    +0.000 C 
ATOM     13  C   UNL     1     -45.491 -62.240  33.606  0.00  0.00    +0.000 C 
ATOM     14  C   UNL     1     -44.518 -63.262  33.731  0.00  0.00    +0.000 C 
ATOM     15  C   UNL     1     -46.756 -67.556  30.016  0.00  0.00    +0.000 C 
ATOM     16  C   UNL     1     -47.948 -62.073  33.430  0.00  0.00    +0.000 C 
ATOM     17  C   UNL     1     -46.598 -61.923  31.298  0.00  0.00    +0.000 C 
ATOM     18  C   UNL     1     -48.033 -61.202  34.704  0.00  0.00    +0.000 C 
ATOM     19  C   UNL     1     -45.708 -61.464  34.648  0.00  0.00    +0.000 C 
ATOM     20  C   UNL     1     -46.803 -60.844  35.380  0.00  0.00    +0.000 C 
ENDROOT
BRANCH   9  21
ATOM     21  O   UNL     1     -48.218 -69.581  31.575  0.00  0.00    +0.000 OA
ATOM     22  H   UNL     1     -49.192 -69.514  31.566  0.00  0.00    +0.000 HD
ENDBRANCH   9  21
TORSDOF 1
ENDMDL
MODEL 5
REMARK VINA RESULT:      -5.6     16.049     19.009
REMARK  Name = Testosterone.pdbqt.pdb
REMARK  1 active torsions:
REMARK  status: ('A' for Active; 'I' for Inactive)
REMARK    1  A    between atoms: C_9  and  O_21
REMARK                            x       y       z     vdW  Elec       q    Type
REMARK                         _______ _______ _______ _____ _____    ______ ____
ROOT
ATOM      1  O   UNL     1     -50.957 -81.119  49.632  0.00  0.00    +0.000 OA
ATOM      2  C   UNL     1     -44.306 -77.328  49.586  0.00  0.00    +0.000 C 
ATOM      3  C   UNL     1     -43.798 -76.491  50.854  0.00  0.00    +0.000 C 
ATOM      4  C   UNL     1     -45.208 -78.488  49.736  0.00  0.00    +0.000 C 
ATOM      5  C   UNL     1     -45.996 -78.843  50.967  0.00  0.00    +0.000 C 
ATOM      6  C   UNL     1     -46.855 -80.119  51.103  0.00  0.00    +0.000 C 
ATOM      7  C   UNL     1     -44.733 -76.801  51.937  0.00  0.00    +0.000 C 
ATOM      8  C   UNL     1     -45.749 -77.914  52.016  0.00  0.00    +0.000 C 
ATOM      9  C   UNL     1     -43.908 -75.020  50.388  0.00  0.00    +0.000 C 
ATOM     10  C   UNL     1     -44.543 -76.379  48.538  0.00  0.00    +0.000 C 
ATOM     11  C   UNL     1     -45.528 -79.311  48.632  0.00  0.00    +0.000 C 
ATOM     12  C   UNL     1     -44.355 -74.969  49.039  0.00  0.00    +0.000 C 
ATOM     13  C   UNL     1     -47.298 -80.826  49.672  0.00  0.00    +0.000 C 
ATOM     14  C   UNL     1     -46.516 -80.435  48.558  0.00  0.00    +0.000 C 
ATOM     15  C   UNL     1     -42.328 -76.854  51.184  0.00  0.00    +0.000 C 
ATOM     16  C   UNL     1     -48.176 -79.793  51.736  0.00  0.00    +0.000 C 
ATOM     17  C   UNL     1     -46.078 -81.190  51.916  0.00  0.00    +0.000 C 
ATOM     18  C   UNL     1     -49.636 -80.104  51.333  0.00  0.00    +0.000 C 
ATOM     19  C   UNL     1     -48.579 -81.059  49.476  0.00  0.00    +0.000 C 
ATOM     20  C   UNL     1     -49.874 -80.817  50.094  0.00  0.00    +0.000 C 
ENDROOT
BRANCH   9  21
ATOM     21  O   UNL     1     -43.088 -74.025  50.887  0.00  0.00    +0.000 OA
ATOM     22  H   UNL     1     -42.245 -73.979  50.395  0.00  0.00    +0.000 HD
ENDBRANCH   9  21
TORSDOF 1
ENDMDL
MODEL 6
REMARK VINA RESULT:      -5.5      7.334      9.565
REMARK  Name = Testosterone.pdbqt.pdb
REMARK  1 active torsions:
REMARK  status: ('A' for Active; 'I' for Inactive)
REMARK    1  A    between atoms: C_9  and  O_21
REMARK                            x       y       z     vdW  Elec       q    Type
REMARK                         _______ _______ _______ _____ _____    ______ ____
ROOT
ATOM      1  O   UNL     1     -43.085 -69.900  25.732  0.00  0.00    +0.000 OA
ATOM      2  C   UNL     1     -46.689 -63.801  28.633  0.00  0.00    +0.000 C 
ATOM      3  C   UNL     1     -46.085 -62.322  28.513  0.00  0.00    +0.000 C 
ATOM      4  C   UNL     1     -46.374 -64.847  27.640  0.00  0.00    +0.000 C 
ATOM      5  C   UNL     1     -45.267 -64.799  26.624  0.00  0.00    +0.000 C 
ATOM      6  C   UNL     1     -45.036 -65.882  25.547  0.00  0.00    +0.000 C 
ATOM      7  C   UNL     1     -44.927 -62.435  27.625  0.00  0.00    +0.000 C 
ATOM      8  C   UNL     1     -44.545 -63.577  26.715  0.00  0.00    +0.000 C 
ATOM      9  C   UNL     1     -45.679 -61.975  29.965  0.00  0.00    +0.000 C 
ATOM     10  C   UNL     1     -46.694 -64.128  30.029  0.00  0.00    +0.000 C 
ATOM     11  C   UNL     1     -47.030 -66.100  27.668  0.00  0.00    +0.000 C 
ATOM     12  C   UNL     1     -46.030 -63.042  30.837  0.00  0.00    +0.000 C 
ATOM     13  C   UNL     1     -45.725 -67.353  25.868  0.00  0.00    +0.000 C 
ATOM     14  C   UNL     1     -46.753 -67.319  26.842  0.00  0.00    +0.000 C 
ATOM     15  C   UNL     1     -47.166 -61.340  27.996  0.00  0.00    +0.000 C 
ATOM     16  C   UNL     1     -43.576 -66.213  25.445  0.00  0.00    +0.000 C 
ATOM     17  C   UNL     1     -45.612 -65.399  24.187  0.00  0.00    +0.000 C 
ATOM     18  C   UNL     1     -42.801 -67.550  25.473  0.00  0.00    +0.000 C 
ATOM     19  C   UNL     1     -44.947 -68.415  25.828  0.00  0.00    +0.000 C 
ATOM     20  C   UNL     1     -43.547 -68.777  25.668  0.00  0.00    +0.000 C 
ENDROOT
BRANCH   9  21
ATOM     21  O   UNL     1     -45.655 -60.674  30.433  0.00  0.00    +0.000 OA
ATOM     22  H   UNL     1     -45.545 -60.035  29.701  0.00  0.00    +0.000 HD
ENDBRANCH   9  21
TORSDOF 1
ENDMDL
MODEL 7
REMARK VINA RESULT:      -5.5     31.267     34.121
REMARK  Name = Testosterone.pdbqt.pdb
REMARK  1 active torsions:
REMARK  status: ('A' for Active; 'I' for Inactive)
REMARK    1  A    between atoms: C_9  and  O_21
REMARK                            x       y       z     vdW  Elec       q    Type
REMARK                         _______ _______ _______ _____ _____    ______ ____
ROOT
ATOM      1  O   UNL     1     -32.232 -54.869  67.952  0.00  0.00    +0.000 OA
ATOM      2  C   UNL     1     -33.848 -62.133  66.154  0.00  0.00    +0.000 C 
ATOM      3  C   UNL     1     -34.299 -62.561  64.678  0.00  0.00    +0.000 C 
ATOM      4  C   UNL     1     -32.998 -60.949  66.389  0.00  0.00    +0.000 C 
ATOM      5  C   UNL     1     -32.714 -59.852  65.399  0.00  0.00    +0.000 C 
ATOM      6  C   UNL     1     -31.744 -58.680  65.666  0.00  0.00    +0.000 C 
ATOM      7  C   UNL     1     -34.123 -61.370  63.845  0.00  0.00    +0.000 C 
ATOM      8  C   UNL     1     -33.362 -60.105  64.159  0.00  0.00    +0.000 C 
ATOM      9  C   UNL     1     -35.790 -62.942  64.848  0.00  0.00    +0.000 C 
ATOM     10  C   UNL     1     -34.969 -62.381  67.012  0.00  0.00    +0.000 C 
ATOM     11  C   UNL     1     -32.480 -60.666  67.674  0.00  0.00    +0.000 C 
ATOM     12  C   UNL     1     -36.170 -62.821  66.213  0.00  0.00    +0.000 C 
ATOM     13  C   UNL     1     -31.420 -58.382  67.262  0.00  0.00    +0.000 C 
ATOM     14  C   UNL     1     -31.722 -59.457  68.133  0.00  0.00    +0.000 C 
ATOM     15  C   UNL     1     -33.473 -63.780  64.195  0.00  0.00    +0.000 C 
ATOM     16  C   UNL     1     -32.349 -57.387  65.202  0.00  0.00    +0.000 C 
ATOM     17  C   UNL     1     -30.383 -58.959  64.971  0.00  0.00    +0.000 C 
ATOM     18  C   UNL     1     -32.547 -56.017  65.889  0.00  0.00    +0.000 C 
ATOM     19  C   UNL     1     -31.608 -57.156  67.706  0.00  0.00    +0.000 C 
ATOM     20  C   UNL     1     -32.128 -55.869  67.269  0.00  0.00    +0.000 C 
ENDROOT
BRANCH   9  21
ATOM     21  O   UNL     1     -36.412 -63.869  64.032  0.00  0.00    +0.000 OA
ATOM     22  H   UNL     1     -36.671 -63.472  63.177  0.00  0.00    +0.000 HD
ENDBRANCH   9  21
TORSDOF 1
ENDMDL
MODEL 8
REMARK VINA RESULT:      -5.4     25.576     29.505
REMARK  Name = Testosterone.pdbqt.pdb
REMARK  1 active torsions:
REMARK  status: ('A' for Active; 'I' for Inactive)
REMARK    1  A    between atoms: C_9  and  O_21
REMARK                            x       y       z     vdW  Elec       q    Type
REMARK                         _______ _______ _______ _____ _____    ______ ____
ROOT
ATOM      1  O   UNL     1     -43.867 -76.096  58.165  0.00  0.00    +0.000 OA
ATOM      2  C   UNL     1     -42.194 -74.631  65.491  0.00  0.00    +0.000 C 
ATOM      3  C   UNL     1     -42.499 -75.685  66.658  0.00  0.00    +0.000 C 
ATOM      4  C   UNL     1     -41.946 -75.066  64.102  0.00  0.00    +0.000 C 
ATOM      5  C   UNL     1     -42.242 -76.428  63.535  0.00  0.00    +0.000 C 
ATOM      6  C   UNL     1     -41.880 -76.860  62.097  0.00  0.00    +0.000 C 
ATOM      7  C   UNL     1     -42.924 -76.914  65.985  0.00  0.00    +0.000 C 
ATOM      8  C   UNL     1     -42.787 -77.287  64.529  0.00  0.00    +0.000 C 
ATOM      9  C   UNL     1     -43.651 -75.024  67.453  0.00  0.00    +0.000 C 
ATOM     10  C   UNL     1     -43.031 -73.494  65.737  0.00  0.00    +0.000 C 
ATOM     11  C   UNL     1     -41.528 -74.147  63.112  0.00  0.00    +0.000 C 
ATOM     12  C   UNL     1     -43.958 -73.752  66.898  0.00  0.00    +0.000 C 
ATOM     13  C   UNL     1     -41.623 -75.620  61.031  0.00  0.00    +0.000 C 
ATOM     14  C   UNL     1     -41.360 -74.368  61.640  0.00  0.00    +0.000 C 
ATOM     15  C   UNL     1     -41.250 -75.872  67.554  0.00  0.00    +0.000 C 
ATOM     16  C   UNL     1     -43.025 -77.603  61.472  0.00  0.00    +0.000 C 
ATOM     17  C   UNL     1     -40.584 -77.716  62.118  0.00  0.00    +0.000 C 
ATOM     18  C   UNL     1     -43.768 -77.443  60.126  0.00  0.00    +0.000 C 
ATOM     19  C   UNL     1     -42.308 -75.627  59.906  0.00  0.00    +0.000 C 
ATOM     20  C   UNL     1     -43.372 -76.365  59.242  0.00  0.00    +0.000 C 
ENDROOT
BRANCH   9  21
ATOM     21  O   UNL     1     -43.846 -75.261  68.802  0.00  0.00    +0.000 OA
ATOM     22  H   UNL     1     -44.012 -76.208  68.976  0.00  0.00    +0.000 HD
ENDBRANCH   9  21
TORSDOF 1
ENDMDL
MODEL 9
REMARK VINA RESULT:      -5.3     32.475     35.420
REMARK  Name = Testosterone.pdbqt.pdb
REMARK  1 active torsions:
REMARK  status: ('A' for Active; 'I' for Inactive)
REMARK    1  A    between atoms: C_9  and  O_21
REMARK                            x       y       z     vdW  Elec       q    Type
REMARK                         _______ _______ _______ _____ _____    ______ ____
ROOT
ATOM      1  O   UNL     1     -32.070 -55.589  69.332  0.00  0.00    +0.000 OA
ATOM      2  C   UNL     1     -35.391 -62.382  68.135  0.00  0.00    +0.000 C 
ATOM      3  C   UNL     1     -35.586 -62.984  66.663  0.00  0.00    +0.000 C 
ATOM      4  C   UNL     1     -34.296 -61.442  68.446  0.00  0.00    +0.000 C 
ATOM      5  C   UNL     1     -33.456 -60.698  67.445  0.00  0.00    +0.000 C 
ATOM      6  C   UNL     1     -32.263 -59.793  67.823  0.00  0.00    +0.000 C 
ATOM      7  C   UNL     1     -34.853 -62.088  65.766  0.00  0.00    +0.000 C 
ATOM      8  C   UNL     1     -33.834 -61.032  66.115  0.00  0.00    +0.000 C 
ATOM      9  C   UNL     1     -37.116 -62.913  66.440  0.00  0.00    +0.000 C 
ATOM     10  C   UNL     1     -36.704 -62.136  68.653  0.00  0.00    +0.000 C 
ATOM     11  C   UNL     1     -34.039 -61.037  69.777  0.00  0.00    +0.000 C 
ATOM     12  C   UNL     1     -37.754 -62.406  67.605  0.00  0.00    +0.000 C 
ATOM     13  C   UNL     1     -32.253 -59.255  69.389  0.00  0.00    +0.000 C 
ATOM     14  C   UNL     1     -33.076 -60.000  70.270  0.00  0.00    +0.000 C 
ATOM     15  C   UNL     1     -35.091 -64.451  66.611  0.00  0.00    +0.000 C 
ATOM     16  C   UNL     1     -32.304 -58.518  67.033  0.00  0.00    +0.000 C 
ATOM     17  C   UNL     1     -30.931 -60.563  67.600  0.00  0.00    +0.000 C 
ATOM     18  C   UNL     1     -32.224 -57.029  67.442  0.00  0.00    +0.000 C 
ATOM     19  C   UNL     1     -32.150 -57.958  69.589  0.00  0.00    +0.000 C 
ATOM     20  C   UNL     1     -32.123 -56.704  68.851  0.00  0.00    +0.000 C 
ENDROOT
BRANCH   9  21
ATOM     21  O   UNL     1     -37.781 -63.796  65.610  0.00  0.00    +0.000 OA
ATOM     22  H   UNL     1     -38.543 -63.368  65.172  0.00  0.00    +0.000 HD
ENDBRANCH   9  21
TORSDOF 1
ENDMDL
