MODEL 1
REMARK VINA RESULT:      -3.9      0.000      0.000
REMARK  Name = Tetrachloroethylene.pdbqt.pdb
REMARK  0 active torsions:
REMARK  status: ('A' for Active; 'I' for Inactive)
REMARK                            x       y       z     vdW  Elec       q    Type
REMARK                         _______ _______ _______ _____ _____    ______ ____
ROOT
ATOM      1 CL   UNL     1     -46.505 -61.480  44.684  0.00  0.00    +0.000 Cl
ATOM      2 CL   UNL     1     -47.883 -59.682  42.828  0.00  0.00    +0.000 Cl
ATOM      3 CL   UNL     1     -50.230 -59.253  44.987  0.00  0.00    +0.000 Cl
ATOM      4 CL   UNL     1     -48.852 -61.050  46.843  0.00  0.00    +0.000 Cl
ATOM      5  C   UNL     1     -47.877 -60.456  44.385  0.00  0.00    +0.000 C 
ATOM      6  C   UNL     1     -48.858 -60.276  45.287  0.00  0.00    +0.000 C 
ENDROOT
TORSDOF 0
ENDMDL
MODEL 2
REMARK VINA RESULT:      -3.8      0.237      2.392
REMARK  Name = Tetrachloroethylene.pdbqt.pdb
REMARK  0 active torsions:
REMARK  status: ('A' for Active; 'I' for Inactive)
REMARK                            x       y       z     vdW  Elec       q    Type
REMARK                         _______ _______ _______ _____ _____    ______ ____
ROOT
ATOM      1 CL   UNL     1     -48.125 -59.879  42.662  0.00  0.00    +0.000 Cl
ATOM      2 CL   UNL     1     -46.477 -61.393  44.550  0.00  0.00    +0.000 Cl
ATOM      3 CL   UNL     1     -48.583 -60.755  46.899  0.00  0.00    +0.000 Cl
ATOM      4 CL   UNL     1     -50.230 -59.241  45.010  0.00  0.00    +0.000 Cl
ATOM      5  C   UNL     1     -47.914 -60.450  44.290  0.00  0.00    +0.000 C 
ATOM      6  C   UNL     1     -48.794 -60.184  45.270  0.00  0.00    +0.000 C 
ENDROOT
TORSDOF 0
ENDMDL
MODEL 3
REMARK VINA RESULT:      -3.7      0.754      2.627
REMARK  Name = Tetrachloroethylene.pdbqt.pdb
REMARK  0 active torsions:
REMARK  status: ('A' for Active; 'I' for Inactive)
REMARK                            x       y       z     vdW  Elec       q    Type
REMARK                         _______ _______ _______ _____ _____    ______ ____
ROOT
ATOM      1 CL   UNL     1     -50.444 -59.217  44.710  0.00  0.00    +0.000 Cl
ATOM      2 CL   UNL     1     -48.668 -60.034  42.529  0.00  0.00    +0.000 Cl
ATOM      3 CL   UNL     1     -46.601 -61.257  44.671  0.00  0.00    +0.000 Cl
ATOM      4 CL   UNL     1     -48.376 -60.440  46.851  0.00  0.00    +0.000 Cl
ATOM      5  C   UNL     1     -48.954 -59.982  44.243  0.00  0.00    +0.000 C 
ATOM      6  C   UNL     1     -48.091 -60.493  45.138  0.00  0.00    +0.000 C 
ENDROOT
TORSDOF 0
ENDMDL
MODEL 4
REMARK VINA RESULT:      -3.4      1.167      2.864
REMARK  Name = Tetrachloroethylene.pdbqt.pdb
REMARK  0 active torsions:
REMARK  status: ('A' for Active; 'I' for Inactive)
REMARK                            x       y       z     vdW  Elec       q    Type
REMARK                         _______ _______ _______ _____ _____    ______ ____
ROOT
ATOM      1 CL   UNL     1     -47.977 -60.866  45.982  0.00  0.00    +0.000 Cl
ATOM      2 CL   UNL     1     -50.273 -59.329  45.015  0.00  0.00    +0.000 Cl
ATOM      3 CL   UNL     1     -48.944 -59.185  42.088  0.00  0.00    +0.000 Cl
ATOM      4 CL   UNL     1     -46.648 -60.722  43.055  0.00  0.00    +0.000 Cl
ATOM      5  C   UNL     1     -48.738 -60.055  44.646  0.00  0.00    +0.000 C 
ATOM      6  C   UNL     1     -48.183 -59.995  43.423  0.00  0.00    +0.000 C 
ENDROOT
TORSDOF 0
ENDMDL
MODEL 5
REMARK VINA RESULT:      -3.3      2.696      4.062
REMARK  Name = Tetrachloroethylene.pdbqt.pdb
REMARK  0 active torsions:
REMARK  status: ('A' for Active; 'I' for Inactive)
REMARK                            x       y       z     vdW  Elec       q    Type
REMARK                         _______ _______ _______ _____ _____    ______ ____
ROOT
ATOM      1 CL   UNL     1     -47.961 -59.554  42.731  0.00  0.00    +0.000 Cl
ATOM      2 CL   UNL     1     -50.111 -59.475  44.716  0.00  0.00    +0.000 Cl
ATOM      3 CL   UNL     1     -52.057 -58.099  42.554  0.00  0.00    +0.000 Cl
ATOM      4 CL   UNL     1     -49.906 -58.178  40.569  0.00  0.00    +0.000 Cl
ATOM      5  C   UNL     1     -49.603 -59.114  43.094  0.00  0.00    +0.000 C 
ATOM      6  C   UNL     1     -50.415 -58.539  42.191  0.00  0.00    +0.000 C 
ENDROOT
TORSDOF 0
ENDMDL
MODEL 6
REMARK VINA RESULT:      -3.3      1.960      4.017
REMARK  Name = Tetrachloroethylene.pdbqt.pdb
REMARK  0 active torsions:
REMARK  status: ('A' for Active; 'I' for Inactive)
REMARK                            x       y       z     vdW  Elec       q    Type
REMARK                         _______ _______ _______ _____ _____    ______ ____
ROOT
ATOM      1 CL   UNL     1     -47.189 -59.584  42.871  0.00  0.00    +0.000 Cl
ATOM      2 CL   UNL     1     -47.536 -60.437  45.650  0.00  0.00    +0.000 Cl
ATOM      3 CL   UNL     1     -45.863 -63.117  45.037  0.00  0.00    +0.000 Cl
ATOM      4 CL   UNL     1     -45.516 -62.264  42.257  0.00  0.00    +0.000 Cl
ATOM      5  C   UNL     1     -46.875 -60.791  44.082  0.00  0.00    +0.000 C 
ATOM      6  C   UNL     1     -46.177 -61.910  43.826  0.00  0.00    +0.000 C 
ENDROOT
TORSDOF 0
ENDMDL
MODEL 7
REMARK VINA RESULT:      -3.2      2.078      3.428
REMARK  Name = Tetrachloroethylene.pdbqt.pdb
REMARK  0 active torsions:
REMARK  status: ('A' for Active; 'I' for Inactive)
REMARK                            x       y       z     vdW  Elec       q    Type
REMARK                         _______ _______ _______ _____ _____    ______ ____
ROOT
ATOM      1 CL   UNL     1     -46.591 -62.121  41.448  0.00  0.00    +0.000 Cl
ATOM      2 CL   UNL     1     -45.525 -62.807  44.087  0.00  0.00    +0.000 Cl
ATOM      3 CL   UNL     1     -46.977 -60.225  45.345  0.00  0.00    +0.000 Cl
ATOM      4 CL   UNL     1     -48.044 -59.539  42.705  0.00  0.00    +0.000 Cl
ATOM      5  C   UNL     1     -46.481 -61.712  43.134  0.00  0.00    +0.000 C 
ATOM      6  C   UNL     1     -47.088 -60.634  43.659  0.00  0.00    +0.000 C 
ENDROOT
TORSDOF 0
ENDMDL
MODEL 8
REMARK VINA RESULT:      -3.2     19.776     20.466
REMARK  Name = Tetrachloroethylene.pdbqt.pdb
REMARK  0 active torsions:
REMARK  status: ('A' for Active; 'I' for Inactive)
REMARK                            x       y       z     vdW  Elec       q    Type
REMARK                         _______ _______ _______ _____ _____    ______ ____
ROOT
ATOM      1 CL   UNL     1     -63.215 -69.167  34.086  0.00  0.00    +0.000 Cl
ATOM      2 CL   UNL     1     -63.564 -66.748  35.697  0.00  0.00    +0.000 Cl
ATOM      3 CL   UNL     1     -64.443 -65.121  33.063  0.00  0.00    +0.000 Cl
ATOM      4 CL   UNL     1     -64.093 -67.540  31.452  0.00  0.00    +0.000 Cl
ATOM      5  C   UNL     1     -63.645 -67.484  34.124  0.00  0.00    +0.000 C 
ATOM      6  C   UNL     1     -64.012 -66.804  33.024  0.00  0.00    +0.000 C 
ENDROOT
TORSDOF 0
ENDMDL
MODEL 9
REMARK VINA RESULT:      -3.1     19.043     19.755
REMARK  Name = Tetrachloroethylene.pdbqt.pdb
REMARK  0 active torsions:
REMARK  status: ('A' for Active; 'I' for Inactive)
REMARK                            x       y       z     vdW  Elec       q    Type
REMARK                         _______ _______ _______ _____ _____    ______ ____
ROOT
ATOM      1 CL   UNL     1     -64.377 -66.430  32.697  0.00  0.00    +0.000 Cl
ATOM      2 CL   UNL     1     -63.106 -68.926  33.548  0.00  0.00    +0.000 Cl
ATOM      3 CL   UNL     1     -62.928 -67.808  36.560  0.00  0.00    +0.000 Cl
ATOM      4 CL   UNL     1     -64.199 -65.311  35.709  0.00  0.00    +0.000 Cl
ATOM      5  C   UNL     1     -63.689 -67.352  34.000  0.00  0.00    +0.000 C 
ATOM      6  C   UNL     1     -63.615 -66.885  35.258  0.00  0.00    +0.000 C 
ENDROOT
TORSDOF 0
ENDMDL
