MODEL 1
REMARK VINA RESULT:      -7.1      0.000      0.000
REMARK  Name = Thalidomide.pdbqt.pdb
REMARK  1 active torsions:
REMARK  status: ('A' for Active; 'I' for Inactive)
REMARK    1  A    between atoms: N_3  and  C_12
REMARK                            x       y       z     vdW  Elec       q    Type
REMARK                         _______ _______ _______ _____ _____    ______ ____
ROOT
ATOM      1  O   UNL     1     -47.535 -41.509  41.881  0.00  0.00    +0.000 OA
ATOM      2  O   UNL     1     -49.165 -41.518  37.579  0.00  0.00    +0.000 OA
ATOM      3  N   UNL     1     -47.908 -41.707  39.563  0.00  0.00    +0.000 N 
ATOM      4  C   UNL     1     -48.241 -41.603  40.894  0.00  0.00    +0.000 C 
ATOM      5  C   UNL     1     -49.040 -41.688  38.776  0.00  0.00    +0.000 C 
ATOM      6  C   UNL     1     -49.697 -41.644  40.970  0.00  0.00    +0.000 A 
ATOM      7  C   UNL     1     -50.182 -41.716  39.681  0.00  0.00    +0.000 A 
ATOM      8  C   UNL     1     -50.530 -41.602  42.069  0.00  0.00    +0.000 A 
ATOM      9  C   UNL     1     -51.533 -41.735  39.404  0.00  0.00    +0.000 A 
ATOM     10  C   UNL     1     -51.902 -41.636  41.815  0.00  0.00    +0.000 A 
ATOM     11  C   UNL     1     -52.398 -41.702  40.501  0.00  0.00    +0.000 A 
ENDROOT
BRANCH   3  12
ATOM     12  C   UNL     1     -46.624 -41.700  39.075  0.00  0.00    +0.000 C 
ATOM     13  C   UNL     1     -45.982 -40.532  38.606  0.00  0.00    +0.000 C 
ATOM     14  C   UNL     1     -44.648 -40.575  37.926  0.00  0.00    +0.000 C 
ATOM     15  C   UNL     1     -43.916 -41.795  37.755  0.00  0.00    +0.000 C 
ATOM     16  O   UNL     1     -42.797 -41.817  37.270  0.00  0.00    +0.000 OA
ATOM     17  N   UNL     1     -44.591 -42.907  38.250  0.00  0.00    +0.000 N 
ATOM     18  C   UNL     1     -45.758 -42.955  39.028  0.00  0.00    +0.000 C 
ATOM     19  H   UNL     1     -44.044 -43.755  38.266  0.00  0.00    +0.000 HD
ATOM     20  O   UNL     1     -45.981 -43.930  39.739  0.00  0.00    +0.000 OA
ENDBRANCH   3  12
TORSDOF 1
ENDMDL
MODEL 2
REMARK VINA RESULT:      -6.8     20.101     22.023
REMARK  Name = Thalidomide.pdbqt.pdb
REMARK  1 active torsions:
REMARK  status: ('A' for Active; 'I' for Inactive)
REMARK    1  A    between atoms: N_3  and  C_12
REMARK                            x       y       z     vdW  Elec       q    Type
REMARK                         _______ _______ _______ _____ _____    ______ ____
ROOT
ATOM      1  O   UNL     1     -30.747 -48.664  53.606  0.00  0.00    +0.000 OA
ATOM      2  O   UNL     1     -34.457 -51.252  52.768  0.00  0.00    +0.000 OA
ATOM      3  N   UNL     1     -32.751 -49.628  52.827  0.00  0.00    +0.000 N 
ATOM      4  C   UNL     1     -31.515 -49.592  53.432  0.00  0.00    +0.000 C 
ATOM      5  C   UNL     1     -33.313 -50.881  52.946  0.00  0.00    +0.000 C 
ATOM      6  C   UNL     1     -31.214 -50.953  53.859  0.00  0.00    +0.000 A 
ATOM      7  C   UNL     1     -32.300 -51.742  53.545  0.00  0.00    +0.000 A 
ATOM      8  C   UNL     1     -30.095 -51.460  54.488  0.00  0.00    +0.000 A 
ATOM      9  C   UNL     1     -32.347 -53.086  53.851  0.00  0.00    +0.000 A 
ATOM     10  C   UNL     1     -30.112 -52.822  54.795  0.00  0.00    +0.000 A 
ATOM     11  C   UNL     1     -31.223 -53.624  54.481  0.00  0.00    +0.000 A 
ENDROOT
BRANCH   3  12
ATOM     12  C   UNL     1     -33.393 -48.537  52.295  0.00  0.00    +0.000 C 
ATOM     13  C   UNL     1     -34.292 -47.733  53.031  0.00  0.00    +0.000 C 
ATOM     14  C   UNL     1     -35.105 -46.653  52.388  0.00  0.00    +0.000 C 
ATOM     15  C   UNL     1     -34.986 -46.332  50.997  0.00  0.00    +0.000 C 
ATOM     16  O   UNL     1     -35.593 -45.403  50.490  0.00  0.00    +0.000 OA
ATOM     17  N   UNL     1     -34.075 -47.146  50.328  0.00  0.00    +0.000 N 
ATOM     18  C   UNL     1     -33.166 -48.071  50.860  0.00  0.00    +0.000 C 
ATOM     19  H   UNL     1     -33.871 -46.856  49.383  0.00  0.00    +0.000 HD
ATOM     20  O   UNL     1     -32.160 -48.376  50.226  0.00  0.00    +0.000 OA
ENDBRANCH   3  12
TORSDOF 1
ENDMDL
MODEL 3
REMARK VINA RESULT:      -6.6      0.564      2.082
REMARK  Name = Thalidomide.pdbqt.pdb
REMARK  1 active torsions:
REMARK  status: ('A' for Active; 'I' for Inactive)
REMARK    1  A    between atoms: N_3  and  C_12
REMARK                            x       y       z     vdW  Elec       q    Type
REMARK                         _______ _______ _______ _____ _____    ______ ____
ROOT
ATOM      1  O   UNL     1     -49.047 -41.502  37.462  0.00  0.00    +0.000 OA
ATOM      2  O   UNL     1     -47.149 -41.711  41.647  0.00  0.00    +0.000 OA
ATOM      3  N   UNL     1     -47.677 -41.380  39.375  0.00  0.00    +0.000 N 
ATOM      4  C   UNL     1     -48.850 -41.486  38.663  0.00  0.00    +0.000 C 
ATOM      5  C   UNL     1     -47.917 -41.509  40.726  0.00  0.00    +0.000 C 
ATOM      6  C   UNL     1     -49.932 -41.565  39.638  0.00  0.00    +0.000 A 
ATOM      7  C   UNL     1     -49.364 -41.558  40.895  0.00  0.00    +0.000 A 
ATOM      8  C   UNL     1     -51.295 -41.655  39.447  0.00  0.00    +0.000 A 
ATOM      9  C   UNL     1     -50.120 -41.656  42.044  0.00  0.00    +0.000 A 
ATOM     10  C   UNL     1     -52.083 -41.740  40.596  0.00  0.00    +0.000 A 
ATOM     11  C   UNL     1     -51.504 -41.741  41.878  0.00  0.00    +0.000 A 
ENDROOT
BRANCH   3  12
ATOM     12  C   UNL     1     -46.427 -41.290  38.814  0.00  0.00    +0.000 C 
ATOM     13  C   UNL     1     -45.764 -40.062  38.594  0.00  0.00    +0.000 C 
ATOM     14  C   UNL     1     -44.478 -39.976  37.832  0.00  0.00    +0.000 C 
ATOM     15  C   UNL     1     -43.811 -41.138  37.324  0.00  0.00    +0.000 C 
ATOM     16  O   UNL     1     -42.726 -41.074  36.770  0.00  0.00    +0.000 OA
ATOM     17  N   UNL     1     -44.503 -42.319  37.585  0.00  0.00    +0.000 N 
ATOM     18  C   UNL     1     -45.620 -42.520  38.408  0.00  0.00    +0.000 C 
ATOM     19  H   UNL     1     -43.993 -43.160  37.359  0.00  0.00    +0.000 HD
ATOM     20  O   UNL     1     -45.841 -43.632  38.879  0.00  0.00    +0.000 OA
ENDBRANCH   3  12
TORSDOF 1
ENDMDL
MODEL 4
REMARK VINA RESULT:      -6.4     20.181     22.183
REMARK  Name = Thalidomide.pdbqt.pdb
REMARK  1 active torsions:
REMARK  status: ('A' for Active; 'I' for Inactive)
REMARK    1  A    between atoms: N_3  and  C_12
REMARK                            x       y       z     vdW  Elec       q    Type
REMARK                         _______ _______ _______ _____ _____    ______ ____
ROOT
ATOM      1  O   UNL     1     -31.986 -50.852  54.406  0.00  0.00    +0.000 OA
ATOM      2  O   UNL     1     -32.797 -50.812  49.878  0.00  0.00    +0.000 OA
ATOM      3  N   UNL     1     -32.383 -50.321  52.145  0.00  0.00    +0.000 N 
ATOM      4  C   UNL     1     -31.998 -51.098  53.214  0.00  0.00    +0.000 C 
ATOM      5  C   UNL     1     -32.324 -51.045  50.974  0.00  0.00    +0.000 C 
ATOM      6  C   UNL     1     -31.543 -52.372  52.670  0.00  0.00    +0.000 A 
ATOM      7  C   UNL     1     -31.723 -52.332  51.303  0.00  0.00    +0.000 A 
ATOM      8  C   UNL     1     -31.034 -53.482  53.312  0.00  0.00    +0.000 A 
ATOM      9  C   UNL     1     -31.421 -53.404  50.489  0.00  0.00    +0.000 A 
ATOM     10  C   UNL     1     -30.704 -54.574  52.508  0.00  0.00    +0.000 A 
ATOM     11  C   UNL     1     -30.895 -54.537  51.116  0.00  0.00    +0.000 A 
ENDROOT
BRANCH   3  12
ATOM     12  C   UNL     1     -32.881 -49.046  52.244  0.00  0.00    +0.000 C 
ATOM     13  C   UNL     1     -32.210 -47.912  51.733  0.00  0.00    +0.000 C 
ATOM     14  C   UNL     1     -32.689 -46.518  51.997  0.00  0.00    +0.000 C 
ATOM     15  C   UNL     1     -33.884 -46.247  52.740  0.00  0.00    +0.000 C 
ATOM     16  O   UNL     1     -34.312 -45.115  52.889  0.00  0.00    +0.000 OA
ATOM     17  N   UNL     1     -34.508 -47.402  53.203  0.00  0.00    +0.000 N 
ATOM     18  C   UNL     1     -34.230 -48.740  52.888  0.00  0.00    +0.000 C 
ATOM     19  H   UNL     1     -35.419 -47.249  53.610  0.00  0.00    +0.000 HD
ATOM     20  O   UNL     1     -35.104 -49.593  53.010  0.00  0.00    +0.000 OA
ENDBRANCH   3  12
TORSDOF 1
ENDMDL
MODEL 5
REMARK VINA RESULT:      -6.1     25.163     27.016
REMARK  Name = Thalidomide.pdbqt.pdb
REMARK  1 active torsions:
REMARK  status: ('A' for Active; 'I' for Inactive)
REMARK    1  A    between atoms: N_3  and  C_12
REMARK                            x       y       z     vdW  Elec       q    Type
REMARK                         _______ _______ _______ _____ _____    ______ ____
ROOT
ATOM      1  O   UNL     1     -28.911 -54.559  55.329  0.00  0.00    +0.000 OA
ATOM      2  O   UNL     1     -30.932 -51.347  57.930  0.00  0.00    +0.000 OA
ATOM      3  N   UNL     1     -30.301 -52.917  56.289  0.00  0.00    +0.000 N 
ATOM      4  C   UNL     1     -29.341 -53.902  56.259  0.00  0.00    +0.000 C 
ATOM      5  C   UNL     1     -30.397 -52.372  57.552  0.00  0.00    +0.000 C 
ATOM      6  C   UNL     1     -28.878 -54.085  57.631  0.00  0.00    +0.000 A 
ATOM      7  C   UNL     1     -29.537 -53.166  58.421  0.00  0.00    +0.000 A 
ATOM      8  C   UNL     1     -27.947 -54.962  58.144  0.00  0.00    +0.000 A 
ATOM      9  C   UNL     1     -29.297 -53.054  59.774  0.00  0.00    +0.000 A 
ATOM     10  C   UNL     1     -27.698 -54.879  59.516  0.00  0.00    +0.000 A 
ATOM     11  C   UNL     1     -28.363 -53.938  60.320  0.00  0.00    +0.000 A 
ENDROOT
BRANCH   3  12
ATOM     12  C   UNL     1     -30.976 -52.449  55.189  0.00  0.00    +0.000 C 
ATOM     13  C   UNL     1     -30.693 -51.208  54.577  0.00  0.00    +0.000 C 
ATOM     14  C   UNL     1     -31.548 -50.644  53.485  0.00  0.00    +0.000 C 
ATOM     15  C   UNL     1     -32.677 -51.351  52.957  0.00  0.00    +0.000 C 
ATOM     16  O   UNL     1     -33.327 -50.925  52.016  0.00  0.00    +0.000 OA
ATOM     17  N   UNL     1     -32.897 -52.573  53.587  0.00  0.00    +0.000 N 
ATOM     18  C   UNL     1     -32.078 -53.250  54.502  0.00  0.00    +0.000 C 
ATOM     19  H   UNL     1     -33.598 -53.149  53.147  0.00  0.00    +0.000 HD
ATOM     20  O   UNL     1     -32.177 -54.467  54.628  0.00  0.00    +0.000 OA
ENDBRANCH   3  12
TORSDOF 1
ENDMDL
MODEL 6
REMARK VINA RESULT:      -6.0     32.356     33.813
REMARK  Name = Thalidomide.pdbqt.pdb
REMARK  1 active torsions:
REMARK  status: ('A' for Active; 'I' for Inactive)
REMARK    1  A    between atoms: N_3  and  C_12
REMARK                            x       y       z     vdW  Elec       q    Type
REMARK                         _______ _______ _______ _____ _____    ______ ____
ROOT
ATOM      1  O   UNL     1     -66.142 -70.796  30.750  0.00  0.00    +0.000 OA
ATOM      2  O   UNL     1     -62.553 -68.472  29.052  0.00  0.00    +0.000 OA
ATOM      3  N   UNL     1     -64.128 -69.638  30.362  0.00  0.00    +0.000 N 
ATOM      4  C   UNL     1     -65.245 -70.376  30.044  0.00  0.00    +0.000 C 
ATOM      5  C   UNL     1     -63.431 -69.296  29.222  0.00  0.00    +0.000 C 
ATOM      6  C   UNL     1     -65.190 -70.629  28.608  0.00  0.00    +0.000 A 
ATOM      7  C   UNL     1     -64.075 -69.988  28.112  0.00  0.00    +0.000 A 
ATOM      8  C   UNL     1     -66.051 -71.340  27.798  0.00  0.00    +0.000 A 
ATOM      9  C   UNL     1     -63.754 -70.002  26.771  0.00  0.00    +0.000 A 
ATOM     10  C   UNL     1     -65.739 -71.383  26.438  0.00  0.00    +0.000 A 
ATOM     11  C   UNL     1     -64.606 -70.723  25.930  0.00  0.00    +0.000 A 
ENDROOT
BRANCH   3  12
ATOM     12  C   UNL     1     -63.818 -69.191  31.623  0.00  0.00    +0.000 C 
ATOM     13  C   UNL     1     -64.147 -67.899  32.088  0.00  0.00    +0.000 C 
ATOM     14  C   UNL     1     -63.656 -67.376  33.403  0.00  0.00    +0.000 C 
ATOM     15  C   UNL     1     -62.865 -68.172  34.294  0.00  0.00    +0.000 C 
ATOM     16  O   UNL     1     -62.530 -67.772  35.397  0.00  0.00    +0.000 OA
ATOM     17  N   UNL     1     -62.587 -69.439  33.789  0.00  0.00    +0.000 N 
ATOM     18  C   UNL     1     -63.118 -70.070  32.655  0.00  0.00    +0.000 C 
ATOM     19  H   UNL     1     -62.151 -70.065  34.450  0.00  0.00    +0.000 HD
ATOM     20  O   UNL     1     -63.125 -71.296  32.582  0.00  0.00    +0.000 OA
ENDBRANCH   3  12
TORSDOF 1
ENDMDL
MODEL 7
REMARK VINA RESULT:      -6.0     22.591     24.383
REMARK  Name = Thalidomide.pdbqt.pdb
REMARK  1 active torsions:
REMARK  status: ('A' for Active; 'I' for Inactive)
REMARK    1  A    between atoms: N_3  and  C_12
REMARK                            x       y       z     vdW  Elec       q    Type
REMARK                         _______ _______ _______ _____ _____    ______ ____
ROOT
ATOM      1  O   UNL     1     -30.359 -50.207  54.707  0.00  0.00    +0.000 OA
ATOM      2  O   UNL     1     -32.263 -54.297  53.807  0.00  0.00    +0.000 OA
ATOM      3  N   UNL     1     -31.165 -52.212  53.769  0.00  0.00    +0.000 N 
ATOM      4  C   UNL     1     -30.742 -51.360  54.764  0.00  0.00    +0.000 C 
ATOM      5  C   UNL     1     -31.606 -53.403  54.305  0.00  0.00    +0.000 C 
ATOM      6  C   UNL     1     -30.803 -52.108  56.015  0.00  0.00    +0.000 A 
ATOM      7  C   UNL     1     -31.310 -53.358  55.732  0.00  0.00    +0.000 A 
ATOM      8  C   UNL     1     -30.465 -51.724  57.296  0.00  0.00    +0.000 A 
ATOM      9  C   UNL     1     -31.527 -54.303  56.713  0.00  0.00    +0.000 A 
ATOM     10  C   UNL     1     -30.660 -52.669  58.305  0.00  0.00    +0.000 A 
ATOM     11  C   UNL     1     -31.185 -53.942  58.018  0.00  0.00    +0.000 A 
ENDROOT
BRANCH   3  12
ATOM     12  C   UNL     1     -31.257 -51.878  52.441  0.00  0.00    +0.000 C 
ATOM     13  C   UNL     1     -30.286 -52.244  51.482  0.00  0.00    +0.000 C 
ATOM     14  C   UNL     1     -30.323 -51.729  50.076  0.00  0.00    +0.000 C 
ATOM     15  C   UNL     1     -31.371 -50.877  49.600  0.00  0.00    +0.000 C 
ATOM     16  O   UNL     1     -31.441 -50.521  48.435  0.00  0.00    +0.000 OA
ATOM     17  N   UNL     1     -32.306 -50.565  50.584  0.00  0.00    +0.000 N 
ATOM     18  C   UNL     1     -32.444 -51.108  51.870  0.00  0.00    +0.000 C 
ATOM     19  H   UNL     1     -33.124 -50.081  50.245  0.00  0.00    +0.000 HD
ATOM     20  O   UNL     1     -33.531 -51.067  52.438  0.00  0.00    +0.000 OA
ENDBRANCH   3  12
TORSDOF 1
ENDMDL
MODEL 8
REMARK VINA RESULT:      -6.0     24.693     26.541
REMARK  Name = Thalidomide.pdbqt.pdb
REMARK  1 active torsions:
REMARK  status: ('A' for Active; 'I' for Inactive)
REMARK    1  A    between atoms: N_3  and  C_12
REMARK                            x       y       z     vdW  Elec       q    Type
REMARK                         _______ _______ _______ _____ _____    ______ ____
ROOT
ATOM      1  O   UNL     1     -30.974 -51.295  57.930  0.00  0.00    +0.000 OA
ATOM      2  O   UNL     1     -29.847 -54.419  54.747  0.00  0.00    +0.000 OA
ATOM      3  N   UNL     1     -30.498 -52.513  55.971  0.00  0.00    +0.000 N 
ATOM      4  C   UNL     1     -30.450 -52.202  57.311  0.00  0.00    +0.000 C 
ATOM      5  C   UNL     1     -29.832 -53.694  55.723  0.00  0.00    +0.000 C 
ATOM      6  C   UNL     1     -29.587 -53.192  57.945  0.00  0.00    +0.000 A 
ATOM      7  C   UNL     1     -29.194 -54.089  56.974  0.00  0.00    +0.000 A 
ATOM      8  C   UNL     1     -29.193 -53.313  59.261  0.00  0.00    +0.000 A 
ATOM      9  C   UNL     1     -28.393 -55.175  57.257  0.00  0.00    +0.000 A 
ATOM     10  C   UNL     1     -28.368 -54.397  59.570  0.00  0.00    +0.000 A 
ATOM     11  C   UNL     1     -27.974 -55.316  58.582  0.00  0.00    +0.000 A 
ENDROOT
BRANCH   3  12
ATOM     12  C   UNL     1     -31.217 -51.817  55.031  0.00  0.00    +0.000 C 
ATOM     13  C   UNL     1     -32.570 -52.092  54.733  0.00  0.00    +0.000 C 
ATOM     14  C   UNL     1     -33.284 -51.434  53.593  0.00  0.00    +0.000 C 
ATOM     15  C   UNL     1     -32.657 -50.447  52.765  0.00  0.00    +0.000 C 
ATOM     16  O   UNL     1     -33.262 -49.858  51.885  0.00  0.00    +0.000 OA
ATOM     17  N   UNL     1     -31.331 -50.207  53.116  0.00  0.00    +0.000 N 
ATOM     18  C   UNL     1     -30.625 -50.652  54.244  0.00  0.00    +0.000 C 
ATOM     19  H   UNL     1     -30.908 -49.424  52.641  0.00  0.00    +0.000 HD
ATOM     20  O   UNL     1     -29.645 -50.026  54.639  0.00  0.00    +0.000 OA
ENDBRANCH   3  12
TORSDOF 1
ENDMDL
MODEL 9
REMARK VINA RESULT:      -5.9     35.573     36.999
REMARK  Name = Thalidomide.pdbqt.pdb
REMARK  1 active torsions:
REMARK  status: ('A' for Active; 'I' for Inactive)
REMARK    1  A    between atoms: N_3  and  C_12
REMARK                            x       y       z     vdW  Elec       q    Type
REMARK                         _______ _______ _______ _____ _____    ______ ____
ROOT
ATOM      1  O   UNL     1     -66.175 -72.791  28.580  0.00  0.00    +0.000 OA
ATOM      2  O   UNL     1     -63.957 -69.732  25.955  0.00  0.00    +0.000 OA
ATOM      3  N   UNL     1     -65.360 -71.390  26.870  0.00  0.00    +0.000 N 
ATOM      4  C   UNL     1     -65.598 -71.805  28.161  0.00  0.00    +0.000 C 
ATOM      5  C   UNL     1     -64.575 -70.257  26.862  0.00  0.00    +0.000 C 
ATOM      6  C   UNL     1     -65.025 -70.795  29.043  0.00  0.00    +0.000 A 
ATOM      7  C   UNL     1     -64.419 -69.842  28.251  0.00  0.00    +0.000 A 
ATOM      8  C   UNL     1     -65.013 -70.721  30.420  0.00  0.00    +0.000 A 
ATOM      9  C   UNL     1     -63.750 -68.760  28.783  0.00  0.00    +0.000 A 
ATOM     10  C   UNL     1     -64.355 -69.627  30.984  0.00  0.00    +0.000 A 
ATOM     11  C   UNL     1     -63.731 -68.659  30.177  0.00  0.00    +0.000 A 
ENDROOT
BRANCH   3  12
ATOM     12  C   UNL     1     -65.741 -72.078  25.745  0.00  0.00    +0.000 C 
ATOM     13  C   UNL     1     -64.864 -72.908  25.012  0.00  0.00    +0.000 C 
ATOM     14  C   UNL     1     -65.252 -73.514  23.699  0.00  0.00    +0.000 C 
ATOM     15  C   UNL     1     -66.554 -73.334  23.128  0.00  0.00    +0.000 C 
ATOM     16  O   UNL     1     -66.894 -73.891  22.097  0.00  0.00    +0.000 OA
ATOM     17  N   UNL     1     -67.378 -72.521  23.903  0.00  0.00    +0.000 N 
ATOM     18  C   UNL     1     -67.166 -72.035  25.201  0.00  0.00    +0.000 C 
ATOM     19  H   UNL     1     -68.339 -72.489  23.596  0.00  0.00    +0.000 HD
ATOM     20  O   UNL     1     -68.124 -71.720  25.901  0.00  0.00    +0.000 OA
ENDBRANCH   3  12
TORSDOF 1
ENDMDL
