MODEL 1
REMARK VINA RESULT:      -7.2      0.000      0.000
REMARK  Name = Thapsigargin.pdbqt.pdb
REMARK  10 active torsions:
REMARK  status: ('A' for Active; 'I' for Inactive)
REMARK    1  A    between atoms: O_2  and  C_24
REMARK    2  A    between atoms: C_17  and  O_43
REMARK    3  A    between atoms: C_19  and  C_24
REMARK    4  A    between atoms: C_19  and  O_47
REMARK    5  A    between atoms: C_27  and  C_35
REMARK    6  A    between atoms: C_35  and  C_36
REMARK    7  A    between atoms: C_37  and  C_38
REMARK    8  A    between atoms: C_39  and  C_40
REMARK    9  A    between atoms: C_42  and  O_43
REMARK   10  A    between atoms: C_42  and  C_44
REMARK                            x       y       z     vdW  Elec       q    Type
REMARK                         _______ _______ _______ _____ _____    ______ ____
ROOT
ATOM      1  O   UNL     1     -39.708 -38.456  51.266  0.00  0.00    +0.000 OA
ATOM      2  O   UNL     1     -35.692 -42.874  50.242  0.00  0.00    +0.000 OA
ATOM      3  O   UNL     1     -35.285 -42.278  52.696  0.00  0.00    +0.000 OA
ATOM      4  O   UNL     1     -34.517 -38.760  50.583  0.00  0.00    +0.000 OA
ATOM      5  O   UNL     1     -41.812 -37.740  51.803  0.00  0.00    +0.000 OA
ATOM      6  O   UNL     1     -36.365 -43.271  52.561  0.00  0.00    +0.000 OA
ATOM      7  O   UNL     1     -32.847 -42.260  52.917  0.00  0.00    +0.000 OA
ATOM      8  O   UNL     1     -35.693 -37.163  52.089  0.00  0.00    +0.000 OA
ATOM      9  C   UNL     1     -37.148 -40.901  49.582  0.00  0.00    +0.000 C 
ATOM     10  C   UNL     1     -40.257 -40.564  50.459  0.00  0.00    +0.000 C 
ATOM     11  C   UNL     1     -39.214 -39.604  50.661  0.00  0.00    +0.000 C 
ATOM     12  C   UNL     1     -37.785 -42.166  49.116  0.00  0.00    +0.000 C 
ATOM     13  C   UNL     1     -37.925 -39.748  50.281  0.00  0.00    +0.000 C 
ATOM     14  C   UNL     1     -39.974 -41.632  49.790  0.00  0.00    +0.000 C 
ATOM     15  C   UNL     1     -39.094 -42.481  49.084  0.00  0.00    +0.000 C 
ATOM     16  C   UNL     1     -35.880 -40.306  49.222  0.00  0.00    +0.000 C 
ATOM     17  C   UNL     1     -41.526 -40.028  50.984  0.00  0.00    +0.000 C 
ATOM     18  C   UNL     1     -35.713 -39.110  49.949  0.00  0.00    +0.000 C 
ATOM     19  C   UNL     1     -36.904 -38.708  50.442  0.00  0.00    +0.000 C 
ATOM     20  C   UNL     1     -36.948 -42.174  50.330  0.00  0.00    +0.000 C 
ATOM     21  C   UNL     1     -41.065 -38.632  51.409  0.00  0.00    +0.000 C 
ATOM     22  C   UNL     1     -36.692 -37.731  51.423  0.00  0.00    +0.000 C 
ATOM     23  C   UNL     1     -36.668 -43.409  51.146  0.00  0.00    +0.000 C 
ATOM     24  C   UNL     1     -34.066 -42.927  52.914  0.00  0.00    +0.000 C 
ATOM     25  C   UNL     1     -34.617 -38.068  51.847  0.00  0.00    +0.000 C 
ATOM     26  C   UNL     1     -37.152 -44.810  50.748  0.00  0.00    +0.000 C 
ATOM     27  C   UNL     1     -33.849 -38.475  52.879  0.00  0.00    +0.000 C 
ATOM     28  C   UNL     1     -33.937 -37.823  54.240  0.00  0.00    +0.000 C 
ATOM     29  C   UNL     1     -33.235 -39.759  52.849  0.00  0.00    +0.000 C 
ATOM     30  C   UNL     1     -32.994 -40.937  52.871  0.00  0.00    +0.000 C 
ENDROOT
BRANCH  17  31
ATOM     31  O   UNL     1     -42.518 -40.000  49.973  0.00  0.00    +0.000 OA
ATOM     32  H   UNL     1     -42.491 -40.881  49.555  0.00  0.00    +0.000 HD
ENDBRANCH  17  31
BRANCH  17  33
ATOM     33  C   UNL     1     -42.000 -40.832  52.125  0.00  0.00    +0.000 C 
BRANCH  33  34
ATOM     34  O   UNL     1     -42.426 -41.539  53.170  0.00  0.00    +0.000 OA
ATOM     35  H   UNL     1     -41.827 -41.435  53.933  0.00  0.00    +0.000 HD
ENDBRANCH  33  34
ENDBRANCH  17  33
BRANCH  24  36
ATOM     36  C   UNL     1     -33.983 -44.224  52.941  0.00  0.00    +0.000 C 
BRANCH  36  37
ATOM     37  C   UNL     1     -33.838 -45.749  52.956  0.00  0.00    +0.000 C 
ATOM     38  C   UNL     1     -33.688 -46.940  52.970  0.00  0.00    +0.000 C 
BRANCH  38  39
ATOM     39  C   UNL     1     -33.469 -48.456  52.992  0.00  0.00    +0.000 C 
ATOM     40  C   UNL     1     -33.303 -49.645  52.995  0.00  0.00    +0.000 C 
BRANCH  40  41
ATOM     41  C   UNL     1     -33.092 -51.162  52.990  0.00  0.00    +0.000 C 
ATOM     42  C   UNL     1     -32.907 -52.482  52.983  0.00  0.00    +0.000 C 
ENDBRANCH  40  41
ENDBRANCH  38  39
ENDBRANCH  36  37
ENDBRANCH  24  36
BRANCH  15  43
ATOM     43  O   UNL     1     -39.581 -43.419  48.167  0.00  0.00    +0.000 OA
BRANCH  43  45
ATOM     44  O   UNL     1     -41.254 -42.655  46.737  0.00  0.00    +0.000 OA
ATOM     45  C   UNL     1     -40.083 -42.870  47.019  0.00  0.00    +0.000 C 
BRANCH  45  46
ATOM     46  C   UNL     1     -39.044 -42.546  46.090  0.00  0.00    +0.000 C 
ATOM     47  C   UNL     1     -38.172 -42.281  45.314  0.00  0.00    +0.000 C 
ATOM     48  C   UNL     1     -37.061 -41.927  44.323  0.00  0.00    +0.000 C 
ENDBRANCH  45  46
ENDBRANCH  43  45
ENDBRANCH  15  43
TORSDOF 10
ENDMDL
MODEL 2
REMARK VINA RESULT:      -7.1     24.496     29.372
REMARK  Name = Thapsigargin.pdbqt.pdb
REMARK  10 active torsions:
REMARK  status: ('A' for Active; 'I' for Inactive)
REMARK    1  A    between atoms: O_2  and  C_24
REMARK    2  A    between atoms: C_17  and  O_43
REMARK    3  A    between atoms: C_19  and  C_24
REMARK    4  A    between atoms: C_19  and  O_47
REMARK    5  A    between atoms: C_27  and  C_35
REMARK    6  A    between atoms: C_35  and  C_36
REMARK    7  A    between atoms: C_37  and  C_38
REMARK    8  A    between atoms: C_39  and  C_40
REMARK    9  A    between atoms: C_42  and  O_43
REMARK   10  A    between atoms: C_42  and  C_44
REMARK                            x       y       z     vdW  Elec       q    Type
REMARK                         _______ _______ _______ _____ _____    ______ ____
ROOT
ATOM      1  O   UNL     1     -43.437 -69.097  35.756  0.00  0.00    +0.000 OA
ATOM      2  O   UNL     1     -45.201 -63.362  36.592  0.00  0.00    +0.000 OA
ATOM      3  O   UNL     1     -43.039 -63.509  37.952  0.00  0.00    +0.000 OA
ATOM      4  O   UNL     1     -45.590 -66.337  39.662  0.00  0.00    +0.000 OA
ATOM      5  O   UNL     1     -42.370 -70.712  34.540  0.00  0.00    +0.000 OA
ATOM      6  O   UNL     1     -42.760 -63.184  36.542  0.00  0.00    +0.000 OA
ATOM      7  O   UNL     1     -43.548 -62.314  40.027  0.00  0.00    +0.000 OA
ATOM      8  O   UNL     1     -43.953 -68.195  39.926  0.00  0.00    +0.000 OA
ATOM      9  C   UNL     1     -45.576 -65.837  36.161  0.00  0.00    +0.000 C 
ATOM     10  C   UNL     1     -43.855 -67.592  34.037  0.00  0.00    +0.000 C 
ATOM     11  C   UNL     1     -44.056 -67.900  35.421  0.00  0.00    +0.000 C 
ATOM     12  C   UNL     1     -45.718 -65.083  34.882  0.00  0.00    +0.000 C 
ATOM     13  C   UNL     1     -44.784 -67.170  36.294  0.00  0.00    +0.000 C 
ATOM     14  C   UNL     1     -44.480 -66.571  33.549  0.00  0.00    +0.000 C 
ATOM     15  C   UNL     1     -45.335 -65.453  33.646  0.00  0.00    +0.000 C 
ATOM     16  C   UNL     1     -46.344 -65.757  37.383  0.00  0.00    +0.000 C 
ATOM     17  C   UNL     1     -43.029 -68.642  33.415  0.00  0.00    +0.000 C 
ATOM     18  C   UNL     1     -45.809 -66.664  38.320  0.00  0.00    +0.000 C 
ATOM     19  C   UNL     1     -45.025 -67.562  37.687  0.00  0.00    +0.000 C 
ATOM     20  C   UNL     1     -44.809 -64.580  35.929  0.00  0.00    +0.000 C 
ATOM     21  C   UNL     1     -42.886 -69.600  34.600  0.00  0.00    +0.000 C 
ATOM     22  C   UNL     1     -44.241 -68.238  38.631  0.00  0.00    +0.000 C 
ATOM     23  C   UNL     1     -44.005 -63.313  35.802  0.00  0.00    +0.000 C 
ATOM     24  C   UNL     1     -43.132 -62.331  38.702  0.00  0.00    +0.000 C 
ATOM     25  C   UNL     1     -44.420 -66.898  40.296  0.00  0.00    +0.000 C 
ATOM     26  C   UNL     1     -44.116 -62.360  34.604  0.00  0.00    +0.000 C 
ATOM     27  C   UNL     1     -43.628 -66.096  41.037  0.00  0.00    +0.000 C 
ATOM     28  C   UNL     1     -42.364 -66.610  41.691  0.00  0.00    +0.000 C 
ATOM     29  C   UNL     1     -43.723 -64.681  40.907  0.00  0.00    +0.000 C 
ATOM     30  C   UNL     1     -43.667 -63.538  40.537  0.00  0.00    +0.000 C 
ENDROOT
BRANCH  17  31
ATOM     31  O   UNL     1     -43.701 -69.224  32.311  0.00  0.00    +0.000 OA
ATOM     32  H   UNL     1     -44.628 -68.929  32.384  0.00  0.00    +0.000 HD
ENDBRANCH  17  31
BRANCH  17  33
ATOM     33  C   UNL     1     -41.732 -68.096  32.976  0.00  0.00    +0.000 C 
BRANCH  33  34
ATOM     34  O   UNL     1     -40.560 -67.618  32.561  0.00  0.00    +0.000 OA
ATOM     35  H   UNL     1     -40.612 -67.317  31.635  0.00  0.00    +0.000 HD
ENDBRANCH  33  34
ENDBRANCH  17  33
BRANCH  24  36
ATOM     36  C   UNL     1     -43.015 -61.162  38.146  0.00  0.00    +0.000 C 
BRANCH  36  37
ATOM     37  C   UNL     1     -42.926 -59.785  37.480  0.00  0.00    +0.000 C 
ATOM     38  C   UNL     1     -42.878 -58.693  36.985  0.00  0.00    +0.000 C 
BRANCH  38  39
ATOM     39  C   UNL     1     -42.831 -57.289  36.375  0.00  0.00    +0.000 C 
ATOM     40  C   UNL     1     -42.797 -56.182  35.909  0.00  0.00    +0.000 C 
BRANCH  40  41
ATOM     41  C   UNL     1     -42.753 -54.768  35.323  0.00  0.00    +0.000 C 
ATOM     42  C   UNL     1     -42.715 -53.537  34.816  0.00  0.00    +0.000 C 
ENDBRANCH  40  41
ENDBRANCH  38  39
ENDBRANCH  36  37
ENDBRANCH  24  36
BRANCH  15  43
ATOM     43  O   UNL     1     -45.979 -64.941  32.514  0.00  0.00    +0.000 OA
BRANCH  43  45
ATOM     44  O   UNL     1     -48.207 -64.385  32.908  0.00  0.00    +0.000 OA
ATOM     45  C   UNL     1     -47.333 -65.139  32.504  0.00  0.00    +0.000 C 
BRANCH  45  46
ATOM     46  C   UNL     1     -47.676 -66.410  31.943  0.00  0.00    +0.000 C 
ATOM     47  C   UNL     1     -47.969 -67.471  31.473  0.00  0.00    +0.000 C 
ATOM     48  C   UNL     1     -48.331 -68.834  30.877  0.00  0.00    +0.000 C 
ENDBRANCH  45  46
ENDBRANCH  43  45
ENDBRANCH  15  43
TORSDOF 10
ENDMDL
MODEL 3
REMARK VINA RESULT:      -6.8      6.961     13.835
REMARK  Name = Thapsigargin.pdbqt.pdb
REMARK  10 active torsions:
REMARK  status: ('A' for Active; 'I' for Inactive)
REMARK    1  A    between atoms: O_2  and  C_24
REMARK    2  A    between atoms: C_17  and  O_43
REMARK    3  A    between atoms: C_19  and  C_24
REMARK    4  A    between atoms: C_19  and  O_47
REMARK    5  A    between atoms: C_27  and  C_35
REMARK    6  A    between atoms: C_35  and  C_36
REMARK    7  A    between atoms: C_37  and  C_38
REMARK    8  A    between atoms: C_39  and  C_40
REMARK    9  A    between atoms: C_42  and  O_43
REMARK   10  A    between atoms: C_42  and  C_44
REMARK                            x       y       z     vdW  Elec       q    Type
REMARK                         _______ _______ _______ _____ _____    ______ ____
ROOT
ATOM      1  O   UNL     1     -26.762 -52.521  51.439  0.00  0.00    +0.000 OA
ATOM      2  O   UNL     1     -32.516 -50.811  50.619  0.00  0.00    +0.000 OA
ATOM      3  O   UNL     1     -32.054 -50.149  53.046  0.00  0.00    +0.000 OA
ATOM      4  O   UNL     1     -31.476 -54.282  52.920  0.00  0.00    +0.000 OA
ATOM      5  O   UNL     1     -24.514 -52.145  51.274  0.00  0.00    +0.000 OA
ATOM      6  O   UNL     1     -31.638 -49.085  52.115  0.00  0.00    +0.000 OA
ATOM      7  O   UNL     1     -34.075 -50.824  54.251  0.00  0.00    +0.000 OA
ATOM      8  O   UNL     1     -29.388 -54.401  54.274  0.00  0.00    +0.000 OA
ATOM      9  C   UNL     1     -30.472 -52.259  50.198  0.00  0.00    +0.000 C 
ATOM     10  C   UNL     1     -27.475 -51.086  49.757  0.00  0.00    +0.000 C 
ATOM     11  C   UNL     1     -27.862 -52.077  50.715  0.00  0.00    +0.000 C 
ATOM     12  C   UNL     1     -30.634 -51.290  49.076  0.00  0.00    +0.000 C 
ATOM     13  C   UNL     1     -29.110 -52.568  50.883  0.00  0.00    +0.000 C 
ATOM     14  C   UNL     1     -28.371 -50.671  48.922  0.00  0.00    +0.000 C 
ATOM     15  C   UNL     1     -29.677 -50.640  48.388  0.00  0.00    +0.000 C 
ATOM     16  C   UNL     1     -31.344 -53.320  50.649  0.00  0.00    +0.000 C 
ATOM     17  C   UNL     1     -26.026 -50.838  49.863  0.00  0.00    +0.000 C 
ATOM     18  C   UNL     1     -30.759 -53.950  51.766  0.00  0.00    +0.000 C 
ATOM     19  C   UNL     1     -29.447 -53.637  51.828  0.00  0.00    +0.000 C 
ATOM     20  C   UNL     1     -31.092 -50.923  50.429  0.00  0.00    +0.000 C 
ATOM     21  C   UNL     1     -25.660 -51.877  50.927  0.00  0.00    +0.000 C 
ATOM     22  C   UNL     1     -28.951 -53.975  53.094  0.00  0.00    +0.000 C 
ATOM     23  C   UNL     1     -31.748 -49.609  50.764  0.00  0.00    +0.000 C 
ATOM     24  C   UNL     1     -33.357 -49.907  53.494  0.00  0.00    +0.000 C 
ATOM     25  C   UNL     1     -30.790 -54.148  54.184  0.00  0.00    +0.000 C 
ATOM     26  C   UNL     1     -32.091 -48.546  49.711  0.00  0.00    +0.000 C 
ATOM     27  C   UNL     1     -31.419 -53.536  55.209  0.00  0.00    +0.000 C 
ATOM     28  C   UNL     1     -30.742 -53.325  56.545  0.00  0.00    +0.000 C 
ATOM     29  C   UNL     1     -32.563 -52.725  54.963  0.00  0.00    +0.000 C 
ATOM     30  C   UNL     1     -33.327 -51.853  54.644  0.00  0.00    +0.000 C 
ENDROOT
BRANCH  17  31
ATOM     31  O   UNL     1     -25.383 -51.066  48.621  0.00  0.00    +0.000 OA
ATOM     32  H   UNL     1     -26.093 -51.051  47.952  0.00  0.00    +0.000 HD
ENDBRANCH  17  31
BRANCH  17  33
ATOM     33  C   UNL     1     -25.764 -49.459  50.314  0.00  0.00    +0.000 C 
BRANCH  33  34
ATOM     34  O   UNL     1     -25.547 -48.214  50.734  0.00  0.00    +0.000 OA
ATOM     35  H   UNL     1     -25.387 -47.612  49.983  0.00  0.00    +0.000 HD
ENDBRANCH  33  34
ENDBRANCH  17  33
BRANCH  24  36
ATOM     36  C   UNL     1     -34.042 -48.888  53.069  0.00  0.00    +0.000 C 
BRANCH  36  37
ATOM     37  C   UNL     1     -34.867 -47.679  52.615  0.00  0.00    +0.000 C 
ATOM     38  C   UNL     1     -35.509 -46.743  52.225  0.00  0.00    +0.000 C 
BRANCH  38  39
ATOM     39  C   UNL     1     -36.328 -45.558  51.702  0.00  0.00    +0.000 C 
ATOM     40  C   UNL     1     -36.958 -44.626  51.283  0.00  0.00    +0.000 C 
BRANCH  40  41
ATOM     41  C   UNL     1     -37.756 -43.437  50.742  0.00  0.00    +0.000 C 
ATOM     42  C   UNL     1     -38.451 -42.400  50.274  0.00  0.00    +0.000 C 
ENDBRANCH  40  41
ENDBRANCH  38  39
ENDBRANCH  36  37
ENDBRANCH  24  36
BRANCH  15  43
ATOM     43  O   UNL     1     -29.906 -50.211  47.076  0.00  0.00    +0.000 OA
BRANCH  43  45
ATOM     44  O   UNL     1     -28.638 -51.745  45.864  0.00  0.00    +0.000 OA
ATOM     45  C   UNL     1     -28.946 -50.605  46.183  0.00  0.00    +0.000 C 
BRANCH  45  46
ATOM     46  C   UNL     1     -28.268 -49.484  45.608  0.00  0.00    +0.000 C 
ATOM     47  C   UNL     1     -27.699 -48.545  45.132  0.00  0.00    +0.000 C 
ATOM     48  C   UNL     1     -26.979 -47.345  44.512  0.00  0.00    +0.000 C 
ENDBRANCH  45  46
ENDBRANCH  43  45
ENDBRANCH  15  43
TORSDOF 10
ENDMDL
MODEL 4
REMARK VINA RESULT:      -6.5     23.374     28.370
REMARK  Name = Thapsigargin.pdbqt.pdb
REMARK  10 active torsions:
REMARK  status: ('A' for Active; 'I' for Inactive)
REMARK    1  A    between atoms: O_2  and  C_24
REMARK    2  A    between atoms: C_17  and  O_43
REMARK    3  A    between atoms: C_19  and  C_24
REMARK    4  A    between atoms: C_19  and  O_47
REMARK    5  A    between atoms: C_27  and  C_35
REMARK    6  A    between atoms: C_35  and  C_36
REMARK    7  A    between atoms: C_37  and  C_38
REMARK    8  A    between atoms: C_39  and  C_40
REMARK    9  A    between atoms: C_42  and  O_43
REMARK   10  A    between atoms: C_42  and  C_44
REMARK                            x       y       z     vdW  Elec       q    Type
REMARK                         _______ _______ _______ _____ _____    ______ ____
ROOT
ATOM      1  O   UNL     1     -42.203 -67.646  34.632  0.00  0.00    +0.000 OA
ATOM      2  O   UNL     1     -42.265 -64.260  39.655  0.00  0.00    +0.000 OA
ATOM      3  O   UNL     1     -43.660 -62.885  38.011  0.00  0.00    +0.000 OA
ATOM      4  O   UNL     1     -39.898 -63.214  36.231  0.00  0.00    +0.000 OA
ATOM      5  O   UNL     1     -43.019 -69.357  33.354  0.00  0.00    +0.000 OA
ATOM      6  O   UNL     1     -44.491 -63.881  38.710  0.00  0.00    +0.000 OA
ATOM      7  O   UNL     1     -42.904 -60.582  38.356  0.00  0.00    +0.000 OA
ATOM      8  O   UNL     1     -40.635 -63.712  33.904  0.00  0.00    +0.000 OA
ATOM      9  C   UNL     1     -41.262 -65.936  38.032  0.00  0.00    +0.000 C 
ATOM     10  C   UNL     1     -42.915 -68.400  36.710  0.00  0.00    +0.000 C 
ATOM     11  C   UNL     1     -42.167 -67.407  35.999  0.00  0.00    +0.000 C 
ATOM     12  C   UNL     1     -41.819 -66.660  39.210  0.00  0.00    +0.000 C 
ATOM     13  C   UNL     1     -41.472 -66.393  36.559  0.00  0.00    +0.000 C 
ATOM     14  C   UNL     1     -42.868 -68.382  38.002  0.00  0.00    +0.000 C 
ATOM     15  C   UNL     1     -42.453 -67.847  39.240  0.00  0.00    +0.000 C 
ATOM     16  C   UNL     1     -40.197 -64.961  37.952  0.00  0.00    +0.000 C 
ATOM     17  C   UNL     1     -43.506 -69.351  35.751  0.00  0.00    +0.000 C 
ATOM     18  C   UNL     1     -40.051 -64.552  36.611  0.00  0.00    +0.000 C 
ATOM     19  C   UNL     1     -40.659 -65.441  35.796  0.00  0.00    +0.000 C 
ATOM     20  C   UNL     1     -42.431 -65.390  38.776  0.00  0.00    +0.000 C 
ATOM     21  C   UNL     1     -42.913 -68.810  34.448  0.00  0.00    +0.000 C 
ATOM     22  C   UNL     1     -40.806 -64.875  34.523  0.00  0.00    +0.000 C 
ATOM     23  C   UNL     1     -43.602 -64.745  39.470  0.00  0.00    +0.000 C 
ATOM     24  C   UNL     1     -43.714 -61.661  38.687  0.00  0.00    +0.000 C 
ATOM     25  C   UNL     1     -40.528 -62.802  34.998  0.00  0.00    +0.000 C 
ATOM     26  C   UNL     1     -44.226 -65.295  40.760  0.00  0.00    +0.000 C 
ATOM     27  C   UNL     1     -41.240 -61.656  34.979  0.00  0.00    +0.000 C 
ATOM     28  C   UNL     1     -41.961 -61.190  33.734  0.00  0.00    +0.000 C 
ATOM     29  C   UNL     1     -41.669 -61.061  36.199  0.00  0.00    +0.000 C 
ATOM     30  C   UNL     1     -42.221 -60.787  37.231  0.00  0.00    +0.000 C 
ENDROOT
BRANCH  17  31
ATOM     31  O   UNL     1     -43.095 -70.677  36.038  0.00  0.00    +0.000 OA
ATOM     32  H   UNL     1     -42.534 -70.610  36.834  0.00  0.00    +0.000 HD
ENDBRANCH  17  31
BRANCH  17  33
ATOM     33  C   UNL     1     -44.977 -69.270  35.774  0.00  0.00    +0.000 C 
BRANCH  33  34
ATOM     34  O   UNL     1     -46.308 -69.214  35.777  0.00  0.00    +0.000 OA
ATOM     35  H   UNL     1     -46.626 -68.449  36.292  0.00  0.00    +0.000 HD
ENDBRANCH  33  34
ENDBRANCH  17  33
BRANCH  24  36
ATOM     36  C   UNL     1     -44.392 -61.524  39.787  0.00  0.00    +0.000 C 
BRANCH  36  37
ATOM     37  C   UNL     1     -45.210 -61.408  41.077  0.00  0.00    +0.000 C 
ATOM     38  C   UNL     1     -45.823 -61.334  42.107  0.00  0.00    +0.000 C 
BRANCH  38  39
ATOM     39  C   UNL     1     -46.584 -61.249  43.434  0.00  0.00    +0.000 C 
ATOM     40  C   UNL     1     -47.192 -61.178  44.466  0.00  0.00    +0.000 C 
BRANCH  40  41
ATOM     41  C   UNL     1     -47.975 -61.087  45.779  0.00  0.00    +0.000 C 
ATOM     42  C   UNL     1     -48.658 -61.005  46.921  0.00  0.00    +0.000 C 
ENDBRANCH  40  41
ENDBRANCH  38  39
ENDBRANCH  36  37
ENDBRANCH  24  36
BRANCH  15  43
ATOM     43  O   UNL     1     -42.438 -68.637  40.395  0.00  0.00    +0.000 OA
BRANCH  43  45
ATOM     44  O   UNL     1     -40.495 -68.548  41.677  0.00  0.00    +0.000 OA
ATOM     45  C   UNL     1     -41.187 -69.026  40.789  0.00  0.00    +0.000 C 
BRANCH  45  46
ATOM     46  C   UNL     1     -40.707 -70.128  40.012  0.00  0.00    +0.000 C 
ATOM     47  C   UNL     1     -40.300 -71.047  39.362  0.00  0.00    +0.000 C 
ATOM     48  C   UNL     1     -39.794 -72.225  38.526  0.00  0.00    +0.000 C 
ENDBRANCH  45  46
ENDBRANCH  43  45
ENDBRANCH  15  43
TORSDOF 10
ENDMDL
MODEL 5
REMARK VINA RESULT:      -6.4     27.761     32.434
REMARK  Name = Thapsigargin.pdbqt.pdb
REMARK  10 active torsions:
REMARK  status: ('A' for Active; 'I' for Inactive)
REMARK    1  A    between atoms: O_2  and  C_24
REMARK    2  A    between atoms: C_17  and  O_43
REMARK    3  A    between atoms: C_19  and  C_24
REMARK    4  A    between atoms: C_19  and  O_47
REMARK    5  A    between atoms: C_27  and  C_35
REMARK    6  A    between atoms: C_35  and  C_36
REMARK    7  A    between atoms: C_37  and  C_38
REMARK    8  A    between atoms: C_39  and  C_40
REMARK    9  A    between atoms: C_42  and  O_43
REMARK   10  A    between atoms: C_42  and  C_44
REMARK                            x       y       z     vdW  Elec       q    Type
REMARK                         _______ _______ _______ _____ _____    ______ ____
ROOT
ATOM      1  O   UNL     1     -44.887 -67.102  26.952  0.00  0.00    +0.000 OA
ATOM      2  O   UNL     1     -46.700 -63.544  31.508  0.00  0.00    +0.000 OA
ATOM      3  O   UNL     1     -44.638 -64.713  32.470  0.00  0.00    +0.000 OA
ATOM      4  O   UNL     1     -47.304 -67.793  31.556  0.00  0.00    +0.000 OA
ATOM      5  O   UNL     1     -43.740 -67.441  25.004  0.00  0.00    +0.000 OA
ATOM      6  O   UNL     1     -44.261 -63.504  31.717  0.00  0.00    +0.000 OA
ATOM      7  O   UNL     1     -45.290 -65.304  34.754  0.00  0.00    +0.000 OA
ATOM      8  O   UNL     1     -45.691 -69.376  30.509  0.00  0.00    +0.000 OA
ATOM      9  C   UNL     1     -47.046 -64.973  29.437  0.00  0.00    +0.000 C 
ATOM     10  C   UNL     1     -45.183 -64.804  26.781  0.00  0.00    +0.000 C 
ATOM     11  C   UNL     1     -45.480 -65.988  27.531  0.00  0.00    +0.000 C 
ATOM     12  C   UNL     1     -47.099 -63.531  29.060  0.00  0.00    +0.000 C 
ATOM     13  C   UNL     1     -46.267 -66.049  28.628  0.00  0.00    +0.000 C 
ATOM     14  C   UNL     1     -45.772 -63.707  27.127  0.00  0.00    +0.000 C 
ATOM     15  C   UNL     1     -46.630 -62.941  27.944  0.00  0.00    +0.000 C 
ATOM     16  C   UNL     1     -47.897 -65.739  30.318  0.00  0.00    +0.000 C 
ATOM     17  C   UNL     1     -44.317 -65.150  25.640  0.00  0.00    +0.000 C 
ATOM     18  C   UNL     1     -47.429 -67.068  30.366  0.00  0.00    +0.000 C 
ATOM     19  C   UNL     1     -46.604 -67.297  29.322  0.00  0.00    +0.000 C 
ATOM     20  C   UNL     1     -46.264 -63.958  30.198  0.00  0.00    +0.000 C 
ATOM     21  C   UNL     1     -44.257 -66.671  25.808  0.00  0.00    +0.000 C 
ATOM     22  C   UNL     1     -45.888 -68.479  29.550  0.00  0.00    +0.000 C 
ATOM     23  C   UNL     1     -45.452 -63.011  31.043  0.00  0.00    +0.000 C 
ATOM     24  C   UNL     1     -44.782 -64.403  33.826  0.00  0.00    +0.000 C 
ATOM     25  C   UNL     1     -46.181 -68.695  31.663  0.00  0.00    +0.000 C 
ATOM     26  C   UNL     1     -45.479 -61.487  30.864  0.00  0.00    +0.000 C 
ATOM     27  C   UNL     1     -45.442 -68.689  32.792  0.00  0.00    +0.000 C 
ATOM     28  C   UNL     1     -44.228 -69.576  32.952  0.00  0.00    +0.000 C 
ATOM     29  C   UNL     1     -45.526 -67.591  33.695  0.00  0.00    +0.000 C 
ATOM     30  C   UNL     1     -45.444 -66.524  34.244  0.00  0.00    +0.000 C 
ENDROOT
BRANCH  17  31
ATOM     31  O   UNL     1     -44.911 -64.751  24.417  0.00  0.00    +0.000 OA
ATOM     32  H   UNL     1     -44.835 -65.522  23.825  0.00  0.00    +0.000 HD
ENDBRANCH  17  31
BRANCH  17  33
ATOM     33  C   UNL     1     -42.992 -64.519  25.779  0.00  0.00    +0.000 C 
BRANCH  33  34
ATOM     34  O   UNL     1     -41.785 -63.971  25.908  0.00  0.00    +0.000 OA
ATOM     35  H   UNL     1     -41.082 -64.631  25.763  0.00  0.00    +0.000 HD
ENDBRANCH  33  34
ENDBRANCH  17  33
BRANCH  24  36
ATOM     36  C   UNL     1     -44.626 -63.190  34.265  0.00  0.00    +0.000 C 
BRANCH  36  37
ATOM     37  C   UNL     1     -44.491 -61.757  34.791  0.00  0.00    +0.000 C 
ATOM     38  C   UNL     1     -44.362 -60.627  35.176  0.00  0.00    +0.000 C 
BRANCH  38  39
ATOM     39  C   UNL     1     -44.182 -59.180  35.644  0.00  0.00    +0.000 C 
ATOM     40  C   UNL     1     -44.050 -58.041  36.000  0.00  0.00    +0.000 C 
BRANCH  40  41
ATOM     41  C   UNL     1     -43.887 -56.586  36.450  0.00  0.00    +0.000 C 
ATOM     42  C   UNL     1     -43.745 -55.320  36.838  0.00  0.00    +0.000 C 
ENDBRANCH  40  41
ENDBRANCH  38  39
ENDBRANCH  36  37
ENDBRANCH  24  36
BRANCH  15  43
ATOM     43  O   UNL     1     -47.194 -61.749  27.475  0.00  0.00    +0.000 OA
BRANCH  43  45
ATOM     44  O   UNL     1     -46.032 -59.832  28.109  0.00  0.00    +0.000 OA
ATOM     45  C   UNL     1     -46.296 -60.729  27.320  0.00  0.00    +0.000 C 
BRANCH  45  46
ATOM     46  C   UNL     1     -45.638 -60.793  26.051  0.00  0.00    +0.000 C 
ATOM     47  C   UNL     1     -45.091 -60.850  24.988  0.00  0.00    +0.000 C 
ATOM     48  C   UNL     1     -44.380 -60.919  23.634  0.00  0.00    +0.000 C 
ENDBRANCH  45  46
ENDBRANCH  43  45
ENDBRANCH  15  43
TORSDOF 10
ENDMDL
MODEL 6
REMARK VINA RESULT:      -6.4     20.275     23.305
REMARK  Name = Thapsigargin.pdbqt.pdb
REMARK  10 active torsions:
REMARK  status: ('A' for Active; 'I' for Inactive)
REMARK    1  A    between atoms: O_2  and  C_24
REMARK    2  A    between atoms: C_17  and  O_43
REMARK    3  A    between atoms: C_19  and  C_24
REMARK    4  A    between atoms: C_19  and  O_47
REMARK    5  A    between atoms: C_27  and  C_35
REMARK    6  A    between atoms: C_35  and  C_36
REMARK    7  A    between atoms: C_37  and  C_38
REMARK    8  A    between atoms: C_39  and  C_40
REMARK    9  A    between atoms: C_42  and  O_43
REMARK   10  A    between atoms: C_42  and  C_44
REMARK                            x       y       z     vdW  Elec       q    Type
REMARK                         _______ _______ _______ _____ _____    ______ ____
ROOT
ATOM      1  O   UNL     1     -41.757 -58.143  34.435  0.00  0.00    +0.000 OA
ATOM      2  O   UNL     1     -40.431 -52.309  33.484  0.00  0.00    +0.000 OA
ATOM      3  O   UNL     1     -39.047 -53.517  31.704  0.00  0.00    +0.000 OA
ATOM      4  O   UNL     1     -37.658 -55.002  35.351  0.00  0.00    +0.000 OA
ATOM      5  O   UNL     1     -43.096 -59.972  34.135  0.00  0.00    +0.000 OA
ATOM      6  O   UNL     1     -40.414 -53.252  31.225  0.00  0.00    +0.000 OA
ATOM      7  O   UNL     1     -36.881 -52.376  31.747  0.00  0.00    +0.000 OA
ATOM      8  O   UNL     1     -37.533 -57.413  34.741  0.00  0.00    +0.000 OA
ATOM      9  C   UNL     1     -41.097 -54.308  34.903  0.00  0.00    +0.000 C 
ATOM     10  C   UNL     1     -43.338 -56.490  34.028  0.00  0.00    +0.000 C 
ATOM     11  C   UNL     1     -41.993 -56.775  34.429  0.00  0.00    +0.000 C 
ATOM     12  C   UNL     1     -42.303 -53.479  34.614  0.00  0.00    +0.000 C 
ATOM     13  C   UNL     1     -41.072 -55.860  34.803  0.00  0.00    +0.000 C 
ATOM     14  C   UNL     1     -43.743 -55.265  34.098  0.00  0.00    +0.000 C 
ATOM     15  C   UNL     1     -43.560 -53.891  34.364  0.00  0.00    +0.000 C 
ATOM     16  C   UNL     1     -39.890 -53.979  35.626  0.00  0.00    +0.000 C 
ATOM     17  C   UNL     1     -44.038 -57.752  33.726  0.00  0.00    +0.000 C 
ATOM     18  C   UNL     1     -39.029 -55.095  35.612  0.00  0.00    +0.000 C 
ATOM     19  C   UNL     1     -39.726 -56.202  35.278  0.00  0.00    +0.000 C 
ATOM     20  C   UNL     1     -41.196 -53.520  33.641  0.00  0.00    +0.000 C 
ATOM     21  C   UNL     1     -42.943 -58.755  34.099  0.00  0.00    +0.000 C 
ATOM     22  C   UNL     1     -38.833 -57.226  34.939  0.00  0.00    +0.000 C 
ATOM     23  C   UNL     1     -41.189 -52.748  32.348  0.00  0.00    +0.000 C 
ATOM     24  C   UNL     1     -38.193 -52.483  31.304  0.00  0.00    +0.000 C 
ATOM     25  C   UNL     1     -37.055 -56.077  34.597  0.00  0.00    +0.000 C 
ATOM     26  C   UNL     1     -42.296 -51.764  31.947  0.00  0.00    +0.000 C 
ATOM     27  C   UNL     1     -36.227 -55.776  33.576  0.00  0.00    +0.000 C 
ATOM     28  C   UNL     1     -35.597 -56.852  32.720  0.00  0.00    +0.000 C 
ATOM     29  C   UNL     1     -36.228 -54.466  33.018  0.00  0.00    +0.000 C 
ATOM     30  C   UNL     1     -36.489 -53.448  32.433  0.00  0.00    +0.000 C 
ENDROOT
BRANCH  17  31
ATOM     31  O   UNL     1     -45.204 -57.884  34.519  0.00  0.00    +0.000 OA
ATOM     32  H   UNL     1     -44.950 -57.580  35.411  0.00  0.00    +0.000 HD
ENDBRANCH  17  31
BRANCH  17  33
ATOM     33  C   UNL     1     -44.397 -57.821  32.298  0.00  0.00    +0.000 C 
BRANCH  33  34
ATOM     34  O   UNL     1     -44.736 -57.864  31.010  0.00  0.00    +0.000 OA
ATOM     35  H   UNL     1     -44.642 -58.766  30.652  0.00  0.00    +0.000 HD
ENDBRANCH  33  34
ENDBRANCH  17  33
BRANCH  24  36
ATOM     36  C   UNL     1     -38.635 -51.456  30.641  0.00  0.00    +0.000 C 
BRANCH  36  37
ATOM     37  C   UNL     1     -39.142 -50.216  29.898  0.00  0.00    +0.000 C 
ATOM     38  C   UNL     1     -39.567 -49.242  29.340  0.00  0.00    +0.000 C 
BRANCH  38  39
ATOM     39  C   UNL     1     -40.129 -47.996  28.647  0.00  0.00    +0.000 C 
ATOM     40  C   UNL     1     -40.555 -47.015  28.102  0.00  0.00    +0.000 C 
BRANCH  40  41
ATOM     41  C   UNL     1     -41.091 -45.763  27.403  0.00  0.00    +0.000 C 
ATOM     42  C   UNL     1     -41.555 -44.671  26.796  0.00  0.00    +0.000 C 
ENDBRANCH  40  41
ENDBRANCH  38  39
ENDBRANCH  36  37
ENDBRANCH  24  36
BRANCH  15  43
ATOM     43  O   UNL     1     -44.653 -53.062  34.641  0.00  0.00    +0.000 OA
BRANCH  43  45
ATOM     44  O   UNL     1     -45.426 -53.127  32.445  0.00  0.00    +0.000 OA
ATOM     45  C   UNL     1     -45.283 -52.577  33.527  0.00  0.00    +0.000 C 
BRANCH  45  46
ATOM     46  C   UNL     1     -45.799 -51.260  33.744  0.00  0.00    +0.000 C 
ATOM     47  C   UNL     1     -46.236 -50.160  33.922  0.00  0.00    +0.000 C 
ATOM     48  C   UNL     1     -46.781 -48.748  34.153  0.00  0.00    +0.000 C 
ENDBRANCH  45  46
ENDBRANCH  43  45
ENDBRANCH  15  43
TORSDOF 10
ENDMDL
MODEL 7
REMARK VINA RESULT:      -6.3     25.009     30.096
REMARK  Name = Thapsigargin.pdbqt.pdb
REMARK  10 active torsions:
REMARK  status: ('A' for Active; 'I' for Inactive)
REMARK    1  A    between atoms: O_2  and  C_24
REMARK    2  A    between atoms: C_17  and  O_43
REMARK    3  A    between atoms: C_19  and  C_24
REMARK    4  A    between atoms: C_19  and  O_47
REMARK    5  A    between atoms: C_27  and  C_35
REMARK    6  A    between atoms: C_35  and  C_36
REMARK    7  A    between atoms: C_37  and  C_38
REMARK    8  A    between atoms: C_39  and  C_40
REMARK    9  A    between atoms: C_42  and  O_43
REMARK   10  A    between atoms: C_42  and  C_44
REMARK                            x       y       z     vdW  Elec       q    Type
REMARK                         _______ _______ _______ _____ _____    ______ ____
ROOT
ATOM      1  O   UNL     1     -45.847 -67.053  37.622  0.00  0.00    +0.000 OA
ATOM      2  O   UNL     1     -43.643 -63.999  32.877  0.00  0.00    +0.000 OA
ATOM      3  O   UNL     1     -46.135 -64.193  32.335  0.00  0.00    +0.000 OA
ATOM      4  O   UNL     1     -44.773 -68.131  32.602  0.00  0.00    +0.000 OA
ATOM      5  O   UNL     1     -46.662 -67.131  39.756  0.00  0.00    +0.000 OA
ATOM      6  O   UNL     1     -45.864 -63.016  33.179  0.00  0.00    +0.000 OA
ATOM      7  O   UNL     1     -46.193 -64.748  29.951  0.00  0.00    +0.000 OA
ATOM      8  O   UNL     1     -46.659 -69.082  33.921  0.00  0.00    +0.000 OA
ATOM      9  C   UNL     1     -43.516 -65.658  34.796  0.00  0.00    +0.000 C 
ATOM     10  C   UNL     1     -44.648 -65.070  37.783  0.00  0.00    +0.000 C 
ATOM     11  C   UNL     1     -44.980 -66.194  36.960  0.00  0.00    +0.000 C 
ATOM     12  C   UNL     1     -42.834 -64.391  35.189  0.00  0.00    +0.000 C 
ATOM     13  C   UNL     1     -44.494 -66.436  35.723  0.00  0.00    +0.000 C 
ATOM     14  C   UNL     1     -43.749 -64.248  37.350  0.00  0.00    +0.000 C 
ATOM     15  C   UNL     1     -42.823 -63.786  36.392  0.00  0.00    +0.000 C 
ATOM     16  C   UNL     1     -43.208 -66.595  33.739  0.00  0.00    +0.000 C 
ATOM     17  C   UNL     1     -45.358 -65.178  39.071  0.00  0.00    +0.000 C 
ATOM     18  C   UNL     1     -44.160 -67.634  33.757  0.00  0.00    +0.000 C 
ATOM     19  C   UNL     1     -44.805 -67.639  34.943  0.00  0.00    +0.000 C 
ATOM     20  C   UNL     1     -43.961 -64.350  34.238  0.00  0.00    +0.000 C 
ATOM     21  C   UNL     1     -46.039 -66.536  38.882  0.00  0.00    +0.000 C 
ATOM     22  C   UNL     1     -45.955 -68.431  34.841  0.00  0.00    +0.000 C 
ATOM     23  C   UNL     1     -44.475 -63.084  33.603  0.00  0.00    +0.000 C 
ATOM     24  C   UNL     1     -46.129 -63.823  30.986  0.00  0.00    +0.000 C 
ATOM     25  C   UNL     1     -46.159 -68.523  32.708  0.00  0.00    +0.000 C 
ATOM     26  C   UNL     1     -43.821 -61.711  33.810  0.00  0.00    +0.000 C 
ATOM     27  C   UNL     1     -47.028 -68.121  31.757  0.00  0.00    +0.000 C 
ATOM     28  C   UNL     1     -48.500 -68.460  31.830  0.00  0.00    +0.000 C 
ATOM     29  C   UNL     1     -46.684 -67.050  30.883  0.00  0.00    +0.000 C 
ATOM     30  C   UNL     1     -46.440 -65.982  30.389  0.00  0.00    +0.000 C 
ENDROOT
BRANCH  17  31
ATOM     31  O   UNL     1     -44.444 -65.161  40.153  0.00  0.00    +0.000 OA
ATOM     32  H   UNL     1     -43.624 -65.563  39.810  0.00  0.00    +0.000 HD
ENDBRANCH  17  31
BRANCH  17  33
ATOM     33  C   UNL     1     -46.331 -64.080  39.224  0.00  0.00    +0.000 C 
BRANCH  33  34
ATOM     34  O   UNL     1     -47.215 -63.091  39.338  0.00  0.00    +0.000 OA
ATOM     35  H   UNL     1     -47.739 -63.182  40.156  0.00  0.00    +0.000 HD
ENDBRANCH  33  34
ENDBRANCH  17  33
BRANCH  24  36
ATOM     36  C   UNL     1     -45.874 -62.603  30.618  0.00  0.00    +0.000 C 
BRANCH  36  37
ATOM     37  C   UNL     1     -45.537 -61.182  30.155  0.00  0.00    +0.000 C 
ATOM     38  C   UNL     1     -45.237 -60.079  29.790  0.00  0.00    +0.000 C 
BRANCH  38  39
ATOM     39  C   UNL     1     -44.828 -58.679  29.320  0.00  0.00    +0.000 C 
ATOM     40  C   UNL     1     -44.522 -57.577  28.954  0.00  0.00    +0.000 C 
BRANCH  40  41
ATOM     41  C   UNL     1     -44.138 -56.169  28.492  0.00  0.00    +0.000 C 
ATOM     42  C   UNL     1     -43.804 -54.944  28.086  0.00  0.00    +0.000 C 
ENDBRANCH  40  41
ENDBRANCH  38  39
ENDBRANCH  36  37
ENDBRANCH  24  36
BRANCH  15  43
ATOM     43  O   UNL     1     -41.762 -62.952  36.762  0.00  0.00    +0.000 OA
BRANCH  43  45
ATOM     44  O   UNL     1     -42.008 -62.415  39.015  0.00  0.00    +0.000 OA
ATOM     45  C   UNL     1     -42.037 -62.136  37.825  0.00  0.00    +0.000 C 
BRANCH  45  46
ATOM     46  C   UNL     1     -42.401 -60.819  37.400  0.00  0.00    +0.000 C 
ATOM     47  C   UNL     1     -42.710 -59.719  37.041  0.00  0.00    +0.000 C 
ATOM     48  C   UNL     1     -43.091 -58.309  36.586  0.00  0.00    +0.000 C 
ENDBRANCH  45  46
ENDBRANCH  43  45
ENDBRANCH  15  43
TORSDOF 10
ENDMDL
MODEL 8
REMARK VINA RESULT:      -6.3      3.798      9.967
REMARK  Name = Thapsigargin.pdbqt.pdb
REMARK  10 active torsions:
REMARK  status: ('A' for Active; 'I' for Inactive)
REMARK    1  A    between atoms: O_2  and  C_24
REMARK    2  A    between atoms: C_17  and  O_43
REMARK    3  A    between atoms: C_19  and  C_24
REMARK    4  A    between atoms: C_19  and  O_47
REMARK    5  A    between atoms: C_27  and  C_35
REMARK    6  A    between atoms: C_35  and  C_36
REMARK    7  A    between atoms: C_37  and  C_38
REMARK    8  A    between atoms: C_39  and  C_40
REMARK    9  A    between atoms: C_42  and  O_43
REMARK   10  A    between atoms: C_42  and  C_44
REMARK                            x       y       z     vdW  Elec       q    Type
REMARK                         _______ _______ _______ _____ _____    ______ ____
ROOT
ATOM      1  O   UNL     1     -40.049 -38.494  52.763  0.00  0.00    +0.000 OA
ATOM      2  O   UNL     1     -42.191 -40.538  47.477  0.00  0.00    +0.000 OA
ATOM      3  O   UNL     1     -43.163 -38.176  47.624  0.00  0.00    +0.000 OA
ATOM      4  O   UNL     1     -44.676 -40.180  50.959  0.00  0.00    +0.000 OA
ATOM      5  O   UNL     1     -38.408 -37.521  54.022  0.00  0.00    +0.000 OA
ATOM      6  O   UNL     1     -41.813 -38.160  47.034  0.00  0.00    +0.000 OA
ATOM      7  O   UNL     1     -45.477 -38.427  46.864  0.00  0.00    +0.000 OA
ATOM      8  O   UNL     1     -44.343 -38.382  52.650  0.00  0.00    +0.000 OA
ATOM      9  C   UNL     1     -41.367 -40.785  49.867  0.00  0.00    +0.000 C 
ATOM     10  C   UNL     1     -38.722 -39.307  51.038  0.00  0.00    +0.000 C 
ATOM     11  C   UNL     1     -40.039 -39.252  51.599  0.00  0.00    +0.000 C 
ATOM     12  C   UNL     1     -40.287 -41.195  48.924  0.00  0.00    +0.000 C 
ATOM     13  C   UNL     1     -41.130 -39.881  51.111  0.00  0.00    +0.000 C 
ATOM     14  C   UNL     1     -38.530 -40.082  50.021  0.00  0.00    +0.000 C 
ATOM     15  C   UNL     1     -38.960 -40.994  49.034  0.00  0.00    +0.000 C 
ATOM     16  C   UNL     1     -42.683 -41.344  50.081  0.00  0.00    +0.000 C 
ATOM     17  C   UNL     1     -37.799 -38.517  51.872  0.00  0.00    +0.000 C 
ATOM     18  C   UNL     1     -43.345 -40.592  51.072  0.00  0.00    +0.000 C 
ATOM     19  C   UNL     1     -42.446 -39.856  51.760  0.00  0.00    +0.000 C 
ATOM     20  C   UNL     1     -41.262 -40.168  48.514  0.00  0.00    +0.000 C 
ATOM     21  C   UNL     1     -38.750 -38.105  52.998  0.00  0.00    +0.000 C 
ATOM     22  C   UNL     1     -43.120 -38.876  52.500  0.00  0.00    +0.000 C 
ATOM     23  C   UNL     1     -41.255 -39.497  47.166  0.00  0.00    +0.000 C 
ATOM     24  C   UNL     1     -44.124 -38.235  46.609  0.00  0.00    +0.000 C 
ATOM     25  C   UNL     1     -45.013 -38.881  51.493  0.00  0.00    +0.000 C 
ATOM     26  C   UNL     1     -40.285 -39.878  46.040  0.00  0.00    +0.000 C 
ATOM     27  C   UNL     1     -45.765 -38.042  50.750  0.00  0.00    +0.000 C 
ATOM     28  C   UNL     1     -46.116 -36.652  51.231  0.00  0.00    +0.000 C 
ATOM     29  C   UNL     1     -45.916 -38.268  49.352  0.00  0.00    +0.000 C 
ATOM     30  C   UNL     1     -45.762 -38.363  48.163  0.00  0.00    +0.000 C 
ENDROOT
BRANCH  17  31
ATOM     31  O   UNL     1     -36.718 -39.315  52.324  0.00  0.00    +0.000 OA
ATOM     32  H   UNL     1     -36.027 -38.686  52.603  0.00  0.00    +0.000 HD
ENDBRANCH  17  31
BRANCH  17  33
ATOM     33  C   UNL     1     -37.282 -37.357  51.123  0.00  0.00    +0.000 C 
BRANCH  33  34
ATOM     34  O   UNL     1     -36.834 -36.295  50.455  0.00  0.00    +0.000 OA
ATOM     35  H   UNL     1     -37.437 -36.058  49.727  0.00  0.00    +0.000 HD
ENDBRANCH  33  34
ENDBRANCH  17  33
BRANCH  24  36
ATOM     36  C   UNL     1     -43.785 -38.303  45.356  0.00  0.00    +0.000 C 
BRANCH  36  37
ATOM     37  C   UNL     1     -43.343 -38.357  43.891  0.00  0.00    +0.000 C 
ATOM     38  C   UNL     1     -42.964 -38.387  42.752  0.00  0.00    +0.000 C 
BRANCH  38  39
ATOM     39  C   UNL     1     -42.455 -38.418  41.307  0.00  0.00    +0.000 C 
ATOM     40  C   UNL     1     -42.058 -38.456  40.175  0.00  0.00    +0.000 C 
BRANCH  40  41
ATOM     41  C   UNL     1     -41.554 -38.513  38.730  0.00  0.00    +0.000 C 
ATOM     42  C   UNL     1     -41.114 -38.564  37.473  0.00  0.00    +0.000 C 
ENDBRANCH  40  41
ENDBRANCH  38  39
ENDBRANCH  36  37
ENDBRANCH  24  36
BRANCH  15  43
ATOM     43  O   UNL     1     -38.053 -41.855  48.407  0.00  0.00    +0.000 OA
BRANCH  43  45
ATOM     44  O   UNL     1     -39.092 -43.754  47.548  0.00  0.00    +0.000 OA
ATOM     45  C   UNL     1     -38.440 -43.167  48.400  0.00  0.00    +0.000 C 
BRANCH  45  46
ATOM     46  C   UNL     1     -37.991 -43.857  49.570  0.00  0.00    +0.000 C 
ATOM     47  C   UNL     1     -37.620 -44.439  50.548  0.00  0.00    +0.000 C 
ATOM     48  C   UNL     1     -37.139 -45.170  51.803  0.00  0.00    +0.000 C 
ENDBRANCH  45  46
ENDBRANCH  43  45
ENDBRANCH  15  43
TORSDOF 10
ENDMDL
MODEL 9
REMARK VINA RESULT:      -6.1     38.791     40.959
REMARK  Name = Thapsigargin.pdbqt.pdb
REMARK  10 active torsions:
REMARK  status: ('A' for Active; 'I' for Inactive)
REMARK    1  A    between atoms: O_2  and  C_24
REMARK    2  A    between atoms: C_17  and  O_43
REMARK    3  A    between atoms: C_19  and  C_24
REMARK    4  A    between atoms: C_19  and  O_47
REMARK    5  A    between atoms: C_27  and  C_35
REMARK    6  A    between atoms: C_35  and  C_36
REMARK    7  A    between atoms: C_37  and  C_38
REMARK    8  A    between atoms: C_39  and  C_40
REMARK    9  A    between atoms: C_42  and  O_43
REMARK   10  A    between atoms: C_42  and  C_44
REMARK                            x       y       z     vdW  Elec       q    Type
REMARK                         _______ _______ _______ _____ _____    ______ ____
ROOT
ATOM      1  O   UNL     1     -66.463 -71.012  64.080  0.00  0.00    +0.000 OA
ATOM      2  O   UNL     1     -60.794 -71.069  61.946  0.00  0.00    +0.000 OA
ATOM      3  O   UNL     1     -60.495 -71.709  64.405  0.00  0.00    +0.000 OA
ATOM      4  O   UNL     1     -62.246 -67.919  64.474  0.00  0.00    +0.000 OA
ATOM      5  O   UNL     1     -68.488 -72.016  64.427  0.00  0.00    +0.000 OA
ATOM      6  O   UNL     1     -60.785 -72.894  63.578  0.00  0.00    +0.000 OA
ATOM      7  O   UNL     1     -58.537 -70.430  65.128  0.00  0.00    +0.000 OA
ATOM      8  O   UNL     1     -63.924 -68.324  66.269  0.00  0.00    +0.000 OA
ATOM      9  C   UNL     1     -63.207 -70.281  62.024  0.00  0.00    +0.000 C 
ATOM     10  C   UNL     1     -65.762 -72.273  62.259  0.00  0.00    +0.000 C 
ATOM     11  C   UNL     1     -65.472 -71.165  63.119  0.00  0.00    +0.000 C 
ATOM     12  C   UNL     1     -63.028 -71.221  60.880  0.00  0.00    +0.000 C 
ATOM     13  C   UNL     1     -64.413 -70.334  63.005  0.00  0.00    +0.000 C 
ATOM     14  C   UNL     1     -64.994 -72.461  61.237  0.00  0.00    +0.000 C 
ATOM     15  C   UNL     1     -63.887 -72.150  60.419  0.00  0.00    +0.000 C 
ATOM     16  C   UNL     1     -62.598 -68.995  62.279  0.00  0.00    +0.000 C 
ATOM     17  C   UNL     1     -67.018 -72.914  62.690  0.00  0.00    +0.000 C 
ATOM     18  C   UNL     1     -63.075 -68.499  63.509  0.00  0.00    +0.000 C 
ATOM     19  C   UNL     1     -64.195 -69.166  63.864  0.00  0.00    +0.000 C 
ATOM     20  C   UNL     1     -62.195 -71.373  62.087  0.00  0.00    +0.000 C 
ATOM     21  C   UNL     1     -67.420 -71.967  63.823  0.00  0.00    +0.000 C 
ATOM     22  C   UNL     1     -64.472 -68.916  65.215  0.00  0.00    +0.000 C 
ATOM     23  C   UNL     1     -61.134 -72.430  62.245  0.00  0.00    +0.000 C 
ATOM     24  C   UNL     1     -59.112 -71.550  64.540  0.00  0.00    +0.000 C 
ATOM     25  C   UNL     1     -62.566 -68.175  65.859  0.00  0.00    +0.000 C 
ATOM     26  C   UNL     1     -60.743 -73.406  61.127  0.00  0.00    +0.000 C 
ATOM     27  C   UNL     1     -61.576 -68.531  66.705  0.00  0.00    +0.000 C 
ATOM     28  C   UNL     1     -61.850 -68.856  68.157  0.00  0.00    +0.000 C 
ATOM     29  C   UNL     1     -60.332 -68.998  66.193  0.00  0.00    +0.000 C 
ATOM     30  C   UNL     1     -59.442 -69.634  65.695  0.00  0.00    +0.000 C 
ENDROOT
BRANCH  17  31
ATOM     31  O   UNL     1     -67.959 -72.941  61.630  0.00  0.00    +0.000 OA
ATOM     32  H   UNL     1     -67.678 -73.673  61.050  0.00  0.00    +0.000 HD
ENDBRANCH  17  31
BRANCH  17  33
ATOM     33  C   UNL     1     -66.767 -74.285  63.168  0.00  0.00    +0.000 C 
BRANCH  33  34
ATOM     34  O   UNL     1     -66.544 -75.517  63.623  0.00  0.00    +0.000 OA
ATOM     35  H   UNL     1     -66.674 -75.564  64.589  0.00  0.00    +0.000 HD
ENDBRANCH  33  34
ENDBRANCH  17  33
BRANCH  24  36
ATOM     36  C   UNL     1     -58.276 -72.355  63.956  0.00  0.00    +0.000 C 
BRANCH  36  37
ATOM     37  C   UNL     1     -57.328 -73.320  63.237  0.00  0.00    +0.000 C 
ATOM     38  C   UNL     1     -56.613 -74.086  62.651  0.00  0.00    +0.000 C 
BRANCH  38  39
ATOM     39  C   UNL     1     -55.721 -75.069  61.887  0.00  0.00    +0.000 C 
ATOM     40  C   UNL     1     -55.016 -75.829  61.280  0.00  0.00    +0.000 C 
BRANCH  40  41
ATOM     41  C   UNL     1     -54.113 -76.791  60.503  0.00  0.00    +0.000 C 
ATOM     42  C   UNL     1     -53.329 -77.630  59.827  0.00  0.00    +0.000 C 
ENDBRANCH  40  41
ENDBRANCH  38  39
ENDBRANCH  36  37
ENDBRANCH  24  36
BRANCH  15  43
ATOM     43  O   UNL     1     -63.843 -72.564  59.082  0.00  0.00    +0.000 OA
BRANCH  43  45
ATOM     44  O   UNL     1     -63.426 -74.835  59.386  0.00  0.00    +0.000 OA
ATOM     45  C   UNL     1     -63.184 -73.746  58.885  0.00  0.00    +0.000 C 
BRANCH  45  46
ATOM     46  C   UNL     1     -62.090 -73.596  57.975  0.00  0.00    +0.000 C 
ATOM     47  C   UNL     1     -61.179 -73.469  57.209  0.00  0.00    +0.000 C 
ATOM     48  C   UNL     1     -60.005 -73.314  56.239  0.00  0.00    +0.000 C 
ENDBRANCH  45  46
ENDBRANCH  43  45
ENDBRANCH  15  43
TORSDOF 10
ENDMDL
