MODEL 1
REMARK VINA RESULT:      -5.5      0.000      0.000
REMARK  Name = Thioguanosine.pdbqt.pdb
REMARK  5 active torsions:
REMARK  status: ('A' for Active; 'I' for Inactive)
REMARK    1  A    between atoms: N_2  and  C1*_12
REMARK    2  A    between atoms: C4*_14  and  C5*_17
REMARK    3  A    between atoms: C3*_15  and  O3*_20
REMARK    4  A    between atoms: C2*_16  and  O2*_22
REMARK    5  A    between atoms: C5*_17  and  O5*_18
REMARK                            x       y       z     vdW  Elec       q    Type
REMARK                         _______ _______ _______ _____ _____    ______ ____
ROOT
ATOM      1  S   UNL     1     -45.574 -37.782  49.176  0.00  0.00    +0.000 S 
ATOM      2  N   UNL     1     -41.986 -40.857  47.883  0.00  0.00    +0.000 N 
ATOM      3  N   UNL     1     -43.170 -41.457  49.956  0.00  0.00    +0.000 N 
ATOM      4  N   UNL     1     -43.204 -39.003  47.426  0.00  0.00    +0.000 NA
ATOM      5  N   UNL     1     -44.893 -39.973  50.652  0.00  0.00    +0.000 NA
ATOM      6  C   UNL     1     -42.926 -40.701  48.870  0.00  0.00    +0.000 A 
ATOM      7  C   UNL     1     -42.229 -39.795  47.025  0.00  0.00    +0.000 A 
ATOM      8  C   UNL     1     -43.647 -39.566  48.598  0.00  0.00    +0.000 A 
ATOM      9  C   UNL     1     -44.699 -39.161  49.532  0.00  0.00    +0.000 A 
ATOM     10  C   UNL     1     -44.159 -41.036  50.803  0.00  0.00    +0.000 A 
ATOM     11  H   UNL     1     -42.620 -42.279  50.191  0.00  0.00    +0.000 HD
ATOM     12  N   UNL     1     -44.330 -41.843  51.878  0.00  0.00    +0.000 N 
ATOM     13  H   UNL     1     -44.378 -42.829  51.656  0.00  0.00    +0.000 HD
ATOM     14  H   UNL     1     -45.149 -41.557  52.410  0.00  0.00    +0.000 HD
ENDROOT
BRANCH   2  15
ATOM     15  C1* UNL     1     -40.991 -41.801  47.723  0.00  0.00    +0.000 A 
ATOM     16  O4* UNL     1     -40.201 -42.246  48.809  0.00  0.00    +0.000 OA
ATOM     17  C4* UNL     1     -39.268 -43.190  48.348  0.00  0.00    +0.000 A 
ATOM     18  C3* UNL     1     -39.467 -43.363  46.937  0.00  0.00    +0.000 A 
ATOM     19  C2* UNL     1     -40.545 -42.508  46.548  0.00  0.00    +0.000 A 
BRANCH  18  20
ATOM     20  O3* UNL     1     -38.454 -43.641  46.060  0.00  0.00    +0.000 OA
ATOM     21  H3* UNL     1     -38.779 -44.122  45.277  0.00  0.00    +0.000 HD
ENDBRANCH  18  20
BRANCH  19  22
ATOM     22  O2* UNL     1     -40.591 -41.969  45.291  0.00  0.00    +0.000 OA
ATOM     23  H2* UNL     1     -39.822 -41.378  45.164  0.00  0.00    +0.000 HD
ENDBRANCH  19  22
BRANCH  17  24
ATOM     24  C5* UNL     1     -38.183 -43.633  49.126  0.00  0.00    +0.000 C 
BRANCH  24  25
ATOM     25  O5* UNL     1     -37.168 -44.072  49.864  0.00  0.00    +0.000 OA
ATOM     26  H5* UNL     1     -37.411 -44.086  50.806  0.00  0.00    +0.000 HD
ENDBRANCH  24  25
ENDBRANCH  17  24
ENDBRANCH   2  15
TORSDOF 5
ENDMDL
MODEL 2
REMARK VINA RESULT:      -4.6     23.191     25.259
REMARK  Name = Thioguanosine.pdbqt.pdb
REMARK  5 active torsions:
REMARK  status: ('A' for Active; 'I' for Inactive)
REMARK    1  A    between atoms: N_2  and  C1*_12
REMARK    2  A    between atoms: C4*_14  and  C5*_17
REMARK    3  A    between atoms: C3*_15  and  O3*_20
REMARK    4  A    between atoms: C2*_16  and  O2*_22
REMARK    5  A    between atoms: C5*_17  and  O5*_18
REMARK                            x       y       z     vdW  Elec       q    Type
REMARK                         _______ _______ _______ _____ _____    ______ ____
ROOT
ATOM      1  S   UNL     1     -30.368 -68.374  44.983  0.00  0.00    +0.000 S 
ATOM      2  N   UNL     1     -32.659 -64.067  44.536  0.00  0.00    +0.000 N 
ATOM      3  N   UNL     1     -34.039 -65.886  45.455  0.00  0.00    +0.000 N 
ATOM      4  N   UNL     1     -30.760 -65.281  44.314  0.00  0.00    +0.000 NA
ATOM      5  N   UNL     1     -32.988 -68.010  45.652  0.00  0.00    +0.000 NA
ATOM      6  C   UNL     1     -32.908 -65.346  44.966  0.00  0.00    +0.000 A 
ATOM      7  C   UNL     1     -31.321 -64.096  44.172  0.00  0.00    +0.000 A 
ATOM      8  C   UNL     1     -31.761 -66.081  44.809  0.00  0.00    +0.000 A 
ATOM      9  C   UNL     1     -31.780 -67.500  45.171  0.00  0.00    +0.000 A 
ATOM     10  C   UNL     1     -34.012 -67.217  45.773  0.00  0.00    +0.000 A 
ATOM     11  H   UNL     1     -34.908 -65.364  45.541  0.00  0.00    +0.000 HD
ATOM     12  N   UNL     1     -35.193 -67.686  46.243  0.00  0.00    +0.000 N 
ATOM     13  H   UNL     1     -35.618 -67.107  46.955  0.00  0.00    +0.000 HD
ATOM     14  H   UNL     1     -35.089 -68.642  46.575  0.00  0.00    +0.000 HD
ENDROOT
BRANCH   2  15
ATOM     15  C1* UNL     1     -33.489 -62.968  44.439  0.00  0.00    +0.000 A 
ATOM     16  O4* UNL     1     -34.483 -62.868  43.435  0.00  0.00    +0.000 OA
ATOM     17  C4* UNL     1     -35.159 -61.644  43.573  0.00  0.00    +0.000 A 
ATOM     18  C3* UNL     1     -34.594 -60.944  44.692  0.00  0.00    +0.000 A 
ATOM     19  C2* UNL     1     -33.563 -61.770  45.239  0.00  0.00    +0.000 A 
BRANCH  18  20
ATOM     20  O3* UNL     1     -34.496 -59.581  44.759  0.00  0.00    +0.000 OA
ATOM     21  H3* UNL     1     -35.039 -59.148  44.074  0.00  0.00    +0.000 HD
ENDBRANCH  18  20
BRANCH  19  22
ATOM     22  O2* UNL     1     -32.474 -61.215  45.852  0.00  0.00    +0.000 OA
ATOM     23  H2* UNL     1     -32.766 -60.716  46.641  0.00  0.00    +0.000 HD
ENDBRANCH  19  22
BRANCH  17  24
ATOM     24  C5* UNL     1     -36.025 -61.137  42.587  0.00  0.00    +0.000 C 
BRANCH  24  25
ATOM     25  O5* UNL     1     -36.835 -60.638  41.659  0.00  0.00    +0.000 OA
ATOM     26  H5* UNL     1     -36.375 -59.961  41.132  0.00  0.00    +0.000 HD
ENDBRANCH  24  25
ENDBRANCH  17  24
ENDBRANCH   2  15
TORSDOF 5
ENDMDL
MODEL 3
REMARK VINA RESULT:      -4.6      1.197      2.644
REMARK  Name = Thioguanosine.pdbqt.pdb
REMARK  5 active torsions:
REMARK  status: ('A' for Active; 'I' for Inactive)
REMARK    1  A    between atoms: N_2  and  C1*_12
REMARK    2  A    between atoms: C4*_14  and  C5*_17
REMARK    3  A    between atoms: C3*_15  and  O3*_20
REMARK    4  A    between atoms: C2*_16  and  O2*_22
REMARK    5  A    between atoms: C5*_17  and  O5*_18
REMARK                            x       y       z     vdW  Elec       q    Type
REMARK                         _______ _______ _______ _____ _____    ______ ____
ROOT
ATOM      1  S   UNL     1     -45.230 -38.381  49.872  0.00  0.00    +0.000 S 
ATOM      2  N   UNL     1     -41.542 -41.374  48.672  0.00  0.00    +0.000 N 
ATOM      3  N   UNL     1     -42.215 -39.796  46.906  0.00  0.00    +0.000 N 
ATOM      4  N   UNL     1     -43.031 -40.664  50.224  0.00  0.00    +0.000 NA
ATOM      5  N   UNL     1     -44.031 -38.350  47.422  0.00  0.00    +0.000 NA
ATOM      6  C   UNL     1     -42.282 -40.354  48.129  0.00  0.00    +0.000 A 
ATOM      7  C   UNL     1     -42.041 -41.494  49.960  0.00  0.00    +0.000 A 
ATOM      8  C   UNL     1     -43.195 -39.943  49.066  0.00  0.00    +0.000 A 
ATOM      9  C   UNL     1     -44.133 -38.876  48.712  0.00  0.00    +0.000 A 
ATOM     10  C   UNL     1     -43.116 -38.808  46.618  0.00  0.00    +0.000 A 
ATOM     11  H   UNL     1     -41.570 -40.117  46.188  0.00  0.00    +0.000 HD
ATOM     12  N   UNL     1     -42.992 -38.311  45.364  0.00  0.00    +0.000 N 
ATOM     13  H   UNL     1     -42.042 -38.086  45.096  0.00  0.00    +0.000 HD
ATOM     14  H   UNL     1     -43.598 -37.503  45.240  0.00  0.00    +0.000 HD
ENDROOT
BRANCH   2  15
ATOM     15  C1* UNL     1     -40.541 -42.154  48.127  0.00  0.00    +0.000 A 
ATOM     16  O4* UNL     1     -39.456 -42.628  48.902  0.00  0.00    +0.000 OA
ATOM     17  C4* UNL     1     -38.594 -43.378  48.085  0.00  0.00    +0.000 A 
ATOM     18  C3* UNL     1     -39.139 -43.394  46.757  0.00  0.00    +0.000 A 
ATOM     19  C2* UNL     1     -40.356 -42.643  46.783  0.00  0.00    +0.000 A 
BRANCH  18  20
ATOM     20  O3* UNL     1     -38.371 -43.426  45.625  0.00  0.00    +0.000 OA
ATOM     21  H3* UNL     1     -38.438 -42.593  45.123  0.00  0.00    +0.000 HD
ENDBRANCH  18  20
BRANCH  19  22
ATOM     22  O2* UNL     1     -40.780 -41.960  45.676  0.00  0.00    +0.000 OA
ATOM     23  H2* UNL     1     -40.182 -41.202  45.515  0.00  0.00    +0.000 HD
ENDBRANCH  19  22
BRANCH  17  24
ATOM     24  C5* UNL     1     -37.307 -43.771  48.493  0.00  0.00    +0.000 C 
BRANCH  24  25
ATOM     25  O5* UNL     1     -36.085 -44.147  48.857  0.00  0.00    +0.000 OA
ATOM     26  H5* UNL     1     -36.120 -44.695  49.661  0.00  0.00    +0.000 HD
ENDBRANCH  24  25
ENDBRANCH  17  24
ENDBRANCH   2  15
TORSDOF 5
ENDMDL
MODEL 4
REMARK VINA RESULT:      -4.5      1.813      2.255
REMARK  Name = Thioguanosine.pdbqt.pdb
REMARK  5 active torsions:
REMARK  status: ('A' for Active; 'I' for Inactive)
REMARK    1  A    between atoms: N_2  and  C1*_12
REMARK    2  A    between atoms: C4*_14  and  C5*_17
REMARK    3  A    between atoms: C3*_15  and  O3*_20
REMARK    4  A    between atoms: C2*_16  and  O2*_22
REMARK    5  A    between atoms: C5*_17  and  O5*_18
REMARK                            x       y       z     vdW  Elec       q    Type
REMARK                         _______ _______ _______ _____ _____    ______ ____
ROOT
ATOM      1  S   UNL     1     -43.826 -37.791  49.211  0.00  0.00    +0.000 S 
ATOM      2  N   UNL     1     -40.406 -41.293  49.034  0.00  0.00    +0.000 N 
ATOM      3  N   UNL     1     -41.476 -40.998  51.231  0.00  0.00    +0.000 N 
ATOM      4  N   UNL     1     -41.601 -39.701  47.957  0.00  0.00    +0.000 NA
ATOM      5  N   UNL     1     -43.113 -39.280  51.383  0.00  0.00    +0.000 NA
ATOM      6  C   UNL     1     -41.279 -40.727  49.928  0.00  0.00    +0.000 A 
ATOM      7  C   UNL     1     -40.673 -40.631  47.846  0.00  0.00    +0.000 A 
ATOM      8  C   UNL     1     -41.985 -39.750  49.275  0.00  0.00    +0.000 A 
ATOM      9  C   UNL     1     -42.968 -38.970  50.029  0.00  0.00    +0.000 A 
ATOM     10  C   UNL     1     -42.399 -40.239  51.897  0.00  0.00    +0.000 A 
ATOM     11  H   UNL     1     -40.933 -41.693  51.738  0.00  0.00    +0.000 HD
ATOM     12  N   UNL     1     -42.525 -40.564  53.206  0.00  0.00    +0.000 N 
ATOM     13  H   UNL     1     -42.611 -41.556  53.383  0.00  0.00    +0.000 HD
ATOM     14  H   UNL     1     -43.302 -40.058  53.625  0.00  0.00    +0.000 HD
ENDROOT
BRANCH   2  15
ATOM     15  C1* UNL     1     -39.447 -42.274  49.204  0.00  0.00    +0.000 A 
ATOM     16  O4* UNL     1     -38.611 -42.313  50.345  0.00  0.00    +0.000 OA
ATOM     17  C4* UNL     1     -37.731 -43.403  50.238  0.00  0.00    +0.000 A 
ATOM     18  C3* UNL     1     -38.011 -44.084  49.006  0.00  0.00    +0.000 A 
ATOM     19  C2* UNL     1     -39.085 -43.390  48.366  0.00  0.00    +0.000 A 
BRANCH  18  20
ATOM     20  O3* UNL     1     -37.055 -44.718  48.259  0.00  0.00    +0.000 OA
ATOM     21  H3* UNL     1     -37.419 -45.048  47.417  0.00  0.00    +0.000 HD
ENDBRANCH  18  20
BRANCH  19  22
ATOM     22  O2* UNL     1     -39.185 -43.363  47.002  0.00  0.00    +0.000 OA
ATOM     23  H2* UNL     1     -38.398 -43.793  46.611  0.00  0.00    +0.000 HD
ENDBRANCH  19  22
BRANCH  17  24
ATOM     24  C5* UNL     1     -36.618 -43.569  51.082  0.00  0.00    +0.000 C 
BRANCH  24  25
ATOM     25  O5* UNL     1     -35.580 -43.731  51.896  0.00  0.00    +0.000 OA
ATOM     26  H5* UNL     1     -34.966 -44.397  51.540  0.00  0.00    +0.000 HD
ENDBRANCH  24  25
ENDBRANCH  17  24
ENDBRANCH   2  15
TORSDOF 5
ENDMDL
MODEL 5
REMARK VINA RESULT:      -4.4     20.153     21.886
REMARK  Name = Thioguanosine.pdbqt.pdb
REMARK  5 active torsions:
REMARK  status: ('A' for Active; 'I' for Inactive)
REMARK    1  A    between atoms: N_2  and  C1*_12
REMARK    2  A    between atoms: C4*_14  and  C5*_17
REMARK    3  A    between atoms: C3*_15  and  O3*_20
REMARK    4  A    between atoms: C2*_16  and  O2*_22
REMARK    5  A    between atoms: C5*_17  and  O5*_18
REMARK                            x       y       z     vdW  Elec       q    Type
REMARK                         _______ _______ _______ _____ _____    ______ ____
ROOT
ATOM      1  S   UNL     1     -40.273 -54.074  34.819  0.00  0.00    +0.000 S 
ATOM      2  N   UNL     1     -43.766 -57.417  35.605  0.00  0.00    +0.000 N 
ATOM      3  N   UNL     1     -41.472 -58.307  35.549  0.00  0.00    +0.000 N 
ATOM      4  N   UNL     1     -43.203 -55.250  35.273  0.00  0.00    +0.000 NA
ATOM      5  N   UNL     1     -39.741 -56.732  35.127  0.00  0.00    +0.000 NA
ATOM      6  C   UNL     1     -42.402 -57.337  35.488  0.00  0.00    +0.000 A 
ATOM      7  C   UNL     1     -44.187 -56.102  35.484  0.00  0.00    +0.000 A 
ATOM      8  C   UNL     1     -42.069 -56.025  35.267  0.00  0.00    +0.000 A 
ATOM      9  C   UNL     1     -40.659 -55.681  35.075  0.00  0.00    +0.000 A 
ATOM     10  C   UNL     1     -40.168 -57.940  35.357  0.00  0.00    +0.000 A 
ATOM     11  H   UNL     1     -41.707 -59.289  35.674  0.00  0.00    +0.000 HD
ATOM     12  N   UNL     1     -39.298 -58.977  35.418  0.00  0.00    +0.000 N 
ATOM     13  H   UNL     1     -39.435 -59.590  36.211  0.00  0.00    +0.000 HD
ATOM     14  H   UNL     1     -38.339 -58.638  35.389  0.00  0.00    +0.000 HD
ENDROOT
BRANCH   2  15
ATOM     15  C1* UNL     1     -44.596 -58.508  35.779  0.00  0.00    +0.000 A 
ATOM     16  O4* UNL     1     -45.945 -58.498  35.350  0.00  0.00    +0.000 OA
ATOM     17  C4* UNL     1     -46.542 -59.728  35.670  0.00  0.00    +0.000 A 
ATOM     18  C3* UNL     1     -45.557 -60.551  36.312  0.00  0.00    +0.000 A 
ATOM     19  C2* UNL     1     -44.342 -59.798  36.372  0.00  0.00    +0.000 A 
BRANCH  18  20
ATOM     20  O3* UNL     1     -45.853 -61.463  37.289  0.00  0.00    +0.000 OA
ATOM     21  H3* UNL     1     -46.248 -61.035  38.071  0.00  0.00    +0.000 HD
ENDBRANCH  18  20
BRANCH  19  22
ATOM     22  O2* UNL     1     -43.451 -59.988  37.392  0.00  0.00    +0.000 OA
ATOM     23  H2* UNL     1     -43.087 -60.895  37.339  0.00  0.00    +0.000 HD
ENDBRANCH  19  22
BRANCH  17  24
ATOM     24  C5* UNL     1     -47.931 -59.942  35.602  0.00  0.00    +0.000 C 
BRANCH  24  25
ATOM     25  O5* UNL     1     -49.245 -60.136  35.559  0.00  0.00    +0.000 OA
ATOM     26  H5* UNL     1     -49.690 -59.377  35.144  0.00  0.00    +0.000 HD
ENDBRANCH  24  25
ENDBRANCH  17  24
ENDBRANCH   2  15
TORSDOF 5
ENDMDL
MODEL 6
REMARK VINA RESULT:      -4.3     28.256     29.132
REMARK  Name = Thioguanosine.pdbqt.pdb
REMARK  5 active torsions:
REMARK  status: ('A' for Active; 'I' for Inactive)
REMARK    1  A    between atoms: N_2  and  C1*_12
REMARK    2  A    between atoms: C4*_14  and  C5*_17
REMARK    3  A    between atoms: C3*_15  and  O3*_20
REMARK    4  A    between atoms: C2*_16  and  O2*_22
REMARK    5  A    between atoms: C5*_17  and  O5*_18
REMARK                            x       y       z     vdW  Elec       q    Type
REMARK                         _______ _______ _______ _____ _____    ______ ____
ROOT
ATOM      1  S   UNL     1     -34.038 -68.897  46.289  0.00  0.00    +0.000 S 
ATOM      2  N   UNL     1     -34.614 -69.044  51.151  0.00  0.00    +0.000 N 
ATOM      3  N   UNL     1     -32.515 -68.009  50.386  0.00  0.00    +0.000 N 
ATOM      4  N   UNL     1     -35.444 -69.481  49.091  0.00  0.00    +0.000 NA
ATOM      5  N   UNL     1     -32.166 -67.952  48.034  0.00  0.00    +0.000 NA
ATOM      6  C   UNL     1     -33.709 -68.607  50.217  0.00  0.00    +0.000 A 
ATOM      7  C   UNL     1     -35.657 -69.547  50.391  0.00  0.00    +0.000 A 
ATOM      8  C   UNL     1     -34.209 -68.893  48.972  0.00  0.00    +0.000 A 
ATOM      9  C   UNL     1     -33.405 -68.551  47.797  0.00  0.00    +0.000 A 
ATOM     10  C   UNL     1     -31.797 -67.714  49.259  0.00  0.00    +0.000 A 
ATOM     11  H   UNL     1     -32.115 -67.826  51.303  0.00  0.00    +0.000 HD
ATOM     12  N   UNL     1     -30.602 -67.129  49.516  0.00  0.00    +0.000 N 
ATOM     13  H   UNL     1     -30.645 -66.369  50.181  0.00  0.00    +0.000 HD
ATOM     14  H   UNL     1     -30.163 -66.823  48.651  0.00  0.00    +0.000 HD
ENDROOT
BRANCH   2  15
ATOM     15  C1* UNL     1     -34.561 -69.039  52.532  0.00  0.00    +0.000 A 
ATOM     16  O4* UNL     1     -34.274 -67.863  53.265  0.00  0.00    +0.000 OA
ATOM     17  C4* UNL     1     -34.274 -68.161  54.638  0.00  0.00    +0.000 A 
ATOM     18  C3* UNL     1     -34.575 -69.556  54.793  0.00  0.00    +0.000 A 
ATOM     19  C2* UNL     1     -34.764 -70.102  53.485  0.00  0.00    +0.000 A 
BRANCH  18  20
ATOM     20  O3* UNL     1     -34.065 -70.332  55.799  0.00  0.00    +0.000 OA
ATOM     21  H3* UNL     1     -33.144 -70.088  56.008  0.00  0.00    +0.000 HD
ENDBRANCH  18  20
BRANCH  19  22
ATOM     22  O2* UNL     1     -34.456 -71.409  53.221  0.00  0.00    +0.000 OA
ATOM     23  H2* UNL     1     -35.027 -71.991  53.762  0.00  0.00    +0.000 HD
ENDBRANCH  19  22
BRANCH  17  24
ATOM     24  C5* UNL     1     -33.783 -67.272  55.611  0.00  0.00    +0.000 C 
BRANCH  24  25
ATOM     25  O5* UNL     1     -33.335 -66.417  56.525  0.00  0.00    +0.000 OA
ATOM     26  H5* UNL     1     -34.077 -65.999  56.996  0.00  0.00    +0.000 HD
ENDBRANCH  24  25
ENDBRANCH  17  24
ENDBRANCH   2  15
TORSDOF 5
ENDMDL
MODEL 7
REMARK VINA RESULT:      -4.3     22.055     23.841
REMARK  Name = Thioguanosine.pdbqt.pdb
REMARK  5 active torsions:
REMARK  status: ('A' for Active; 'I' for Inactive)
REMARK    1  A    between atoms: N_2  and  C1*_12
REMARK    2  A    between atoms: C4*_14  and  C5*_17
REMARK    3  A    between atoms: C3*_15  and  O3*_20
REMARK    4  A    between atoms: C2*_16  and  O2*_22
REMARK    5  A    between atoms: C5*_17  and  O5*_18
REMARK                            x       y       z     vdW  Elec       q    Type
REMARK                         _______ _______ _______ _____ _____    ______ ____
ROOT
ATOM      1  S   UNL     1     -63.843 -35.675  38.808  0.00  0.00    +0.000 S 
ATOM      2  N   UNL     1     -63.959 -40.567  39.034  0.00  0.00    +0.000 N 
ATOM      3  N   UNL     1     -61.722 -39.570  39.282  0.00  0.00    +0.000 N 
ATOM      4  N   UNL     1     -65.083 -38.613  38.826  0.00  0.00    +0.000 NA
ATOM      5  N   UNL     1     -61.604 -37.199  39.136  0.00  0.00    +0.000 NA
ATOM      6  C   UNL     1     -63.056 -39.537  39.110  0.00  0.00    +0.000 A 
ATOM      7  C   UNL     1     -65.179 -39.927  38.881  0.00  0.00    +0.000 A 
ATOM      8  C   UNL     1     -63.741 -38.357  38.964  0.00  0.00    +0.000 A 
ATOM      9  C   UNL     1     -62.988 -37.102  38.977  0.00  0.00    +0.000 A 
ATOM     10  C   UNL     1     -61.060 -38.372  39.281  0.00  0.00    +0.000 A 
ATOM     11  H   UNL     1     -61.196 -40.437  39.353  0.00  0.00    +0.000 HD
ATOM     12  N   UNL     1     -59.720 -38.494  39.443  0.00  0.00    +0.000 N 
ATOM     13  H   UNL     1     -59.446 -39.109  40.197  0.00  0.00    +0.000 HD
ATOM     14  H   UNL     1     -59.291 -37.578  39.554  0.00  0.00    +0.000 HD
ENDROOT
BRANCH   2  15
ATOM     15  C1* UNL     1     -63.774 -41.935  39.070  0.00  0.00    +0.000 A 
ATOM     16  O4* UNL     1     -64.779 -42.837  38.645  0.00  0.00    +0.000 OA
ATOM     17  C4* UNL     1     -64.318 -44.154  38.807  0.00  0.00    +0.000 A 
ATOM     18  C3* UNL     1     -62.987 -44.100  39.341  0.00  0.00    +0.000 A 
ATOM     19  C2* UNL     1     -62.642 -42.721  39.495  0.00  0.00    +0.000 A 
BRANCH  18  20
ATOM     20  O3* UNL     1     -62.477 -45.040  40.195  0.00  0.00    +0.000 OA
ATOM     21  H3* UNL     1     -63.132 -45.310  40.865  0.00  0.00    +0.000 HD
ENDBRANCH  18  20
BRANCH  19  22
ATOM     22  O2* UNL     1     -61.786 -42.321  40.484  0.00  0.00    +0.000 OA
ATOM     23  H2* UNL     1     -61.249 -41.569  40.163  0.00  0.00    +0.000 HD
ENDBRANCH  19  22
BRANCH  17  24
ATOM     24  C5* UNL     1     -65.164 -45.275  38.712  0.00  0.00    +0.000 C 
BRANCH  24  25
ATOM     25  O5* UNL     1     -65.953 -46.341  38.641  0.00  0.00    +0.000 OA
ATOM     26  H5* UNL     1     -65.424 -47.155  38.562  0.00  0.00    +0.000 HD
ENDBRANCH  24  25
ENDBRANCH  17  24
ENDBRANCH   2  15
TORSDOF 5
ENDMDL
MODEL 8
REMARK VINA RESULT:      -4.2     39.732     40.496
REMARK  Name = Thioguanosine.pdbqt.pdb
REMARK  5 active torsions:
REMARK  status: ('A' for Active; 'I' for Inactive)
REMARK    1  A    between atoms: N_2  and  C1*_12
REMARK    2  A    between atoms: C4*_14  and  C5*_17
REMARK    3  A    between atoms: C3*_15  and  O3*_20
REMARK    4  A    between atoms: C2*_16  and  O2*_22
REMARK    5  A    between atoms: C5*_17  and  O5*_18
REMARK                            x       y       z     vdW  Elec       q    Type
REMARK                         _______ _______ _______ _____ _____    ______ ____
ROOT
ATOM      1  S   UNL     1     -74.459 -69.938  38.965  0.00  0.00    +0.000 S 
ATOM      2  N   UNL     1     -69.888 -69.792  40.719  0.00  0.00    +0.000 N 
ATOM      3  N   UNL     1     -71.634 -69.116  42.317  0.00  0.00    +0.000 N 
ATOM      4  N   UNL     1     -71.286 -70.258  39.001  0.00  0.00    +0.000 NA
ATOM      5  N   UNL     1     -73.868 -69.127  41.502  0.00  0.00    +0.000 NA
ATOM      6  C   UNL     1     -71.174 -69.549  41.129  0.00  0.00    +0.000 A 
ATOM      7  C   UNL     1     -70.035 -70.241  39.416  0.00  0.00    +0.000 A 
ATOM      8  C   UNL     1     -72.014 -69.814  40.077  0.00  0.00    +0.000 A 
ATOM      9  C   UNL     1     -73.452 -69.598  40.255  0.00  0.00    +0.000 A 
ATOM     10  C   UNL     1     -72.983 -68.922  42.434  0.00  0.00    +0.000 A 
ATOM     11  H   UNL     1     -71.020 -68.879  43.093  0.00  0.00    +0.000 HD
ATOM     12  N   UNL     1     -73.362 -68.471  43.654  0.00  0.00    +0.000 N 
ATOM     13  H   UNL     1     -72.955 -68.976  44.430  0.00  0.00    +0.000 HD
ATOM     14  H   UNL     1     -74.377 -68.458  43.729  0.00  0.00    +0.000 HD
ENDROOT
BRANCH   2  15
ATOM     15  C1* UNL     1     -68.684 -69.631  41.377  0.00  0.00    +0.000 A 
ATOM     16  O4* UNL     1     -67.475 -69.398  40.679  0.00  0.00    +0.000 OA
ATOM     17  C4* UNL     1     -66.420 -69.291  41.601  0.00  0.00    +0.000 A 
ATOM     18  C3* UNL     1     -66.962 -69.451  42.920  0.00  0.00    +0.000 A 
ATOM     19  C2* UNL     1     -68.371 -69.652  42.785  0.00  0.00    +0.000 A 
BRANCH  18  20
ATOM     20  O3* UNL     1     -66.277 -70.032  43.953  0.00  0.00    +0.000 OA
ATOM     21  H3* UNL     1     -66.807 -70.724  44.391  0.00  0.00    +0.000 HD
ENDBRANCH  18  20
BRANCH  19  22
ATOM     22  O2* UNL     1     -69.059 -70.412  43.691  0.00  0.00    +0.000 OA
ATOM     23  H2* UNL     1     -70.013 -70.199  43.635  0.00  0.00    +0.000 HD
ENDBRANCH  19  22
BRANCH  17  24
ATOM     24  C5* UNL     1     -65.067 -69.307  41.216  0.00  0.00    +0.000 C 
BRANCH  24  25
ATOM     25  O5* UNL     1     -63.786 -69.303  40.864  0.00  0.00    +0.000 OA
ATOM     26  H5* UNL     1     -63.567 -70.104  40.356  0.00  0.00    +0.000 HD
ENDBRANCH  24  25
ENDBRANCH  17  24
ENDBRANCH   2  15
TORSDOF 5
ENDMDL
MODEL 9
REMARK VINA RESULT:      -4.2     26.618     28.133
REMARK  Name = Thioguanosine.pdbqt.pdb
REMARK  5 active torsions:
REMARK  status: ('A' for Active; 'I' for Inactive)
REMARK    1  A    between atoms: N_2  and  C1*_12
REMARK    2  A    between atoms: C4*_14  and  C5*_17
REMARK    3  A    between atoms: C3*_15  and  O3*_20
REMARK    4  A    between atoms: C2*_16  and  O2*_22
REMARK    5  A    between atoms: C5*_17  and  O5*_18
REMARK                            x       y       z     vdW  Elec       q    Type
REMARK                         _______ _______ _______ _____ _____    ______ ____
ROOT
ATOM      1  S   UNL     1     -32.806 -57.486  66.608  0.00  0.00    +0.000 S 
ATOM      2  N   UNL     1     -33.481 -61.885  64.563  0.00  0.00    +0.000 N 
ATOM      3  N   UNL     1     -34.055 -61.753  66.953  0.00  0.00    +0.000 N 
ATOM      4  N   UNL     1     -32.873 -59.717  64.330  0.00  0.00    +0.000 NA
ATOM      5  N   UNL     1     -33.704 -59.650  68.005  0.00  0.00    +0.000 NA
ATOM      6  C   UNL     1     -33.628 -61.261  65.775  0.00  0.00    +0.000 A 
ATOM      7  C   UNL     1     -33.035 -60.876  63.723  0.00  0.00    +0.000 A 
ATOM      8  C   UNL     1     -33.239 -59.954  65.632  0.00  0.00    +0.000 A 
ATOM      9  C   UNL     1     -33.274 -59.078  66.806  0.00  0.00    +0.000 A 
ATOM     10  C   UNL     1     -34.064 -60.900  68.023  0.00  0.00    +0.000 A 
ATOM     11  H   UNL     1     -34.310 -62.729  67.083  0.00  0.00    +0.000 HD
ATOM     12  N   UNL     1     -34.491 -61.477  69.172  0.00  0.00    +0.000 N 
ATOM     13  H   UNL     1     -35.340 -62.018  69.076  0.00  0.00    +0.000 HD
ATOM     14  H   UNL     1     -34.593 -60.778  69.904  0.00  0.00    +0.000 HD
ENDROOT
BRANCH   2  15
ATOM     15  C1* UNL     1     -33.685 -63.201  64.192  0.00  0.00    +0.000 A 
ATOM     16  O4* UNL     1     -32.654 -63.985  63.622  0.00  0.00    +0.000 OA
ATOM     17  C4* UNL     1     -33.152 -65.267  63.335  0.00  0.00    +0.000 A 
ATOM     18  C3* UNL     1     -34.529 -65.312  63.736  0.00  0.00    +0.000 A 
ATOM     19  C2* UNL     1     -34.861 -64.031  64.279  0.00  0.00    +0.000 A 
BRANCH  18  20
ATOM     20  O3* UNL     1     -35.481 -66.056  63.091  0.00  0.00    +0.000 OA
ATOM     21  H3* UNL     1     -35.083 -66.800  62.602  0.00  0.00    +0.000 HD
ENDBRANCH  18  20
BRANCH  19  22
ATOM     22  O2* UNL     1     -36.132 -63.537  64.179  0.00  0.00    +0.000 OA
ATOM     23  H2* UNL     1     -36.555 -63.893  63.372  0.00  0.00    +0.000 HD
ENDBRANCH  19  22
BRANCH  17  24
ATOM     24  C5* UNL     1     -32.455 -66.196  62.541  0.00  0.00    +0.000 C 
BRANCH  24  25
ATOM     25  O5* UNL     1     -31.808 -67.090  61.801  0.00  0.00    +0.000 OA
ATOM     26  H5* UNL     1     -32.301 -67.279  60.983  0.00  0.00    +0.000 HD
ENDBRANCH  24  25
ENDBRANCH  17  24
ENDBRANCH   2  15
TORSDOF 5
ENDMDL
