MODEL 1
REMARK VINA RESULT:      -6.1      0.000      0.000
REMARK  Name = Trichostatin_A.pdbqt.pdb
REMARK  6 active torsions:
REMARK  status: ('A' for Active; 'I' for Inactive)
REMARK    1  A    between atoms: C_1  and  C_15
REMARK    2  A    between atoms: C_4  and  C_6
REMARK    3  A    between atoms: C_7  and  C_10
REMARK    4  A    between atoms: N_9  and  O_12
REMARK    5  A    between atoms: C_15  and  C_16
REMARK    6  A    between atoms: C_17  and  N_22
REMARK                            x       y       z     vdW  Elec       q    Type
REMARK                         _______ _______ _______ _____ _____    ______ ____
ROOT
ATOM      1  C   UNL     1     -32.986 -48.710  51.673  0.00  0.00    +0.000 C 
ATOM      2  C   UNL     1     -32.882 -48.966  50.183  0.00  0.00    +0.000 C 
ATOM      3  C   UNL     1     -32.014 -49.350  52.479  0.00  0.00    +0.000 C 
ATOM      4  C   UNL     1     -31.155 -49.915  53.261  0.00  0.00    +0.000 C 
ATOM      5  C   UNL     1     -29.948 -49.148  53.708  0.00  0.00    +0.000 C 
ENDROOT
BRANCH   4   6
ATOM      6  C   UNL     1     -31.446 -51.168  53.848  0.00  0.00    +0.000 C 
ATOM      7  C   UNL     1     -31.693 -52.234  54.345  0.00  0.00    +0.000 C 
BRANCH   7  10
ATOM      8  O   UNL     1     -32.126 -54.503  54.242  0.00  0.00    +0.000 OA
ATOM      9  N   UNL     1     -32.085 -53.524  56.308  0.00  0.00    +0.000 N 
ATOM     10  C   UNL     1     -31.983 -53.509  54.945  0.00  0.00    +0.000 C 
ATOM     11  H   UNL     1     -31.977 -52.711  56.904  0.00  0.00    +0.000 HD
BRANCH   9  12
ATOM     12  O   UNL     1     -32.378 -54.756  56.930  0.00  0.00    +0.000 OA
ATOM     13  H   UNL     1     -31.583 -54.916  57.483  0.00  0.00    +0.000 HD
ENDBRANCH   9  12
ENDBRANCH   7  10
ENDBRANCH   4   6
BRANCH   1  15
ATOM     14  O   UNL     1     -34.938 -48.728  53.027  0.00  0.00    +0.000 OA
ATOM     15  C   UNL     1     -34.172 -48.072  52.320  0.00  0.00    +0.000 C 
BRANCH  15  16
ATOM     16  C   UNL     1     -34.439 -46.631  52.131  0.00  0.00    +0.000 A 
ATOM     17  C   UNL     1     -35.029 -43.871  51.935  0.00  0.00    +0.000 A 
ATOM     18  C   UNL     1     -33.409 -45.704  52.004  0.00  0.00    +0.000 A 
ATOM     19  C   UNL     1     -35.758 -46.191  52.190  0.00  0.00    +0.000 A 
ATOM     20  C   UNL     1     -33.708 -44.345  51.895  0.00  0.00    +0.000 A 
ATOM     21  C   UNL     1     -36.044 -44.830  52.080  0.00  0.00    +0.000 A 
BRANCH  17  22
ATOM     22  N   UNL     1     -35.325 -42.491  51.806  0.00  0.00    +0.000 N 
ATOM     23  C   UNL     1     -36.371 -42.031  50.906  0.00  0.00    +0.000 C 
ATOM     24  C   UNL     1     -34.360 -41.477  52.199  0.00  0.00    +0.000 C 
ENDBRANCH  17  22
ENDBRANCH  15  16
ENDBRANCH   1  15
TORSDOF 6
ENDMDL
MODEL 2
REMARK VINA RESULT:      -6.0     10.828     15.538
REMARK  Name = Trichostatin_A.pdbqt.pdb
REMARK  6 active torsions:
REMARK  status: ('A' for Active; 'I' for Inactive)
REMARK    1  A    between atoms: C_1  and  C_15
REMARK    2  A    between atoms: C_4  and  C_6
REMARK    3  A    between atoms: C_7  and  C_10
REMARK    4  A    between atoms: N_9  and  O_12
REMARK    5  A    between atoms: C_15  and  C_16
REMARK    6  A    between atoms: C_17  and  N_22
REMARK                            x       y       z     vdW  Elec       q    Type
REMARK                         _______ _______ _______ _____ _____    ______ ____
ROOT
ATOM      1  C   UNL     1     -44.133 -40.876  51.303  0.00  0.00    +0.000 C 
ATOM      2  C   UNL     1     -44.196 -42.324  51.747  0.00  0.00    +0.000 C 
ATOM      3  C   UNL     1     -44.745 -39.937  52.167  0.00  0.00    +0.000 C 
ATOM      4  C   UNL     1     -45.296 -39.040  52.916  0.00  0.00    +0.000 C 
ATOM      5  C   UNL     1     -44.452 -38.270  53.886  0.00  0.00    +0.000 C 
ENDROOT
BRANCH   4   6
ATOM      6  C   UNL     1     -46.634 -38.647  52.686  0.00  0.00    +0.000 C 
ATOM      7  C   UNL     1     -47.774 -38.316  52.493  0.00  0.00    +0.000 C 
BRANCH   7  10
ATOM      8  O   UNL     1     -49.387 -36.776  51.884  0.00  0.00    +0.000 OA
ATOM      9  N   UNL     1     -50.092 -38.862  52.501  0.00  0.00    +0.000 N 
ATOM     10  C   UNL     1     -49.136 -37.913  52.265  0.00  0.00    +0.000 C 
ATOM     11  H   UNL     1     -49.903 -39.804  52.823  0.00  0.00    +0.000 HD
BRANCH   9  12
ATOM     12  O   UNL     1     -51.439 -38.498  52.297  0.00  0.00    +0.000 OA
ATOM     13  H   UNL     1     -51.822 -39.300  51.880  0.00  0.00    +0.000 HD
ENDBRANCH   9  12
ENDBRANCH   7  10
ENDBRANCH   4   6
BRANCH   1  15
ATOM     14  O   UNL     1     -44.440 -39.726  49.248  0.00  0.00    +0.000 OA
ATOM     15  C   UNL     1     -43.717 -40.451  49.932  0.00  0.00    +0.000 C 
BRANCH  15  16
ATOM     16  C   UNL     1     -42.419 -40.885  49.378  0.00  0.00    +0.000 A 
ATOM     17  C   UNL     1     -39.932 -41.856  48.439  0.00  0.00    +0.000 A 
ATOM     18  C   UNL     1     -42.287 -41.309  48.060  0.00  0.00    +0.000 A 
ATOM     19  C   UNL     1     -41.328 -40.969  50.240  0.00  0.00    +0.000 A 
ATOM     20  C   UNL     1     -41.055 -41.775  47.600  0.00  0.00    +0.000 A 
ATOM     21  C   UNL     1     -40.101 -41.436  49.768  0.00  0.00    +0.000 A 
BRANCH  17  22
ATOM     22  N   UNL     1     -38.679 -42.314  47.960  0.00  0.00    +0.000 N 
ATOM     23  C   UNL     1     -38.593 -43.459  47.068  0.00  0.00    +0.000 C 
ATOM     24  C   UNL     1     -37.444 -41.971  48.645  0.00  0.00    +0.000 C 
ENDBRANCH  17  22
ENDBRANCH  15  16
ENDBRANCH   1  15
TORSDOF 6
ENDMDL
MODEL 3
REMARK VINA RESULT:      -5.9     29.281     31.800
REMARK  Name = Trichostatin_A.pdbqt.pdb
REMARK  6 active torsions:
REMARK  status: ('A' for Active; 'I' for Inactive)
REMARK    1  A    between atoms: C_1  and  C_15
REMARK    2  A    between atoms: C_4  and  C_6
REMARK    3  A    between atoms: C_7  and  C_10
REMARK    4  A    between atoms: N_9  and  O_12
REMARK    5  A    between atoms: C_15  and  C_16
REMARK    6  A    between atoms: C_17  and  N_22
REMARK                            x       y       z     vdW  Elec       q    Type
REMARK                         _______ _______ _______ _____ _____    ______ ____
ROOT
ATOM      1  C   UNL     1     -42.232 -74.214  64.363  0.00  0.00    +0.000 C 
ATOM      2  C   UNL     1     -42.267 -72.704  64.490  0.00  0.00    +0.000 C 
ATOM      3  C   UNL     1     -41.666 -74.721  63.169  0.00  0.00    +0.000 C 
ATOM      4  C   UNL     1     -41.166 -75.235  62.094  0.00  0.00    +0.000 C 
ATOM      5  C   UNL     1     -39.738 -75.690  62.090  0.00  0.00    +0.000 C 
ENDROOT
BRANCH   4   6
ATOM      6  C   UNL     1     -42.005 -75.550  61.001  0.00  0.00    +0.000 C 
ATOM      7  C   UNL     1     -42.715 -75.818  60.069  0.00  0.00    +0.000 C 
BRANCH   7  10
ATOM      8  O   UNL     1     -44.737 -76.461  59.149  0.00  0.00    +0.000 OA
ATOM      9  N   UNL     1     -42.994 -76.081  57.718  0.00  0.00    +0.000 N 
ATOM     10  C   UNL     1     -43.568 -76.145  58.957  0.00  0.00    +0.000 C 
ATOM     11  H   UNL     1     -42.029 -75.829  57.542  0.00  0.00    +0.000 HD
BRANCH   9  12
ATOM     12  O   UNL     1     -43.799 -76.405  56.606  0.00  0.00    +0.000 OA
ATOM     13  H   UNL     1     -44.009 -77.352  56.757  0.00  0.00    +0.000 HD
ENDBRANCH   9  12
ENDBRANCH   7  10
ENDBRANCH   4   6
BRANCH   1  15
ATOM     14  O   UNL     1     -42.493 -75.505  66.340  0.00  0.00    +0.000 OA
ATOM     15  C   UNL     1     -42.980 -75.137  65.270  0.00  0.00    +0.000 C 
BRANCH  15  16
ATOM     16  C   UNL     1     -44.328 -75.613  64.901  0.00  0.00    +0.000 A 
ATOM     17  C   UNL     1     -46.965 -76.351  64.188  0.00  0.00    +0.000 A 
ATOM     18  C   UNL     1     -44.564 -76.310  63.721  0.00  0.00    +0.000 A 
ATOM     19  C   UNL     1     -45.400 -75.256  65.715  0.00  0.00    +0.000 A 
ATOM     20  C   UNL     1     -45.865 -76.682  63.381  0.00  0.00    +0.000 A 
ATOM     21  C   UNL     1     -46.696 -75.635  65.365  0.00  0.00    +0.000 A 
BRANCH  17  22
ATOM     22  N   UNL     1     -48.282 -76.748  63.845  0.00  0.00    +0.000 N 
ATOM     23  C   UNL     1     -49.362 -76.672  64.816  0.00  0.00    +0.000 C 
ATOM     24  C   UNL     1     -48.529 -77.627  62.714  0.00  0.00    +0.000 C 
ENDBRANCH  17  22
ENDBRANCH  15  16
ENDBRANCH   1  15
TORSDOF 6
ENDMDL
MODEL 4
REMARK VINA RESULT:      -5.7      7.930     12.384
REMARK  Name = Trichostatin_A.pdbqt.pdb
REMARK  6 active torsions:
REMARK  status: ('A' for Active; 'I' for Inactive)
REMARK    1  A    between atoms: C_1  and  C_15
REMARK    2  A    between atoms: C_4  and  C_6
REMARK    3  A    between atoms: C_7  and  C_10
REMARK    4  A    between atoms: N_9  and  O_12
REMARK    5  A    between atoms: C_15  and  C_16
REMARK    6  A    between atoms: C_17  and  N_22
REMARK                            x       y       z     vdW  Elec       q    Type
REMARK                         _______ _______ _______ _____ _____    ______ ____
ROOT
ATOM      1  C   UNL     1     -41.106 -40.402  47.226  0.00  0.00    +0.000 C 
ATOM      2  C   UNL     1     -40.192 -39.200  47.105  0.00  0.00    +0.000 C 
ATOM      3  C   UNL     1     -42.305 -40.197  47.949  0.00  0.00    +0.000 C 
ATOM      4  C   UNL     1     -43.410 -40.064  48.606  0.00  0.00    +0.000 C 
ATOM      5  C   UNL     1     -44.681 -39.785  47.863  0.00  0.00    +0.000 C 
ENDROOT
BRANCH   4   6
ATOM      6  C   UNL     1     -43.458 -40.376  49.984  0.00  0.00    +0.000 C 
ATOM      7  C   UNL     1     -43.496 -40.643  51.156  0.00  0.00    +0.000 C 
BRANCH   7  10
ATOM      8  O   UNL     1     -43.826 -40.085  53.375  0.00  0.00    +0.000 OA
ATOM      9  N   UNL     1     -43.250 -42.246  52.900  0.00  0.00    +0.000 N 
ATOM     10  C   UNL     1     -43.541 -40.954  52.560  0.00  0.00    +0.000 C 
ATOM     11  H   UNL     1     -43.005 -42.975  52.240  0.00  0.00    +0.000 HD
BRANCH   9  12
ATOM     12  O   UNL     1     -43.275 -42.584  54.269  0.00  0.00    +0.000 OA
ATOM     13  H   UNL     1     -42.366 -42.917  54.429  0.00  0.00    +0.000 HD
ENDBRANCH   9  12
ENDBRANCH   7  10
ENDBRANCH   4   6
BRANCH   1  15
ATOM     14  O   UNL     1     -41.198 -42.381  45.915  0.00  0.00    +0.000 OA
ATOM     15  C   UNL     1     -40.692 -41.794  46.872  0.00  0.00    +0.000 C 
BRANCH  15  16
ATOM     16  C   UNL     1     -39.653 -42.485  47.661  0.00  0.00    +0.000 A 
ATOM     17  C   UNL     1     -37.797 -43.873  49.285  0.00  0.00    +0.000 A 
ATOM     18  C   UNL     1     -38.868 -43.497  47.117  0.00  0.00    +0.000 A 
ATOM     19  C   UNL     1     -39.541 -42.180  49.015  0.00  0.00    +0.000 A 
ATOM     20  C   UNL     1     -37.946 -44.169  47.920  0.00  0.00    +0.000 A 
ATOM     21  C   UNL     1     -38.614 -42.858  49.807  0.00  0.00    +0.000 A 
BRANCH  17  22
ATOM     22  N   UNL     1     -36.845 -44.548  50.090  0.00  0.00    +0.000 N 
ATOM     23  C   UNL     1     -37.227 -45.137  51.363  0.00  0.00    +0.000 C 
ATOM     24  C   UNL     1     -35.420 -44.315  49.920  0.00  0.00    +0.000 C 
ENDBRANCH  17  22
ENDBRANCH  15  16
ENDBRANCH   1  15
TORSDOF 6
ENDMDL
MODEL 5
REMARK VINA RESULT:      -5.6     28.623     31.845
REMARK  Name = Trichostatin_A.pdbqt.pdb
REMARK  6 active torsions:
REMARK  status: ('A' for Active; 'I' for Inactive)
REMARK    1  A    between atoms: C_1  and  C_15
REMARK    2  A    between atoms: C_4  and  C_6
REMARK    3  A    between atoms: C_7  and  C_10
REMARK    4  A    between atoms: N_9  and  O_12
REMARK    5  A    between atoms: C_15  and  C_16
REMARK    6  A    between atoms: C_17  and  N_22
REMARK                            x       y       z     vdW  Elec       q    Type
REMARK                         _______ _______ _______ _____ _____    ______ ____
ROOT
ATOM      1  C   UNL     1     -45.095 -78.235  61.004  0.00  0.00    +0.000 C 
ATOM      2  C   UNL     1     -44.562 -79.652  61.069  0.00  0.00    +0.000 C 
ATOM      3  C   UNL     1     -44.270 -77.294  60.343  0.00  0.00    +0.000 C 
ATOM      4  C   UNL     1     -43.552 -76.394  59.757  0.00  0.00    +0.000 C 
ATOM      5  C   UNL     1     -43.831 -76.044  58.327  0.00  0.00    +0.000 C 
ENDROOT
BRANCH   4   6
ATOM      6  C   UNL     1     -42.649 -75.606  60.507  0.00  0.00    +0.000 C 
ATOM      7  C   UNL     1     -41.882 -74.938  61.149  0.00  0.00    +0.000 C 
BRANCH   7  10
ATOM      8  O   UNL     1     -41.247 -73.783  63.048  0.00  0.00    +0.000 OA
ATOM      9  N   UNL     1     -39.780 -73.828  61.294  0.00  0.00    +0.000 N 
ATOM     10  C   UNL     1     -40.958 -74.142  61.912  0.00  0.00    +0.000 C 
ATOM     11  H   UNL     1     -39.528 -74.111  60.354  0.00  0.00    +0.000 HD
BRANCH   9  12
ATOM     12  O   UNL     1     -38.855 -73.040  62.011  0.00  0.00    +0.000 OA
ATOM     13  H   UNL     1     -37.989 -73.370  61.685  0.00  0.00    +0.000 HD
ENDBRANCH   9  12
ENDBRANCH   7  10
ENDBRANCH   4   6
BRANCH   1  15
ATOM     14  O   UNL     1     -47.414 -78.038  61.478  0.00  0.00    +0.000 OA
ATOM     15  C   UNL     1     -46.262 -77.754  61.804  0.00  0.00    +0.000 C 
BRANCH  15  16
ATOM     16  C   UNL     1     -46.048 -76.936  63.015  0.00  0.00    +0.000 A 
ATOM     17  C   UNL     1     -45.705 -75.508  65.434  0.00  0.00    +0.000 A 
ATOM     18  C   UNL     1     -44.779 -76.524  63.410  0.00  0.00    +0.000 A 
ATOM     19  C   UNL     1     -47.144 -76.667  63.831  0.00  0.00    +0.000 A 
ATOM     20  C   UNL     1     -44.618 -75.810  64.597  0.00  0.00    +0.000 A 
ATOM     21  C   UNL     1     -46.970 -75.951  65.016  0.00  0.00    +0.000 A 
BRANCH  17  22
ATOM     22  N   UNL     1     -45.536 -74.767  66.630  0.00  0.00    +0.000 N 
ATOM     23  C   UNL     1     -46.679 -74.193  67.322  0.00  0.00    +0.000 C 
ATOM     24  C   UNL     1     -44.249 -74.184  66.975  0.00  0.00    +0.000 C 
ENDBRANCH  17  22
ENDBRANCH  15  16
ENDBRANCH   1  15
TORSDOF 6
ENDMDL
MODEL 6
REMARK VINA RESULT:      -5.6     13.392     17.481
REMARK  Name = Trichostatin_A.pdbqt.pdb
REMARK  6 active torsions:
REMARK  status: ('A' for Active; 'I' for Inactive)
REMARK    1  A    between atoms: C_1  and  C_15
REMARK    2  A    between atoms: C_4  and  C_6
REMARK    3  A    between atoms: C_7  and  C_10
REMARK    4  A    between atoms: N_9  and  O_12
REMARK    5  A    between atoms: C_15  and  C_16
REMARK    6  A    between atoms: C_17  and  N_22
REMARK                            x       y       z     vdW  Elec       q    Type
REMARK                         _______ _______ _______ _____ _____    ______ ____
ROOT
ATOM      1  C   UNL     1     -47.703 -37.357  49.547  0.00  0.00    +0.000 C 
ATOM      2  C   UNL     1     -47.679 -37.505  48.040  0.00  0.00    +0.000 C 
ATOM      3  C   UNL     1     -46.459 -37.517  50.204  0.00  0.00    +0.000 C 
ATOM      4  C   UNL     1     -45.351 -37.661  50.852  0.00  0.00    +0.000 C 
ATOM      5  C   UNL     1     -44.557 -36.448  51.235  0.00  0.00    +0.000 C 
ENDROOT
BRANCH   4   6
ATOM      6  C   UNL     1     -44.990 -38.926  51.370  0.00  0.00    +0.000 C 
ATOM      7  C   UNL     1     -44.685 -40.001  51.814  0.00  0.00    +0.000 C 
BRANCH   7  10
ATOM      8  O   UNL     1     -44.781 -42.311  51.835  0.00  0.00    +0.000 OA
ATOM      9  N   UNL     1     -43.469 -41.290  53.404  0.00  0.00    +0.000 N 
ATOM     10  C   UNL     1     -44.325 -41.291  52.339  0.00  0.00    +0.000 C 
ATOM     11  H   UNL     1     -43.088 -40.457  53.838  0.00  0.00    +0.000 HD
BRANCH   9  12
ATOM     12  O   UNL     1     -43.102 -42.538  53.951  0.00  0.00    +0.000 OA
ATOM     13  H   UNL     1     -42.170 -42.391  54.224  0.00  0.00    +0.000 HD
ENDBRANCH   9  12
ENDBRANCH   7  10
ENDBRANCH   4   6
BRANCH   1  15
ATOM     14  O   UNL     1     -50.063 -37.412  49.814  0.00  0.00    +0.000 OA
ATOM     15  C   UNL     1     -48.960 -37.326  50.355  0.00  0.00    +0.000 C 
BRANCH  15  16
ATOM     16  C   UNL     1     -48.899 -37.204  51.825  0.00  0.00    +0.000 A 
ATOM     17  C   UNL     1     -48.947 -36.892  54.638  0.00  0.00    +0.000 A 
ATOM     18  C   UNL     1     -48.837 -38.320  52.654  0.00  0.00    +0.000 A 
ATOM     19  C   UNL     1     -49.014 -35.935  52.388  0.00  0.00    +0.000 A 
ATOM     20  C   UNL     1     -48.849 -38.158  54.039  0.00  0.00    +0.000 A 
ATOM     21  C   UNL     1     -49.024 -35.787  53.775  0.00  0.00    +0.000 A 
BRANCH  17  22
ATOM     22  N   UNL     1     -48.941 -36.734  56.046  0.00  0.00    +0.000 N 
ATOM     23  C   UNL     1     -49.939 -37.389  56.876  0.00  0.00    +0.000 C 
ATOM     24  C   UNL     1     -48.256 -35.615  56.672  0.00  0.00    +0.000 C 
ENDBRANCH  17  22
ENDBRANCH  15  16
ENDBRANCH   1  15
TORSDOF 6
ENDMDL
MODEL 7
REMARK VINA RESULT:      -5.6     24.581     26.349
REMARK  Name = Trichostatin_A.pdbqt.pdb
REMARK  6 active torsions:
REMARK  status: ('A' for Active; 'I' for Inactive)
REMARK    1  A    between atoms: C_1  and  C_15
REMARK    2  A    between atoms: C_4  and  C_6
REMARK    3  A    between atoms: C_7  and  C_10
REMARK    4  A    between atoms: N_9  and  O_12
REMARK    5  A    between atoms: C_15  and  C_16
REMARK    6  A    between atoms: C_17  and  N_22
REMARK                            x       y       z     vdW  Elec       q    Type
REMARK                         _______ _______ _______ _____ _____    ______ ____
ROOT
ATOM      1  C   UNL     1     -47.863 -61.000  35.454  0.00  0.00    +0.000 C 
ATOM      2  C   UNL     1     -49.277 -60.704  35.911  0.00  0.00    +0.000 C 
ATOM      3  C   UNL     1     -47.731 -61.500  34.136  0.00  0.00    +0.000 C 
ATOM      4  C   UNL     1     -47.556 -61.964  32.943  0.00  0.00    +0.000 C 
ATOM      5  C   UNL     1     -47.198 -61.025  31.831  0.00  0.00    +0.000 C 
ENDROOT
BRANCH   4   6
ATOM      6  C   UNL     1     -47.505 -63.360  32.725  0.00  0.00    +0.000 C 
ATOM      7  C   UNL     1     -47.461 -64.548  32.544  0.00  0.00    +0.000 C 
BRANCH   7  10
ATOM      8  O   UNL     1     -46.386 -66.594  32.549  0.00  0.00    +0.000 OA
ATOM      9  N   UNL     1     -48.566 -66.543  31.858  0.00  0.00    +0.000 N 
ATOM     10  C   UNL     1     -47.416 -65.969  32.323  0.00  0.00    +0.000 C 
ATOM     11  H   UNL     1     -49.422 -66.040  31.659  0.00  0.00    +0.000 HD
BRANCH   9  12
ATOM     12  O   UNL     1     -48.554 -67.934  31.621  0.00  0.00    +0.000 OA
ATOM     13  H   UNL     1     -48.113 -68.003  30.747  0.00  0.00    +0.000 HD
ENDBRANCH   9  12
ENDBRANCH   7  10
ENDBRANCH   4   6
BRANCH   1  15
ATOM     14  O   UNL     1     -46.634 -61.875  37.288  0.00  0.00    +0.000 OA
ATOM     15  C   UNL     1     -46.690 -61.048  36.377  0.00  0.00    +0.000 C 
BRANCH  15  16
ATOM     16  C   UNL     1     -45.565 -60.107  36.203  0.00  0.00    +0.000 A 
ATOM     17  C   UNL     1     -43.503 -58.183  35.974  0.00  0.00    +0.000 A 
ATOM     18  C   UNL     1     -44.289 -60.390  36.680  0.00  0.00    +0.000 A 
ATOM     19  C   UNL     1     -45.829 -58.861  35.640  0.00  0.00    +0.000 A 
ATOM     20  C   UNL     1     -43.274 -59.441  36.552  0.00  0.00    +0.000 A 
ATOM     21  C   UNL     1     -44.805 -57.921  35.517  0.00  0.00    +0.000 A 
BRANCH  17  22
ATOM     22  N   UNL     1     -42.462 -57.231  35.832  0.00  0.00    +0.000 N 
ATOM     23  C   UNL     1     -42.759 -55.820  35.647  0.00  0.00    +0.000 C 
ATOM     24  C   UNL     1     -41.125 -57.638  35.433  0.00  0.00    +0.000 C 
ENDBRANCH  17  22
ENDBRANCH  15  16
ENDBRANCH   1  15
TORSDOF 6
ENDMDL
MODEL 8
REMARK VINA RESULT:      -5.5     26.149     28.366
REMARK  Name = Trichostatin_A.pdbqt.pdb
REMARK  6 active torsions:
REMARK  status: ('A' for Active; 'I' for Inactive)
REMARK    1  A    between atoms: C_1  and  C_15
REMARK    2  A    between atoms: C_4  and  C_6
REMARK    3  A    between atoms: C_7  and  C_10
REMARK    4  A    between atoms: N_9  and  O_12
REMARK    5  A    between atoms: C_15  and  C_16
REMARK    6  A    between atoms: C_17  and  N_22
REMARK                            x       y       z     vdW  Elec       q    Type
REMARK                         _______ _______ _______ _____ _____    ______ ____
ROOT
ATOM      1  C   UNL     1     -47.718 -61.534  35.490  0.00  0.00    +0.000 C 
ATOM      2  C   UNL     1     -49.073 -61.072  35.986  0.00  0.00    +0.000 C 
ATOM      3  C   UNL     1     -47.652 -61.903  34.125  0.00  0.00    +0.000 C 
ATOM      4  C   UNL     1     -47.539 -62.258  32.888  0.00  0.00    +0.000 C 
ATOM      5  C   UNL     1     -47.026 -61.273  31.882  0.00  0.00    +0.000 C 
ENDROOT
BRANCH   4   6
ATOM      6  C   UNL     1     -47.704 -63.613  32.520  0.00  0.00    +0.000 C 
ATOM      7  C   UNL     1     -47.845 -64.766  32.211  0.00  0.00    +0.000 C 
BRANCH   7  10
ATOM      8  O   UNL     1     -48.866 -66.453  31.004  0.00  0.00    +0.000 OA
ATOM      9  N   UNL     1     -47.203 -67.046  32.457  0.00  0.00    +0.000 N 
ATOM     10  C   UNL     1     -48.020 -66.144  31.836  0.00  0.00    +0.000 C 
ATOM     11  H   UNL     1     -46.504 -66.809  33.151  0.00  0.00    +0.000 HD
BRANCH   9  12
ATOM     12  O   UNL     1     -47.354 -68.407  32.120  0.00  0.00    +0.000 OA
ATOM     13  H   UNL     1     -46.777 -68.502  31.331  0.00  0.00    +0.000 HD
ENDBRANCH   9  12
ENDBRANCH   7  10
ENDBRANCH   4   6
BRANCH   1  15
ATOM     14  O   UNL     1     -45.747 -61.010  36.707  0.00  0.00    +0.000 OA
ATOM     15  C   UNL     1     -46.576 -61.865  36.396  0.00  0.00    +0.000 C 
BRANCH  15  16
ATOM     16  C   UNL     1     -46.432 -63.228  36.945  0.00  0.00    +0.000 A 
ATOM     17  C   UNL     1     -45.972 -65.822  37.979  0.00  0.00    +0.000 A 
ATOM     18  C   UNL     1     -46.824 -63.544  38.243  0.00  0.00    +0.000 A 
ATOM     19  C   UNL     1     -45.786 -64.188  36.169  0.00  0.00    +0.000 A 
ATOM     20  C   UNL     1     -46.605 -64.828  38.742  0.00  0.00    +0.000 A 
ATOM     21  C   UNL     1     -45.574 -65.469  36.680  0.00  0.00    +0.000 A 
BRANCH  17  22
ATOM     22  N   UNL     1     -45.770 -67.130  38.486  0.00  0.00    +0.000 N 
ATOM     23  C   UNL     1     -45.163 -67.340  39.791  0.00  0.00    +0.000 C 
ATOM     24  C   UNL     1     -45.741 -68.282  37.600  0.00  0.00    +0.000 C 
ENDBRANCH  17  22
ENDBRANCH  15  16
ENDBRANCH   1  15
TORSDOF 6
ENDMDL
MODEL 9
REMARK VINA RESULT:      -5.5     31.042     33.417
REMARK  Name = Trichostatin_A.pdbqt.pdb
REMARK  6 active torsions:
REMARK  status: ('A' for Active; 'I' for Inactive)
REMARK    1  A    between atoms: C_1  and  C_15
REMARK    2  A    between atoms: C_4  and  C_6
REMARK    3  A    between atoms: C_7  and  C_10
REMARK    4  A    between atoms: N_9  and  O_12
REMARK    5  A    between atoms: C_15  and  C_16
REMARK    6  A    between atoms: C_17  and  N_22
REMARK                            x       y       z     vdW  Elec       q    Type
REMARK                         _______ _______ _______ _____ _____    ______ ____
ROOT
ATOM      1  C   UNL     1     -44.424 -65.740  25.801  0.00  0.00    +0.000 C 
ATOM      2  C   UNL     1     -42.988 -66.077  26.150  0.00  0.00    +0.000 C 
ATOM      3  C   UNL     1     -44.679 -64.388  25.468  0.00  0.00    +0.000 C 
ATOM      4  C   UNL     1     -44.966 -63.166  25.162  0.00  0.00    +0.000 C 
ATOM      5  C   UNL     1     -45.033 -62.762  23.721  0.00  0.00    +0.000 C 
ENDROOT
BRANCH   4   6
ATOM      6  C   UNL     1     -45.407 -62.270  26.163  0.00  0.00    +0.000 C 
ATOM      7  C   UNL     1     -45.784 -61.505  27.011  0.00  0.00    +0.000 C 
BRANCH   7  10
ATOM      8  O   UNL     1     -47.428 -60.306  28.108  0.00  0.00    +0.000 OA
ATOM      9  N   UNL     1     -45.280 -60.097  28.865  0.00  0.00    +0.000 N 
ATOM     10  C   UNL     1     -46.239 -60.595  28.028  0.00  0.00    +0.000 C 
ATOM     11  H   UNL     1     -44.293 -60.320  28.808  0.00  0.00    +0.000 HD
BRANCH   9  12
ATOM     12  O   UNL     1     -45.691 -59.195  29.868  0.00  0.00    +0.000 OA
ATOM     13  H   UNL     1     -46.083 -59.786  30.546  0.00  0.00    +0.000 HD
ENDBRANCH   9  12
ENDBRANCH   7  10
ENDBRANCH   4   6
BRANCH   1  15
ATOM     14  O   UNL     1     -46.009 -67.385  25.150  0.00  0.00    +0.000 OA
ATOM     15  C   UNL     1     -45.572 -66.664  26.047  0.00  0.00    +0.000 C 
BRANCH  15  16
ATOM     16  C   UNL     1     -46.197 -66.736  27.384  0.00  0.00    +0.000 A 
ATOM     17  C   UNL     1     -47.547 -66.802  29.870  0.00  0.00    +0.000 A 
ATOM     18  C   UNL     1     -46.407 -67.948  28.033  0.00  0.00    +0.000 A 
ATOM     19  C   UNL     1     -46.680 -65.559  27.950  0.00  0.00    +0.000 A 
ATOM     20  C   UNL     1     -47.062 -67.972  29.264  0.00  0.00    +0.000 A 
ATOM     21  C   UNL     1     -47.333 -65.597  29.183  0.00  0.00    +0.000 A 
BRANCH  17  22
ATOM     22  N   UNL     1     -48.196 -66.833  31.130  0.00  0.00    +0.000 N 
ATOM     23  C   UNL     1     -49.055 -67.945  31.501  0.00  0.00    +0.000 C 
ATOM     24  C   UNL     1     -48.393 -65.616  31.901  0.00  0.00    +0.000 C 
ENDBRANCH  17  22
ENDBRANCH  15  16
ENDBRANCH   1  15
TORSDOF 6
ENDMDL
