MODEL 1
REMARK VINA RESULT:      -9.4      0.000      0.000
REMARK  Name = Troglitazone.pdbqt.pdb
REMARK  4 active torsions:
REMARK  status: ('A' for Active; 'I' for Inactive)
REMARK    1  A    between atoms: C_1  and  O_2
REMARK    2  A    between atoms: C_1  and  C_18
REMARK    3  A    between atoms: O_2  and  C_3
REMARK    4  A    between atoms: C_26  and  O_32
REMARK                            x       y       z     vdW  Elec       q    Type
REMARK                         _______ _______ _______ _____ _____    ______ ____
ROOT
ATOM      1  C   UNL     1     -44.861 -61.982  41.195  0.00  0.00    +0.000 C 
ENDROOT
BRANCH   1   2
ATOM      2  C   UNL     1     -46.039 -62.274  42.029  0.00  0.00    +0.000 C 
ATOM      3  O   UNL     1     -47.013 -61.193  41.798  0.00  0.00    +0.000 OA
ATOM      4  C   UNL     1     -47.885 -60.714  42.783  0.00  0.00    +0.000 A 
ATOM      5  C   UNL     1     -47.670 -60.876  44.184  0.00  0.00    +0.000 A 
ATOM      6  C   UNL     1     -49.005 -59.980  42.339  0.00  0.00    +0.000 A 
ATOM      7  C   UNL     1     -46.505 -61.615  44.516  0.00  0.00    +0.000 C 
ATOM      8  C   UNL     1     -48.560 -60.346  45.126  0.00  0.00    +0.000 A 
ATOM      9  C   UNL     1     -45.710 -62.289  43.449  0.00  0.00    +0.000 C 
ATOM     10  C   UNL     1     -49.681 -59.634  44.672  0.00  0.00    +0.000 A 
ATOM     11  C   UNL     1     -48.308 -60.533  46.607  0.00  0.00    +0.000 C 
ATOM     12  C   UNL     1     -49.903 -59.449  43.291  0.00  0.00    +0.000 A 
ATOM     13  C   UNL     1     -51.147 -58.643  42.916  0.00  0.00    +0.000 C 
ATOM     14  C   UNL     1     -49.198 -59.769  40.843  0.00  0.00    +0.000 C 
ATOM     15  C   UNL     1     -46.727 -63.595  41.602  0.00  0.00    +0.000 C 
BRANCH  10  16
ATOM     16  O   UNL     1     -50.576 -59.099  45.584  0.00  0.00    +0.000 OA
ATOM     17  H   UNL     1     -51.284 -59.761  45.744  0.00  0.00    +0.000 HD
ENDBRANCH  10  16
ENDBRANCH   1   2
BRANCH   1  18
ATOM     18  O   UNL     1     -43.800 -61.719  40.430  0.00  0.00    +0.000 OA
BRANCH  18  19
ATOM     19  C   UNL     1     -44.088 -61.506  39.104  0.00  0.00    +0.000 C 
ATOM     20  C   UNL     1     -43.437 -60.574  38.293  0.00  0.00    +0.000 C 
ATOM     21  C   UNL     1     -43.796 -60.436  36.955  0.00  0.00    +0.000 C 
ATOM     22  C   UNL     1     -44.808 -61.231  36.424  0.00  0.00    +0.000 C 
ATOM     23  C   UNL     1     -45.462 -62.163  37.228  0.00  0.00    +0.000 C 
ATOM     24  C   UNL     1     -45.101 -62.301  38.567  0.00  0.00    +0.000 C 
ATOM     25  C   UNL     1     -45.176 -61.093  35.055  0.00  0.00    +0.000 C 
ATOM     26  C   UNL     1     -45.551 -60.955  33.700  0.00  0.00    +0.000 C 
ATOM     27  S   UNL     1     -44.456 -60.701  32.395  0.00  0.00    +0.000 S 
ATOM     28  C   UNL     1     -45.756 -60.675  31.220  0.00  0.00    +0.000 C 
ATOM     29  O   UNL     1     -45.595 -60.525  30.021  0.00  0.00    +0.000 OA
ATOM     30  N   UNL     1     -46.946 -60.851  31.847  0.00  0.00    +0.000 N 
ATOM     31  C   UNL     1     -46.940 -61.021  33.199  0.00  0.00    +0.000 C 
ATOM     32  H   UNL     1     -47.807 -60.868  31.323  0.00  0.00    +0.000 HD
ATOM     33  O   UNL     1     -47.932 -61.203  33.885  0.00  0.00    +0.000 OA
ENDBRANCH  18  19
ENDBRANCH   1  18
TORSDOF 4
ENDMDL
MODEL 2
REMARK VINA RESULT:      -7.6      4.712     10.387
REMARK  Name = Troglitazone.pdbqt.pdb
REMARK  4 active torsions:
REMARK  status: ('A' for Active; 'I' for Inactive)
REMARK    1  A    between atoms: C_1  and  O_2
REMARK    2  A    between atoms: C_1  and  C_18
REMARK    3  A    between atoms: O_2  and  C_3
REMARK    4  A    between atoms: C_26  and  O_32
REMARK                            x       y       z     vdW  Elec       q    Type
REMARK                         _______ _______ _______ _____ _____    ______ ____
ROOT
ATOM      1  C   UNL     1     -42.671 -62.947  38.508  0.00  0.00    +0.000 C 
ENDROOT
BRANCH   1   2
ATOM      2  C   UNL     1     -42.481 -62.271  37.213  0.00  0.00    +0.000 C 
ATOM      3  O   UNL     1     -41.079 -61.822  37.159  0.00  0.00    +0.000 OA
ATOM      4  C   UNL     1     -40.667 -60.652  36.510  0.00  0.00    +0.000 A 
ATOM      5  C   UNL     1     -41.533 -59.559  36.211  0.00  0.00    +0.000 A 
ATOM      6  C   UNL     1     -39.295 -60.548  36.198  0.00  0.00    +0.000 A 
ATOM      7  C   UNL     1     -42.886 -59.765  36.584  0.00  0.00    +0.000 C 
ATOM      8  C   UNL     1     -41.057 -58.399  35.588  0.00  0.00    +0.000 A 
ATOM      9  C   UNL     1     -43.336 -61.098  37.081  0.00  0.00    +0.000 C 
ATOM     10  C   UNL     1     -39.694 -58.314  35.265  0.00  0.00    +0.000 A 
ATOM     11  C   UNL     1     -41.998 -57.253  35.281  0.00  0.00    +0.000 C 
ATOM     12  C   UNL     1     -38.817 -59.378  35.567  0.00  0.00    +0.000 A 
ATOM     13  C   UNL     1     -37.353 -59.166  35.184  0.00  0.00    +0.000 C 
ATOM     14  C   UNL     1     -38.368 -61.700  36.568  0.00  0.00    +0.000 C 
ATOM     15  C   UNL     1     -42.685 -63.245  36.026  0.00  0.00    +0.000 C 
BRANCH  10  16
ATOM     16  O   UNL     1     -39.197 -57.176  34.650  0.00  0.00    +0.000 OA
ATOM     17  H   UNL     1     -39.334 -56.416  35.257  0.00  0.00    +0.000 HD
ENDBRANCH  10  16
ENDBRANCH   1   2
BRANCH   1  18
ATOM     18  O   UNL     1     -42.843 -63.549  39.685  0.00  0.00    +0.000 OA
BRANCH  18  19
ATOM     19  C   UNL     1     -43.810 -62.986  40.481  0.00  0.00    +0.000 C 
ATOM     20  C   UNL     1     -44.158 -61.634  40.465  0.00  0.00    +0.000 C 
ATOM     21  C   UNL     1     -45.160 -61.157  41.307  0.00  0.00    +0.000 C 
ATOM     22  C   UNL     1     -45.816 -62.033  42.167  0.00  0.00    +0.000 C 
ATOM     23  C   UNL     1     -45.474 -63.383  42.187  0.00  0.00    +0.000 C 
ATOM     24  C   UNL     1     -44.473 -63.859  41.344  0.00  0.00    +0.000 C 
ATOM     25  C   UNL     1     -46.842 -61.547  43.027  0.00  0.00    +0.000 C 
ATOM     26  C   UNL     1     -47.855 -61.071  43.889  0.00  0.00    +0.000 C 
ATOM     27  S   UNL     1     -49.039 -59.895  43.463  0.00  0.00    +0.000 S 
ATOM     28  C   UNL     1     -49.784 -59.972  45.048  0.00  0.00    +0.000 C 
ATOM     29  O   UNL     1     -50.758 -59.318  45.382  0.00  0.00    +0.000 OA
ATOM     30  N   UNL     1     -49.119 -60.862  45.826  0.00  0.00    +0.000 N 
ATOM     31  C   UNL     1     -48.056 -61.520  45.283  0.00  0.00    +0.000 C 
ATOM     32  H   UNL     1     -49.413 -61.039  46.774  0.00  0.00    +0.000 HD
ATOM     33  O   UNL     1     -47.381 -62.354  45.862  0.00  0.00    +0.000 OA
ENDBRANCH  18  19
ENDBRANCH   1  18
TORSDOF 4
ENDMDL
MODEL 3
REMARK VINA RESULT:      -7.6     22.151     24.463
REMARK  Name = Troglitazone.pdbqt.pdb
REMARK  4 active torsions:
REMARK  status: ('A' for Active; 'I' for Inactive)
REMARK    1  A    between atoms: C_1  and  O_2
REMARK    2  A    between atoms: C_1  and  C_18
REMARK    3  A    between atoms: O_2  and  C_3
REMARK    4  A    between atoms: C_26  and  O_32
REMARK                            x       y       z     vdW  Elec       q    Type
REMARK                         _______ _______ _______ _____ _____    ______ ____
ROOT
ATOM      1  C   UNL     1     -42.588 -40.422  48.020  0.00  0.00    +0.000 C 
ENDROOT
BRANCH   1   2
ATOM      2  C   UNL     1     -43.240 -39.173  48.449  0.00  0.00    +0.000 C 
ATOM      3  O   UNL     1     -43.942 -39.463  49.711  0.00  0.00    +0.000 OA
ATOM      4  C   UNL     1     -45.145 -38.851  50.085  0.00  0.00    +0.000 A 
ATOM      5  C   UNL     1     -46.044 -38.234  49.166  0.00  0.00    +0.000 A 
ATOM      6  C   UNL     1     -45.493 -38.914  51.451  0.00  0.00    +0.000 A 
ATOM      7  C   UNL     1     -45.601 -38.243  47.818  0.00  0.00    +0.000 C 
ATOM      8  C   UNL     1     -47.250 -37.665  49.593  0.00  0.00    +0.000 A 
ATOM      9  C   UNL     1     -44.226 -38.714  47.480  0.00  0.00    +0.000 C 
ATOM     10  C   UNL     1     -47.577 -37.717  50.957  0.00  0.00    +0.000 A 
ATOM     11  C   UNL     1     -48.186 -37.016  48.596  0.00  0.00    +0.000 C 
ATOM     12  C   UNL     1     -46.709 -38.337  51.880  0.00  0.00    +0.000 A 
ATOM     13  C   UNL     1     -47.178 -38.348  53.335  0.00  0.00    +0.000 C 
ATOM     14  C   UNL     1     -44.550 -39.619  52.417  0.00  0.00    +0.000 C 
ATOM     15  C   UNL     1     -42.203 -38.065  48.758  0.00  0.00    +0.000 C 
BRANCH  10  16
ATOM     16  O   UNL     1     -48.766 -37.163  51.405  0.00  0.00    +0.000 OA
ATOM     17  H   UNL     1     -49.144 -36.621  50.679  0.00  0.00    +0.000 HD
ENDBRANCH  10  16
ENDBRANCH   1   2
BRANCH   1  18
ATOM     18  O   UNL     1     -42.002 -41.552  47.622  0.00  0.00    +0.000 OA
BRANCH  18  19
ATOM     19  C   UNL     1     -40.862 -41.881  48.312  0.00  0.00    +0.000 C 
ATOM     20  C   UNL     1     -40.486 -41.316  49.533  0.00  0.00    +0.000 C 
ATOM     21  C   UNL     1     -39.311 -41.721  50.162  0.00  0.00    +0.000 C 
ATOM     22  C   UNL     1     -38.509 -42.692  49.569  0.00  0.00    +0.000 C 
ATOM     23  C   UNL     1     -38.877 -43.259  48.351  0.00  0.00    +0.000 C 
ATOM     24  C   UNL     1     -40.054 -42.854  47.725  0.00  0.00    +0.000 C 
ATOM     25  C   UNL     1     -37.307 -43.108  50.211  0.00  0.00    +0.000 C 
ATOM     26  C   UNL     1     -36.110 -43.520  50.839  0.00  0.00    +0.000 C 
ATOM     27  S   UNL     1     -35.917 -43.756  52.534  0.00  0.00    +0.000 S 
ATOM     28  C   UNL     1     -34.241 -44.231  52.345  0.00  0.00    +0.000 C 
ATOM     29  O   UNL     1     -33.510 -44.553  53.266  0.00  0.00    +0.000 OA
ATOM     30  N   UNL     1     -33.895 -44.189  51.034  0.00  0.00    +0.000 N 
ATOM     31  C   UNL     1     -34.848 -43.820  50.131  0.00  0.00    +0.000 C 
ATOM     32  H   UNL     1     -32.964 -44.436  50.737  0.00  0.00    +0.000 HD
ATOM     33  O   UNL     1     -34.679 -43.753  48.925  0.00  0.00    +0.000 OA
ENDBRANCH  18  19
ENDBRANCH   1  18
TORSDOF 4
ENDMDL
MODEL 4
REMARK VINA RESULT:      -7.5      3.743      4.689
REMARK  Name = Troglitazone.pdbqt.pdb
REMARK  4 active torsions:
REMARK  status: ('A' for Active; 'I' for Inactive)
REMARK    1  A    between atoms: C_1  and  O_2
REMARK    2  A    between atoms: C_1  and  C_18
REMARK    3  A    between atoms: O_2  and  C_3
REMARK    4  A    between atoms: C_26  and  O_32
REMARK                            x       y       z     vdW  Elec       q    Type
REMARK                         _______ _______ _______ _____ _____    ______ ____
ROOT
ATOM      1  C   UNL     1     -44.062 -64.111  38.555  0.00  0.00    +0.000 C 
ENDROOT
BRANCH   1   2
ATOM      2  C   UNL     1     -44.944 -64.430  39.690  0.00  0.00    +0.000 C 
ATOM      3  O   UNL     1     -45.731 -63.219  39.981  0.00  0.00    +0.000 OA
ATOM      4  C   UNL     1     -46.141 -62.854  41.269  0.00  0.00    +0.000 A 
ATOM      5  C   UNL     1     -45.523 -63.323  42.466  0.00  0.00    +0.000 A 
ATOM      6  C   UNL     1     -47.194 -61.919  41.360  0.00  0.00    +0.000 A 
ATOM      7  C   UNL     1     -44.465 -64.246  42.255  0.00  0.00    +0.000 C 
ATOM      8  C   UNL     1     -45.956 -62.899  43.727  0.00  0.00    +0.000 A 
ATOM      9  C   UNL     1     -44.187 -64.774  40.887  0.00  0.00    +0.000 C 
ATOM     10  C   UNL     1     -47.017 -61.983  43.807  0.00  0.00    +0.000 A 
ATOM     11  C   UNL     1     -45.282 -63.414  44.982  0.00  0.00    +0.000 C 
ATOM     12  C   UNL     1     -47.631 -61.494  42.635  0.00  0.00    +0.000 A 
ATOM     13  C   UNL     1     -48.764 -60.489  42.843  0.00  0.00    +0.000 C 
ATOM     14  C   UNL     1     -47.815 -61.385  40.076  0.00  0.00    +0.000 C 
ATOM     15  C   UNL     1     -45.957 -65.545  39.331  0.00  0.00    +0.000 C 
BRANCH  10  16
ATOM     16  O   UNL     1     -47.463 -61.546  45.043  0.00  0.00    +0.000 OA
ATOM     17  H   UNL     1     -46.914 -61.975  45.736  0.00  0.00    +0.000 HD
ENDBRANCH  10  16
ENDBRANCH   1   2
BRANCH   1  18
ATOM     18  O   UNL     1     -43.272 -63.818  37.521  0.00  0.00    +0.000 OA
BRANCH  18  19
ATOM     19  C   UNL     1     -43.241 -62.487  37.183  0.00  0.00    +0.000 C 
ATOM     20  C   UNL     1     -44.342 -61.764  36.721  0.00  0.00    +0.000 C 
ATOM     21  C   UNL     1     -44.213 -60.412  36.409  0.00  0.00    +0.000 C 
ATOM     22  C   UNL     1     -42.981 -59.782  36.560  0.00  0.00    +0.000 C 
ATOM     23  C   UNL     1     -41.878 -60.498  37.021  0.00  0.00    +0.000 C 
ATOM     24  C   UNL     1     -42.010 -61.850  37.333  0.00  0.00    +0.000 C 
ATOM     25  C   UNL     1     -42.847 -58.400  36.244  0.00  0.00    +0.000 C 
ATOM     26  C   UNL     1     -42.706 -57.031  35.924  0.00  0.00    +0.000 C 
ATOM     27  S   UNL     1     -43.874 -55.812  36.268  0.00  0.00    +0.000 S 
ATOM     28  C   UNL     1     -42.872 -54.558  35.565  0.00  0.00    +0.000 C 
ATOM     29  O   UNL     1     -43.181 -53.380  35.514  0.00  0.00    +0.000 OA
ATOM     30  N   UNL     1     -41.717 -55.098  35.100  0.00  0.00    +0.000 N 
ATOM     31  C   UNL     1     -41.528 -56.439  35.256  0.00  0.00    +0.000 C 
ATOM     32  H   UNL     1     -41.016 -54.519  34.665  0.00  0.00    +0.000 HD
ATOM     33  O   UNL     1     -40.534 -57.050  34.899  0.00  0.00    +0.000 OA
ENDBRANCH  18  19
ENDBRANCH   1  18
TORSDOF 4
ENDMDL
MODEL 5
REMARK VINA RESULT:      -7.3     21.911     24.012
REMARK  Name = Troglitazone.pdbqt.pdb
REMARK  4 active torsions:
REMARK  status: ('A' for Active; 'I' for Inactive)
REMARK    1  A    between atoms: C_1  and  O_2
REMARK    2  A    between atoms: C_1  and  C_18
REMARK    3  A    between atoms: O_2  and  C_3
REMARK    4  A    between atoms: C_26  and  O_32
REMARK                            x       y       z     vdW  Elec       q    Type
REMARK                         _______ _______ _______ _____ _____    ______ ____
ROOT
ATOM      1  C   UNL     1     -34.955 -45.644  50.575  0.00  0.00    +0.000 C 
ENDROOT
BRANCH   1   2
ATOM      2  C   UNL     1     -35.946 -44.699  51.116  0.00  0.00    +0.000 C 
ATOM      3  O   UNL     1     -36.752 -44.218  49.980  0.00  0.00    +0.000 OA
ATOM      4  C   UNL     1     -37.286 -42.926  49.903  0.00  0.00    +0.000 A 
ATOM      5  C   UNL     1     -36.791 -41.814  50.646  0.00  0.00    +0.000 A 
ATOM      6  C   UNL     1     -38.338 -42.726  48.984  0.00  0.00    +0.000 A 
ATOM      7  C   UNL     1     -35.722 -42.126  51.525  0.00  0.00    +0.000 C 
ATOM      8  C   UNL     1     -37.344 -40.535  50.504  0.00  0.00    +0.000 A 
ATOM      9  C   UNL     1     -35.313 -43.544  51.740  0.00  0.00    +0.000 C 
ATOM     10  C   UNL     1     -38.403 -40.352  49.601  0.00  0.00    +0.000 A 
ATOM     11  C   UNL     1     -36.800 -39.372  51.305  0.00  0.00    +0.000 C 
ATOM     12  C   UNL     1     -38.897 -41.436  48.845  0.00  0.00    +0.000 A 
ATOM     13  C   UNL     1     -40.039 -41.115  47.882  0.00  0.00    +0.000 C 
ATOM     14  C   UNL     1     -38.826 -43.910  48.158  0.00  0.00    +0.000 C 
ATOM     15  C   UNL     1     -36.924 -45.396  52.094  0.00  0.00    +0.000 C 
BRANCH  10  16
ATOM     16  O   UNL     1     -38.967 -39.097  49.441  0.00  0.00    +0.000 OA
ATOM     17  H   UNL     1     -39.833 -39.206  48.991  0.00  0.00    +0.000 HD
ENDBRANCH  10  16
ENDBRANCH   1   2
BRANCH   1  18
ATOM     18  O   UNL     1     -34.054 -46.503  50.095  0.00  0.00    +0.000 OA
BRANCH  18  19
ATOM     19  C   UNL     1     -33.638 -47.457  50.990  0.00  0.00    +0.000 C 
ATOM     20  C   UNL     1     -34.065 -47.535  52.317  0.00  0.00    +0.000 C 
ATOM     21  C   UNL     1     -33.590 -48.546  53.150  0.00  0.00    +0.000 C 
ATOM     22  C   UNL     1     -32.685 -49.480  52.655  0.00  0.00    +0.000 C 
ATOM     23  C   UNL     1     -32.254 -49.408  51.332  0.00  0.00    +0.000 C 
ATOM     24  C   UNL     1     -32.731 -48.397  50.501  0.00  0.00    +0.000 C 
ATOM     25  C   UNL     1     -32.198 -50.515  53.504  0.00  0.00    +0.000 C 
ATOM     26  C   UNL     1     -31.706 -51.540  54.343  0.00  0.00    +0.000 C 
ATOM     27  S   UNL     1     -32.644 -52.400  55.503  0.00  0.00    +0.000 S 
ATOM     28  C   UNL     1     -31.274 -53.380  55.985  0.00  0.00    +0.000 C 
ATOM     29  O   UNL     1     -31.318 -54.252  56.836  0.00  0.00    +0.000 OA
ATOM     30  N   UNL     1     -30.178 -53.024  55.269  0.00  0.00    +0.000 N 
ATOM     31  C   UNL     1     -30.313 -52.034  54.341  0.00  0.00    +0.000 C 
ATOM     32  H   UNL     1     -29.295 -53.488  55.412  0.00  0.00    +0.000 HD
ATOM     33  O   UNL     1     -29.418 -51.626  53.621  0.00  0.00    +0.000 OA
ENDBRANCH  18  19
ENDBRANCH   1  18
TORSDOF 4
ENDMDL
MODEL 6
REMARK VINA RESULT:      -7.3      4.789      5.390
REMARK  Name = Troglitazone.pdbqt.pdb
REMARK  4 active torsions:
REMARK  status: ('A' for Active; 'I' for Inactive)
REMARK    1  A    between atoms: C_1  and  O_2
REMARK    2  A    between atoms: C_1  and  C_18
REMARK    3  A    between atoms: O_2  and  C_3
REMARK    4  A    between atoms: C_26  and  O_32
REMARK                            x       y       z     vdW  Elec       q    Type
REMARK                         _______ _______ _______ _____ _____    ______ ____
ROOT
ATOM      1  C   UNL     1     -44.052 -65.202  38.738  0.00  0.00    +0.000 C 
ENDROOT
BRANCH   1   2
ATOM      2  C   UNL     1     -44.979 -65.172  39.881  0.00  0.00    +0.000 C 
ATOM      3  O   UNL     1     -45.652 -63.861  39.860  0.00  0.00    +0.000 OA
ATOM      4  C   UNL     1     -46.048 -63.176  41.015  0.00  0.00    +0.000 A 
ATOM      5  C   UNL     1     -45.498 -63.412  42.309  0.00  0.00    +0.000 A 
ATOM      6  C   UNL     1     -47.008 -62.156  40.851  0.00  0.00    +0.000 A 
ATOM      7  C   UNL     1     -44.529 -64.448  42.354  0.00  0.00    +0.000 C 
ATOM      8  C   UNL     1     -45.910 -62.673  43.425  0.00  0.00    +0.000 A 
ATOM      9  C   UNL     1     -44.280 -65.298  41.153  0.00  0.00    +0.000 C 
ATOM     10  C   UNL     1     -46.880 -61.673  43.253  0.00  0.00    +0.000 A 
ATOM     11  C   UNL     1     -45.309 -62.944  44.788  0.00  0.00    +0.000 C 
ATOM     12  C   UNL     1     -47.425 -61.413  41.978  0.00  0.00    +0.000 A 
ATOM     13  C   UNL     1     -48.460 -60.290  41.910  0.00  0.00    +0.000 C 
ATOM     14  C   UNL     1     -47.554 -61.877  39.456  0.00  0.00    +0.000 C 
ATOM     15  C   UNL     1     -46.087 -66.245  39.745  0.00  0.00    +0.000 C 
BRANCH  10  16
ATOM     16  O   UNL     1     -47.303 -60.926  44.341  0.00  0.00    +0.000 OA
ATOM     17  H   UNL     1     -47.313 -61.511  45.129  0.00  0.00    +0.000 HD
ENDBRANCH  10  16
ENDBRANCH   1   2
BRANCH   1  18
ATOM     18  O   UNL     1     -43.220 -65.229  37.695  0.00  0.00    +0.000 OA
BRANCH  18  19
ATOM     19  C   UNL     1     -43.785 -65.668  36.523  0.00  0.00    +0.000 C 
ATOM     20  C   UNL     1     -43.881 -64.906  35.358  0.00  0.00    +0.000 C 
ATOM     21  C   UNL     1     -44.466 -65.442  34.213  0.00  0.00    +0.000 C 
ATOM     22  C   UNL     1     -44.959 -66.744  34.234  0.00  0.00    +0.000 C 
ATOM     23  C   UNL     1     -44.867 -67.510  35.394  0.00  0.00    +0.000 C 
ATOM     24  C   UNL     1     -44.280 -66.972  36.537  0.00  0.00    +0.000 C 
ATOM     25  C   UNL     1     -45.556 -67.295  33.065  0.00  0.00    +0.000 C 
ATOM     26  C   UNL     1     -46.158 -67.845  31.910  0.00  0.00    +0.000 C 
ATOM     27  S   UNL     1     -45.600 -67.606  30.299  0.00  0.00    +0.000 S 
ATOM     28  C   UNL     1     -46.876 -68.607  29.636  0.00  0.00    +0.000 C 
ATOM     29  O   UNL     1     -47.017 -68.845  28.448  0.00  0.00    +0.000 OA
ATOM     30  N   UNL     1     -47.665 -69.071  30.638  0.00  0.00    +0.000 N 
ATOM     31  C   UNL     1     -47.351 -68.718  31.917  0.00  0.00    +0.000 C 
ATOM     32  H   UNL     1     -48.451 -69.671  30.441  0.00  0.00    +0.000 HD
ATOM     33  O   UNL     1     -47.963 -69.074  32.910  0.00  0.00    +0.000 OA
ENDBRANCH  18  19
ENDBRANCH   1  18
TORSDOF 4
ENDMDL
MODEL 7
REMARK VINA RESULT:      -7.2      5.354     10.176
REMARK  Name = Troglitazone.pdbqt.pdb
REMARK  4 active torsions:
REMARK  status: ('A' for Active; 'I' for Inactive)
REMARK    1  A    between atoms: C_1  and  O_2
REMARK    2  A    between atoms: C_1  and  C_18
REMARK    3  A    between atoms: O_2  and  C_3
REMARK    4  A    between atoms: C_26  and  O_32
REMARK                            x       y       z     vdW  Elec       q    Type
REMARK                         _______ _______ _______ _____ _____    ______ ____
ROOT
ATOM      1  C   UNL     1     -42.685 -60.184  34.509  0.00  0.00    +0.000 C 
ENDROOT
BRANCH   1   2
ATOM      2  C   UNL     1     -42.726 -58.828  33.935  0.00  0.00    +0.000 C 
ATOM      3  O   UNL     1     -41.650 -58.054  34.578  0.00  0.00    +0.000 OA
ATOM      4  C   UNL     1     -41.739 -56.682  34.846  0.00  0.00    +0.000 A 
ATOM      5  C   UNL     1     -42.970 -55.968  34.944  0.00  0.00    +0.000 A 
ATOM      6  C   UNL     1     -40.528 -56.002  35.089  0.00  0.00    +0.000 A 
ATOM      7  C   UNL     1     -44.125 -56.755  34.698  0.00  0.00    +0.000 C 
ATOM      8  C   UNL     1     -43.000 -54.601  35.247  0.00  0.00    +0.000 A 
ATOM      9  C   UNL     1     -43.991 -58.159  34.211  0.00  0.00    +0.000 C 
ATOM     10  C   UNL     1     -41.787 -53.930  35.468  0.00  0.00    +0.000 A 
ATOM     11  C   UNL     1     -44.320 -53.867  35.345  0.00  0.00    +0.000 C 
ATOM     12  C   UNL     1     -40.560 -54.622  35.392  0.00  0.00    +0.000 A 
ATOM     13  C   UNL     1     -39.306 -53.792  35.668  0.00  0.00    +0.000 C 
ATOM     14  C   UNL     1     -39.222 -56.784  35.032  0.00  0.00    +0.000 C 
ATOM     15  C   UNL     1     -42.422 -58.842  32.417  0.00  0.00    +0.000 C 
BRANCH  10  16
ATOM     16  O   UNL     1     -41.789 -52.579  35.772  0.00  0.00    +0.000 OA
ATOM     17  H   UNL     1     -42.398 -52.126  35.149  0.00  0.00    +0.000 HD
ENDBRANCH  10  16
ENDBRANCH   1   2
BRANCH   1  18
ATOM     18  O   UNL     1     -42.659 -61.413  35.027  0.00  0.00    +0.000 OA
BRANCH  18  19
ATOM     19  C   UNL     1     -43.131 -61.503  36.313  0.00  0.00    +0.000 C 
ATOM     20  C   UNL     1     -43.142 -60.447  37.227  0.00  0.00    +0.000 C 
ATOM     21  C   UNL     1     -43.649 -60.635  38.510  0.00  0.00    +0.000 C 
ATOM     22  C   UNL     1     -44.146 -61.881  38.883  0.00  0.00    +0.000 C 
ATOM     23  C   UNL     1     -44.137 -62.939  37.976  0.00  0.00    +0.000 C 
ATOM     24  C   UNL     1     -43.631 -62.749  36.692  0.00  0.00    +0.000 C 
ATOM     25  C   UNL     1     -44.666 -62.074  40.194  0.00  0.00    +0.000 C 
ATOM     26  C   UNL     1     -45.176 -62.275  41.497  0.00  0.00    +0.000 C 
ATOM     27  S   UNL     1     -46.131 -61.137  42.368  0.00  0.00    +0.000 S 
ATOM     28  C   UNL     1     -46.271 -62.208  43.747  0.00  0.00    +0.000 C 
ATOM     29  O   UNL     1     -46.889 -61.942  44.764  0.00  0.00    +0.000 OA
ATOM     30  N   UNL     1     -45.599 -63.362  43.505  0.00  0.00    +0.000 N 
ATOM     31  C   UNL     1     -44.974 -63.499  42.301  0.00  0.00    +0.000 C 
ATOM     32  H   UNL     1     -45.576 -64.099  44.191  0.00  0.00    +0.000 HD
ATOM     33  O   UNL     1     -44.349 -64.484  41.947  0.00  0.00    +0.000 OA
ENDBRANCH  18  19
ENDBRANCH   1  18
TORSDOF 4
ENDMDL
MODEL 8
REMARK VINA RESULT:      -7.1      3.634      6.641
REMARK  Name = Troglitazone.pdbqt.pdb
REMARK  4 active torsions:
REMARK  status: ('A' for Active; 'I' for Inactive)
REMARK    1  A    between atoms: C_1  and  O_2
REMARK    2  A    between atoms: C_1  and  C_18
REMARK    3  A    between atoms: O_2  and  C_3
REMARK    4  A    between atoms: C_26  and  O_32
REMARK                            x       y       z     vdW  Elec       q    Type
REMARK                         _______ _______ _______ _____ _____    ______ ____
ROOT
ATOM      1  C   UNL     1     -47.295 -62.842  35.371  0.00  0.00    +0.000 C 
ENDROOT
BRANCH   1   2
ATOM      2  C   UNL     1     -46.589 -62.327  36.557  0.00  0.00    +0.000 C 
ATOM      3  O   UNL     1     -45.734 -63.417  37.059  0.00  0.00    +0.000 OA
ATOM      4  C   UNL     1     -45.449 -63.613  38.416  0.00  0.00    +0.000 A 
ATOM      5  C   UNL     1     -46.247 -63.100  39.481  0.00  0.00    +0.000 A 
ATOM      6  C   UNL     1     -44.332 -64.420  38.721  0.00  0.00    +0.000 A 
ATOM      7  C   UNL     1     -47.353 -62.317  39.058  0.00  0.00    +0.000 C 
ATOM      8  C   UNL     1     -45.931 -63.355  40.820  0.00  0.00    +0.000 A 
ATOM      9  C   UNL     1     -47.512 -61.953  37.620  0.00  0.00    +0.000 C 
ATOM     10  C   UNL     1     -44.807 -64.144  41.112  0.00  0.00    +0.000 A 
ATOM     11  C   UNL     1     -46.796 -62.798  41.931  0.00  0.00    +0.000 C 
ATOM     12  C   UNL     1     -44.014 -64.674  40.074  0.00  0.00    +0.000 A 
ATOM     13  C   UNL     1     -42.826 -65.532  40.511  0.00  0.00    +0.000 C 
ATOM     14  C   UNL     1     -43.515 -65.006  37.577  0.00  0.00    +0.000 C 
ATOM     15  C   UNL     1     -45.648 -61.152  36.195  0.00  0.00    +0.000 C 
BRANCH  10  16
ATOM     16  O   UNL     1     -44.474 -64.413  42.430  0.00  0.00    +0.000 OA
ATOM     17  H   UNL     1     -44.934 -65.238  42.699  0.00  0.00    +0.000 HD
ENDBRANCH  10  16
ENDBRANCH   1   2
BRANCH   1  18
ATOM     18  O   UNL     1     -47.936 -63.298  34.294  0.00  0.00    +0.000 OA
BRANCH  18  19
ATOM     19  C   UNL     1     -47.436 -62.849  33.097  0.00  0.00    +0.000 C 
ATOM     20  C   UNL     1     -46.822 -63.662  32.142  0.00  0.00    +0.000 C 
ATOM     21  C   UNL     1     -46.351 -63.114  30.951  0.00  0.00    +0.000 C 
ATOM     22  C   UNL     1     -46.493 -61.750  30.714  0.00  0.00    +0.000 C 
ATOM     23  C   UNL     1     -47.104 -60.933  31.663  0.00  0.00    +0.000 C 
ATOM     24  C   UNL     1     -47.576 -61.483  32.853  0.00  0.00    +0.000 C 
ATOM     25  C   UNL     1     -46.014 -61.187  29.496  0.00  0.00    +0.000 C 
ATOM     26  C   UNL     1     -45.533 -60.621  28.294  0.00  0.00    +0.000 C 
ATOM     27  S   UNL     1     -45.652 -61.357  26.742  0.00  0.00    +0.000 S 
ATOM     28  C   UNL     1     -44.857 -60.004  25.964  0.00  0.00    +0.000 C 
ATOM     29  O   UNL     1     -44.640 -59.930  24.766  0.00  0.00    +0.000 OA
ATOM     30  N   UNL     1     -44.531 -59.067  26.890  0.00  0.00    +0.000 N 
ATOM     31  C   UNL     1     -44.866 -59.307  28.189  0.00  0.00    +0.000 C 
ATOM     32  H   UNL     1     -44.069 -58.213  26.620  0.00  0.00    +0.000 HD
ATOM     33  O   UNL     1     -44.648 -58.547  29.118  0.00  0.00    +0.000 OA
ENDBRANCH  18  19
ENDBRANCH   1  18
TORSDOF 4
ENDMDL
MODEL 9
REMARK VINA RESULT:      -7.0      6.178     10.682
REMARK  Name = Troglitazone.pdbqt.pdb
REMARK  4 active torsions:
REMARK  status: ('A' for Active; 'I' for Inactive)
REMARK    1  A    between atoms: C_1  and  O_2
REMARK    2  A    between atoms: C_1  and  C_18
REMARK    3  A    between atoms: O_2  and  C_3
REMARK    4  A    between atoms: C_26  and  O_32
REMARK                            x       y       z     vdW  Elec       q    Type
REMARK                         _______ _______ _______ _____ _____    ______ ____
ROOT
ATOM      1  C   UNL     1     -44.533 -57.218  35.269  0.00  0.00    +0.000 C 
ENDROOT
BRANCH   1   2
ATOM      2  C   UNL     1     -43.609 -56.103  35.537  0.00  0.00    +0.000 C 
ATOM      3  O   UNL     1     -43.742 -55.152  34.420  0.00  0.00    +0.000 OA
ATOM      4  C   UNL     1     -42.680 -54.381  33.930  0.00  0.00    +0.000 A 
ATOM      5  C   UNL     1     -41.305 -54.705  34.123  0.00  0.00    +0.000 A 
ATOM      6  C   UNL     1     -43.018 -53.255  33.151  0.00  0.00    +0.000 A 
ATOM      7  C   UNL     1     -41.082 -55.867  34.907  0.00  0.00    +0.000 C 
ATOM      8  C   UNL     1     -40.284 -53.915  33.582  0.00  0.00    +0.000 A 
ATOM      9  C   UNL     1     -42.222 -56.547  35.588  0.00  0.00    +0.000 C 
ATOM     10  C   UNL     1     -40.632 -52.785  32.825  0.00  0.00    +0.000 A 
ATOM     11  C   UNL     1     -38.832 -54.281  33.803  0.00  0.00    +0.000 C 
ATOM     12  C   UNL     1     -41.987 -52.457  32.608  0.00  0.00    +0.000 A 
ATOM     13  C   UNL     1     -42.245 -51.215  31.754  0.00  0.00    +0.000 C 
ATOM     14  C   UNL     1     -44.490 -52.945  32.907  0.00  0.00    +0.000 C 
ATOM     15  C   UNL     1     -43.997 -55.337  36.826  0.00  0.00    +0.000 C 
BRANCH  10  16
ATOM     16  O   UNL     1     -39.641 -51.988  32.276  0.00  0.00    +0.000 OA
ATOM     17  H   UNL     1     -38.785 -52.238  32.685  0.00  0.00    +0.000 HD
ENDBRANCH  10  16
ENDBRANCH   1   2
BRANCH   1  18
ATOM     18  O   UNL     1     -45.365 -58.234  35.032  0.00  0.00    +0.000 OA
BRANCH  18  19
ATOM     19  C   UNL     1     -45.141 -59.348  35.802  0.00  0.00    +0.000 C 
ATOM     20  C   UNL     1     -43.921 -59.660  36.406  0.00  0.00    +0.000 C 
ATOM     21  C   UNL     1     -43.794 -60.813  37.177  0.00  0.00    +0.000 C 
ATOM     22  C   UNL     1     -44.888 -61.658  37.345  0.00  0.00    +0.000 C 
ATOM     23  C   UNL     1     -46.108 -61.352  36.745  0.00  0.00    +0.000 C 
ATOM     24  C   UNL     1     -46.233 -60.198  35.975  0.00  0.00    +0.000 C 
ATOM     25  C   UNL     1     -44.760 -62.836  38.134  0.00  0.00    +0.000 C 
ATOM     26  C   UNL     1     -44.638 -64.012  38.908  0.00  0.00    +0.000 C 
ATOM     27  S   UNL     1     -43.752 -64.135  40.380  0.00  0.00    +0.000 S 
ATOM     28  C   UNL     1     -44.172 -65.825  40.570  0.00  0.00    +0.000 C 
ATOM     29  O   UNL     1     -43.815 -66.520  41.506  0.00  0.00    +0.000 OA
ATOM     30  N   UNL     1     -44.946 -66.228  39.532  0.00  0.00    +0.000 N 
ATOM     31  C   UNL     1     -45.264 -65.309  38.576  0.00  0.00    +0.000 C 
ATOM     32  H   UNL     1     -45.287 -67.175  39.478  0.00  0.00    +0.000 HD
ATOM     33  O   UNL     1     -45.961 -65.529  37.600  0.00  0.00    +0.000 OA
ENDBRANCH  18  19
ENDBRANCH   1  18
TORSDOF 4
ENDMDL
