MODEL 1
REMARK VINA RESULT:      -7.2      0.000      0.000
REMARK  Name = 
REMARK  19 active torsions:
REMARK  status: ('A' for Active; 'I' for Inactive)
REMARK    1  A    between atoms: O_1  and  C_20
REMARK    2  A    between atoms: O_1  and  C_36
REMARK    3  A    between atoms: O_2  and  C_18
REMARK    4  A    between atoms: O_3  and  C_28
REMARK    5  A    between atoms: O_3  and  C_42
REMARK    6  A    between atoms: O_5  and  C_34
REMARK    7  A    between atoms: O_5  and  C_50
REMARK    8  A    between atoms: O_7  and  C_40
REMARK    9  A    between atoms: O_7  and  C_56
REMARK   10  A    between atoms: O_9  and  C_46
REMARK   11  A    between atoms: N_11  and  C_30
REMARK   12  A    between atoms: C_17  and  C_23
REMARK   13  A    between atoms: C_18  and  C_28
REMARK   14  A    between atoms: C_23  and  C_32
REMARK   15  A    between atoms: C_33  and  C_35
REMARK   16  A    between atoms: C_35  and  C_40
REMARK   17  A    between atoms: C_36  and  C_41
REMARK   18  A    between atoms: C_46  and  C_53
REMARK   19  A    between atoms: C_53  and  C_57
REMARK                            x       y       z     vdW  Elec       q    Type
REMARK                         _______ _______ _______ _____ _____    ______ ____
ROOT
ATOM      1  N   UNL     1     -37.100 -40.800  50.838  0.00  0.00    +0.000 NA
ATOM      2  N   UNL     1     -40.168 -41.632  47.277  0.00  0.00    +0.000 N 
ATOM      3  C   UNL     1     -38.585 -41.243  49.095  0.00  0.00    +0.000 C 
ATOM      4  C   UNL     1     -37.746 -41.948  50.175  0.00  0.00    +0.000 C 
ATOM      5  C   UNL     1     -39.020 -42.246  48.009  0.00  0.00    +0.000 C 
ATOM      6  C   UNL     1     -36.791 -43.094  49.601  0.00  0.00    +0.000 C 
ATOM      7  C   UNL     1     -37.884 -42.885  47.192  0.00  0.00    +0.000 C 
ATOM      8  C   UNL     1     -37.773 -39.991  48.713  0.00  0.00    +0.000 C 
ATOM      9  C   UNL     1     -36.566 -42.992  48.028  0.00  0.00    +0.000 C 
ATOM     10  C   UNL     1     -39.978 -40.761  49.455  0.00  0.00    +0.000 A 
ATOM     11  C   UNL     1     -36.724 -39.835  49.811  0.00  0.00    +0.000 C 
ATOM     12  C   UNL     1     -40.822 -40.957  48.354  0.00  0.00    +0.000 A 
ATOM     13  C   UNL     1     -35.414 -43.064  50.268  0.00  0.00    +0.000 C 
ATOM     14  C   UNL     1     -36.022 -41.148  51.750  0.00  0.00    +0.000 C 
ATOM     15  C   UNL     1     -35.090 -42.197  51.237  0.00  0.00    +0.000 C 
ATOM     16  C   UNL     1     -40.423 -40.158  50.627  0.00  0.00    +0.000 A 
ATOM     17  C   UNL     1     -41.031 -42.524  46.505  0.00  0.00    +0.000 C 
ATOM     18  C   UNL     1     -42.127 -40.506  48.406  0.00  0.00    +0.000 A 
ATOM     19  C   UNL     1     -41.749 -39.692  50.714  0.00  0.00    +0.000 A 
ATOM     20  C   UNL     1     -42.585 -39.871  49.572  0.00  0.00    +0.000 A 
ENDROOT
BRANCH  19  23
ATOM     21  N   UNL     1     -43.166 -37.052  55.773  0.00  0.00    +0.000 NA
ATOM     22  N   UNL     1     -42.277 -36.881  50.580  0.00  0.00    +0.000 N 
ATOM     23  C   UNL     1     -42.301 -38.975  52.011  0.00  0.00    +0.000 C 
ATOM     24  C   UNL     1     -41.159 -38.814  53.116  0.00  0.00    +0.000 C 
ATOM     25  C   UNL     1     -42.819 -37.536  51.674  0.00  0.00    +0.000 A 
ATOM     26  C   UNL     1     -41.443 -37.841  54.272  0.00  0.00    +0.000 C 
ATOM     27  C   UNL     1     -40.264 -37.602  55.215  0.00  0.00    +0.000 C 
ATOM     28  C   UNL     1     -42.617 -38.245  55.152  0.00  0.00    +0.000 C 
ATOM     29  C   UNL     1     -43.692 -36.617  52.284  0.00  0.00    +0.000 A 
ATOM     30  C   UNL     1     -40.622 -36.578  56.333  0.00  0.00    +0.000 C 
ATOM     31  C   UNL     1     -42.165 -36.393  56.640  0.00  0.00    +0.000 C 
ATOM     32  C   UNL     1     -44.514 -36.709  53.559  0.00  0.00    +0.000 C 
ATOM     33  C   UNL     1     -43.808 -36.115  54.816  0.00  0.00    +0.000 C 
ATOM     34  C   UNL     1     -43.678 -35.421  51.474  0.00  0.00    +0.000 A 
ATOM     35  C   UNL     1     -42.791 -35.624  50.427  0.00  0.00    +0.000 A 
ATOM     36  C   UNL     1     -44.335 -34.173  51.554  0.00  0.00    +0.000 A 
ATOM     37  C   UNL     1     -42.526 -34.658  49.448  0.00  0.00    +0.000 A 
ATOM     38  C   UNL     1     -44.086 -33.193  50.586  0.00  0.00    +0.000 A 
ATOM     39  C   UNL     1     -43.194 -33.435  49.547  0.00  0.00    +0.000 A 
ATOM     40  H   UNL     1     -41.597 -37.285  49.949  0.00  0.00    +0.000 HD
BRANCH  23  42
ATOM     41  O   UNL     1     -44.637 -39.652  52.610  0.00  0.00    +0.000 OA
ATOM     42  C   UNL     1     -43.442 -39.908  52.537  0.00  0.00    +0.000 C 
BRANCH  42  43
ATOM     43  O   UNL     1     -42.919 -41.127  52.901  0.00  0.00    +0.000 OA
ATOM     44  C   UNL     1     -43.702 -42.242  52.477  0.00  0.00    +0.000 C 
ENDBRANCH  42  43
ENDBRANCH  23  42
BRANCH  30  45
ATOM     45  O   UNL     1     -40.006 -37.099  57.538  0.00  0.00    +0.000 OA
ATOM     46  H   UNL     1     -39.614 -36.344  58.013  0.00  0.00    +0.000 HD
ENDBRANCH  30  45
BRANCH  30  47
ATOM     47  C   UNL     1     -39.912 -35.223  56.111  0.00  0.00    +0.000 C 
ATOM     48  C   UNL     1     -40.510 -34.309  55.055  0.00  0.00    +0.000 C 
ENDBRANCH  30  47
ENDBRANCH  19  23
BRANCH   7  49
ATOM     49  O   UNL     1     -38.314 -44.262  46.939  0.00  0.00    +0.000 OA
ATOM     50  H   UNL     1     -38.977 -44.469  47.630  0.00  0.00    +0.000 HD
ENDBRANCH   7  49
BRANCH   7  52
ATOM     51  O   UNL     1     -37.294 -41.031  45.650  0.00  0.00    +0.000 OA
ATOM     52  C   UNL     1     -37.667 -42.182  45.829  0.00  0.00    +0.000 C 
BRANCH  52  53
ATOM     53  O   UNL     1     -37.881 -43.078  44.809  0.00  0.00    +0.000 OA
ATOM     54  C   UNL     1     -37.509 -42.589  43.520  0.00  0.00    +0.000 C 
ENDBRANCH  52  53
ENDBRANCH   7  52
BRANCH  20  55
ATOM     55  O   UNL     1     -43.887 -39.453  49.675  0.00  0.00    +0.000 OA
ATOM     56  C   UNL     1     -44.758 -39.918  48.648  0.00  0.00    +0.000 C 
ENDBRANCH  20  55
BRANCH   6  57
ATOM     57  C   UNL     1     -37.403 -44.506  49.927  0.00  0.00    +0.000 C 
ATOM     58  C   UNL     1     -37.393 -44.932  51.396  0.00  0.00    +0.000 C 
ENDBRANCH   6  57
BRANCH   9  59
ATOM     59  O   UNL     1     -35.667 -41.887  47.770  0.00  0.00    +0.000 OA
BRANCH  59  61
ATOM     60  O   UNL     1     -33.922 -43.286  47.273  0.00  0.00    +0.000 OA
ATOM     61  C   UNL     1     -34.453 -42.185  47.234  0.00  0.00    +0.000 C 
ATOM     62  C   UNL     1     -33.877 -40.979  46.559  0.00  0.00    +0.000 C 
ENDBRANCH  59  61
ENDBRANCH   9  59
TORSDOF 12
ENDMDL
MODEL 2
REMARK VINA RESULT:      -6.7     22.207     27.236
REMARK  Name = 
REMARK  19 active torsions:
REMARK  status: ('A' for Active; 'I' for Inactive)
REMARK    1  A    between atoms: O_1  and  C_20
REMARK    2  A    between atoms: O_1  and  C_36
REMARK    3  A    between atoms: O_2  and  C_18
REMARK    4  A    between atoms: O_3  and  C_28
REMARK    5  A    between atoms: O_3  and  C_42
REMARK    6  A    between atoms: O_5  and  C_34
REMARK    7  A    between atoms: O_5  and  C_50
REMARK    8  A    between atoms: O_7  and  C_40
REMARK    9  A    between atoms: O_7  and  C_56
REMARK   10  A    between atoms: O_9  and  C_46
REMARK   11  A    between atoms: N_11  and  C_30
REMARK   12  A    between atoms: C_17  and  C_23
REMARK   13  A    between atoms: C_18  and  C_28
REMARK   14  A    between atoms: C_23  and  C_32
REMARK   15  A    between atoms: C_33  and  C_35
REMARK   16  A    between atoms: C_35  and  C_40
REMARK   17  A    between atoms: C_36  and  C_41
REMARK   18  A    between atoms: C_46  and  C_53
REMARK   19  A    between atoms: C_53  and  C_57
REMARK                            x       y       z     vdW  Elec       q    Type
REMARK                         _______ _______ _______ _____ _____    ______ ____
ROOT
ATOM      1  N   UNL     1     -43.339 -60.630  36.874  0.00  0.00    +0.000 NA
ATOM      2  N   UNL     1     -42.321 -65.075  38.283  0.00  0.00    +0.000 N 
ATOM      3  C   UNL     1     -42.870 -62.815  37.540  0.00  0.00    +0.000 C 
ATOM      4  C   UNL     1     -43.547 -62.016  36.413  0.00  0.00    +0.000 C 
ATOM      5  C   UNL     1     -43.322 -64.288  37.503  0.00  0.00    +0.000 C 
ATOM      6  C   UNL     1     -45.051 -62.469  36.117  0.00  0.00    +0.000 C 
ATOM      7  C   UNL     1     -44.817 -64.539  37.759  0.00  0.00    +0.000 C 
ATOM      8  C   UNL     1     -43.084 -61.972  38.812  0.00  0.00    +0.000 C 
ATOM      9  C   UNL     1     -45.691 -63.328  37.295  0.00  0.00    +0.000 C 
ATOM     10  C   UNL     1     -41.381 -63.086  37.445  0.00  0.00    +0.000 A 
ATOM     11  C   UNL     1     -43.529 -60.597  38.318  0.00  0.00    +0.000 C 
ATOM     12  C   UNL     1     -41.125 -64.372  37.940  0.00  0.00    +0.000 A 
ATOM     13  C   UNL     1     -45.964 -61.265  35.873  0.00  0.00    +0.000 C 
ATOM     14  C   UNL     1     -44.101 -59.624  36.150  0.00  0.00    +0.000 C 
ATOM     15  C   UNL     1     -45.522 -59.999  35.878  0.00  0.00    +0.000 C 
ATOM     16  C   UNL     1     -40.361 -62.245  37.016  0.00  0.00    +0.000 A 
ATOM     17  C   UNL     1     -42.266 -66.517  38.050  0.00  0.00    +0.000 C 
ATOM     18  C   UNL     1     -39.820 -64.814  38.047  0.00  0.00    +0.000 A 
ATOM     19  C   UNL     1     -39.020 -62.668  37.106  0.00  0.00    +0.000 A 
ATOM     20  C   UNL     1     -38.776 -63.967  37.642  0.00  0.00    +0.000 A 
ENDROOT
BRANCH  19  23
ATOM     21  N   UNL     1     -35.022 -58.765  35.275  0.00  0.00    +0.000 NA
ATOM     22  N   UNL     1     -37.495 -61.355  39.143  0.00  0.00    +0.000 N 
ATOM     23  C   UNL     1     -37.819 -61.743  36.658  0.00  0.00    +0.000 C 
ATOM     24  C   UNL     1     -38.345 -60.374  36.023  0.00  0.00    +0.000 C 
ATOM     25  C   UNL     1     -36.920 -61.363  37.884  0.00  0.00    +0.000 A 
ATOM     26  C   UNL     1     -37.318 -59.241  35.864  0.00  0.00    +0.000 C 
ATOM     27  C   UNL     1     -37.899 -57.907  35.401  0.00  0.00    +0.000 C 
ATOM     28  C   UNL     1     -36.178 -59.564  34.909  0.00  0.00    +0.000 C 
ATOM     29  C   UNL     1     -35.602 -60.905  38.054  0.00  0.00    +0.000 A 
ATOM     30  C   UNL     1     -36.801 -56.805  35.302  0.00  0.00    +0.000 C 
ATOM     31  C   UNL     1     -35.311 -57.320  35.153  0.00  0.00    +0.000 C 
ATOM     32  C   UNL     1     -34.500 -60.616  37.047  0.00  0.00    +0.000 C 
ATOM     33  C   UNL     1     -34.431 -59.128  36.589  0.00  0.00    +0.000 C 
ATOM     34  C   UNL     1     -35.415 -60.679  39.469  0.00  0.00    +0.000 A 
ATOM     35  C   UNL     1     -36.609 -60.970  40.111  0.00  0.00    +0.000 A 
ATOM     36  C   UNL     1     -34.330 -60.233  40.257  0.00  0.00    +0.000 A 
ATOM     37  C   UNL     1     -36.786 -60.852  41.495  0.00  0.00    +0.000 A 
ATOM     38  C   UNL     1     -34.483 -60.108  41.643  0.00  0.00    +0.000 A 
ATOM     39  C   UNL     1     -35.696 -60.414  42.252  0.00  0.00    +0.000 A 
ATOM     40  H   UNL     1     -38.452 -61.621  39.339  0.00  0.00    +0.000 HD
BRANCH  23  42
ATOM     41  O   UNL     1     -35.905 -63.026  35.676  0.00  0.00    +0.000 OA
ATOM     42  C   UNL     1     -37.041 -62.577  35.587  0.00  0.00    +0.000 C 
BRANCH  42  43
ATOM     43  O   UNL     1     -37.837 -62.784  34.485  0.00  0.00    +0.000 OA
ATOM     44  C   UNL     1     -37.131 -62.751  33.246  0.00  0.00    +0.000 C 
ENDBRANCH  42  43
ENDBRANCH  23  42
BRANCH  30  45
ATOM     45  O   UNL     1     -37.118 -56.058  34.101  0.00  0.00    +0.000 OA
ATOM     46  H   UNL     1     -36.415 -55.396  33.977  0.00  0.00    +0.000 HD
ENDBRANCH  30  45
BRANCH  30  47
ATOM     47  C   UNL     1     -36.940 -55.761  36.434  0.00  0.00    +0.000 C 
ATOM     48  C   UNL     1     -38.180 -54.884  36.401  0.00  0.00    +0.000 C 
ENDBRANCH  30  47
ENDBRANCH  19  23
BRANCH   7  49
ATOM     49  O   UNL     1     -45.181 -65.657  36.886  0.00  0.00    +0.000 OA
ATOM     50  H   UNL     1     -45.279 -65.277  35.989  0.00  0.00    +0.000 HD
ENDBRANCH   7  49
BRANCH   7  52
ATOM     51  O   UNL     1     -44.570 -64.504  40.230  0.00  0.00    +0.000 OA
ATOM     52  C   UNL     1     -45.105 -64.951  39.225  0.00  0.00    +0.000 C 
BRANCH  52  53
ATOM     53  O   UNL     1     -46.133 -65.862  39.254  0.00  0.00    +0.000 OA
ATOM     54  C   UNL     1     -45.804 -67.088  39.909  0.00  0.00    +0.000 C 
ENDBRANCH  52  53
ENDBRANCH   7  52
BRANCH  20  55
ATOM     55  O   UNL     1     -37.472 -64.390  37.690  0.00  0.00    +0.000 OA
ATOM     56  C   UNL     1     -37.071 -64.983  38.923  0.00  0.00    +0.000 C 
ENDBRANCH  20  55
BRANCH   6  57
ATOM     57  C   UNL     1     -45.096 -63.323  34.796  0.00  0.00    +0.000 C 
ATOM     58  C   UNL     1     -46.478 -63.568  34.188  0.00  0.00    +0.000 C 
ENDBRANCH   6  57
BRANCH   9  59
ATOM     59  O   UNL     1     -46.004 -62.432  38.389  0.00  0.00    +0.000 OA
BRANCH  59  61
ATOM     60  O   UNL     1     -48.274 -62.646  38.167  0.00  0.00    +0.000 OA
ATOM     61  C   UNL     1     -47.283 -62.440  38.853  0.00  0.00    +0.000 C 
ATOM     62  C   UNL     1     -47.297 -62.195  40.329  0.00  0.00    +0.000 C 
ENDBRANCH  59  61
ENDBRANCH   9  59
TORSDOF 12
ENDMDL
MODEL 3
REMARK VINA RESULT:      -6.7     26.919     32.925
REMARK  Name = 
REMARK  19 active torsions:
REMARK  status: ('A' for Active; 'I' for Inactive)
REMARK    1  A    between atoms: O_1  and  C_20
REMARK    2  A    between atoms: O_1  and  C_36
REMARK    3  A    between atoms: O_2  and  C_18
REMARK    4  A    between atoms: O_3  and  C_28
REMARK    5  A    between atoms: O_3  and  C_42
REMARK    6  A    between atoms: O_5  and  C_34
REMARK    7  A    between atoms: O_5  and  C_50
REMARK    8  A    between atoms: O_7  and  C_40
REMARK    9  A    between atoms: O_7  and  C_56
REMARK   10  A    between atoms: O_9  and  C_46
REMARK   11  A    between atoms: N_11  and  C_30
REMARK   12  A    between atoms: C_17  and  C_23
REMARK   13  A    between atoms: C_18  and  C_28
REMARK   14  A    between atoms: C_23  and  C_32
REMARK   15  A    between atoms: C_33  and  C_35
REMARK   16  A    between atoms: C_35  and  C_40
REMARK   17  A    between atoms: C_36  and  C_41
REMARK   18  A    between atoms: C_46  and  C_53
REMARK   19  A    between atoms: C_53  and  C_57
REMARK                            x       y       z     vdW  Elec       q    Type
REMARK                         _______ _______ _______ _____ _____    ______ ____
ROOT
ATOM      1  N   UNL     1     -44.956 -62.952  35.153  0.00  0.00    +0.000 NA
ATOM      2  N   UNL     1     -44.922 -67.169  37.389  0.00  0.00    +0.000 N 
ATOM      3  C   UNL     1     -44.964 -64.998  36.272  0.00  0.00    +0.000 C 
ATOM      4  C   UNL     1     -45.794 -63.713  36.099  0.00  0.00    +0.000 C 
ATOM      5  C   UNL     1     -45.416 -65.767  37.530  0.00  0.00    +0.000 C 
ATOM      6  C   UNL     1     -46.171 -63.001  37.480  0.00  0.00    +0.000 C 
ATOM      7  C   UNL     1     -45.205 -65.044  38.871  0.00  0.00    +0.000 C 
ATOM      8  C   UNL     1     -43.497 -64.550  36.124  0.00  0.00    +0.000 C 
ATOM      9  C   UNL     1     -45.276 -63.490  38.703  0.00  0.00    +0.000 C 
ATOM     10  C   UNL     1     -45.171 -66.134  35.289  0.00  0.00    +0.000 A 
ATOM     11  C   UNL     1     -43.560 -63.148  35.523  0.00  0.00    +0.000 C 
ATOM     12  C   UNL     1     -45.077 -67.351  35.980  0.00  0.00    +0.000 A 
ATOM     13  C   UNL     1     -46.031 -61.480  37.384  0.00  0.00    +0.000 C 
ATOM     14  C   UNL     1     -45.338 -61.558  34.986  0.00  0.00    +0.000 C 
ATOM     15  C   UNL     1     -45.671 -60.848  36.258  0.00  0.00    +0.000 C 
ATOM     16  C   UNL     1     -45.363 -66.081  33.913  0.00  0.00    +0.000 A 
ATOM     17  C   UNL     1     -45.564 -68.196  38.207  0.00  0.00    +0.000 C 
ATOM     18  C   UNL     1     -45.136 -68.539  35.278  0.00  0.00    +0.000 A 
ATOM     19  C   UNL     1     -45.433 -67.275  33.169  0.00  0.00    +0.000 A 
ATOM     20  C   UNL     1     -45.304 -68.503  33.884  0.00  0.00    +0.000 A 
ENDROOT
BRANCH  19  23
ATOM     21  N   UNL     1     -46.090 -66.594  27.366  0.00  0.00    +0.000 NA
ATOM     22  N   UNL     1     -43.204 -68.029  31.538  0.00  0.00    +0.000 N 
ATOM     23  C   UNL     1     -45.625 -67.274  31.600  0.00  0.00    +0.000 C 
ATOM     24  C   UNL     1     -45.678 -65.785  31.023  0.00  0.00    +0.000 C 
ATOM     25  C   UNL     1     -44.429 -67.997  30.892  0.00  0.00    +0.000 A 
ATOM     26  C   UNL     1     -45.510 -65.622  29.503  0.00  0.00    +0.000 C 
ATOM     27  C   UNL     1     -45.411 -64.177  29.018  0.00  0.00    +0.000 C 
ATOM     28  C   UNL     1     -46.614 -66.272  28.681  0.00  0.00    +0.000 C 
ATOM     29  C   UNL     1     -44.222 -68.594  29.636  0.00  0.00    +0.000 A 
ATOM     30  C   UNL     1     -45.206 -64.101  27.476  0.00  0.00    +0.000 C 
ATOM     31  C   UNL     1     -45.659 -65.373  26.650  0.00  0.00    +0.000 C 
ATOM     32  C   UNL     1     -45.153 -68.782  28.448  0.00  0.00    +0.000 C 
ATOM     33  C   UNL     1     -45.050 -67.656  27.376  0.00  0.00    +0.000 C 
ATOM     34  C   UNL     1     -42.843 -69.022  29.595  0.00  0.00    +0.000 A 
ATOM     35  C   UNL     1     -42.245 -68.656  30.792  0.00  0.00    +0.000 A 
ATOM     36  C   UNL     1     -42.046 -69.677  28.630  0.00  0.00    +0.000 A 
ATOM     37  C   UNL     1     -40.901 -68.912  31.089  0.00  0.00    +0.000 A 
ATOM     38  C   UNL     1     -40.700 -69.945  28.905  0.00  0.00    +0.000 A 
ATOM     39  C   UNL     1     -40.137 -69.566  30.119  0.00  0.00    +0.000 A 
ATOM     40  H   UNL     1     -43.033 -67.654  32.462  0.00  0.00    +0.000 HD
BRANCH  23  42
ATOM     41  O   UNL     1     -47.168 -69.067  30.777  0.00  0.00    +0.000 OA
ATOM     42  C   UNL     1     -46.988 -68.002  31.355  0.00  0.00    +0.000 C 
BRANCH  42  43
ATOM     43  O   UNL     1     -48.012 -67.282  31.923  0.00  0.00    +0.000 OA
ATOM     44  C   UNL     1     -49.313 -67.714  31.526  0.00  0.00    +0.000 C 
ENDBRANCH  42  43
ENDBRANCH  23  42
BRANCH  30  45
ATOM     45  O   UNL     1     -46.026 -62.990  27.036  0.00  0.00    +0.000 OA
ATOM     46  H   UNL     1     -45.473 -62.428  26.464  0.00  0.00    +0.000 HD
ENDBRANCH  30  45
BRANCH  30  47
ATOM     47  C   UNL     1     -43.767 -63.663  27.115  0.00  0.00    +0.000 C 
ATOM     48  C   UNL     1     -43.608 -62.820  25.862  0.00  0.00    +0.000 C 
ENDBRANCH  30  47
ENDBRANCH  19  23
BRANCH   7  49
ATOM     49  O   UNL     1     -46.355 -65.413  39.698  0.00  0.00    +0.000 OA
ATOM     50  H   UNL     1     -46.832 -64.578  39.884  0.00  0.00    +0.000 HD
ENDBRANCH   7  49
BRANCH   7  52
ATOM     51  O   UNL     1     -42.786 -65.543  39.126  0.00  0.00    +0.000 OA
ATOM     52  C   UNL     1     -43.915 -65.504  39.594  0.00  0.00    +0.000 C 
BRANCH  52  53
ATOM     53  O   UNL     1     -44.202 -65.800  40.905  0.00  0.00    +0.000 OA
ATOM     54  C   UNL     1     -43.706 -67.069  41.336  0.00  0.00    +0.000 C 
ENDBRANCH  52  53
ENDBRANCH   7  52
BRANCH  20  55
ATOM     55  O   UNL     1     -45.413 -69.664  33.161  0.00  0.00    +0.000 OA
ATOM     56  C   UNL     1     -44.528 -70.709  33.554  0.00  0.00    +0.000 C 
ENDBRANCH  20  55
BRANCH   6  57
ATOM     57  C   UNL     1     -47.680 -63.280  37.824  0.00  0.00    +0.000 C 
ATOM     58  C   UNL     1     -48.658 -62.126  37.589  0.00  0.00    +0.000 C 
ENDBRANCH   6  57
BRANCH   9  59
ATOM     59  O   UNL     1     -43.962 -62.897  38.567  0.00  0.00    +0.000 OA
BRANCH  59  61
ATOM     60  O   UNL     1     -42.283 -61.945  39.802  0.00  0.00    +0.000 OA
ATOM     61  C   UNL     1     -43.459 -62.247  39.651  0.00  0.00    +0.000 C 
ATOM     62  C   UNL     1     -44.557 -61.923  40.615  0.00  0.00    +0.000 C 
ENDBRANCH  59  61
ENDBRANCH   9  59
TORSDOF 12
ENDMDL
MODEL 4
REMARK VINA RESULT:      -6.7      3.670     10.426
REMARK  Name = 
REMARK  19 active torsions:
REMARK  status: ('A' for Active; 'I' for Inactive)
REMARK    1  A    between atoms: O_1  and  C_20
REMARK    2  A    between atoms: O_1  and  C_36
REMARK    3  A    between atoms: O_2  and  C_18
REMARK    4  A    between atoms: O_3  and  C_28
REMARK    5  A    between atoms: O_3  and  C_42
REMARK    6  A    between atoms: O_5  and  C_34
REMARK    7  A    between atoms: O_5  and  C_50
REMARK    8  A    between atoms: O_7  and  C_40
REMARK    9  A    between atoms: O_7  and  C_56
REMARK   10  A    between atoms: O_9  and  C_46
REMARK   11  A    between atoms: N_11  and  C_30
REMARK   12  A    between atoms: C_17  and  C_23
REMARK   13  A    between atoms: C_18  and  C_28
REMARK   14  A    between atoms: C_23  and  C_32
REMARK   15  A    between atoms: C_33  and  C_35
REMARK   16  A    between atoms: C_35  and  C_40
REMARK   17  A    between atoms: C_36  and  C_41
REMARK   18  A    between atoms: C_46  and  C_53
REMARK   19  A    between atoms: C_53  and  C_57
REMARK                            x       y       z     vdW  Elec       q    Type
REMARK                         _______ _______ _______ _____ _____    ______ ____
ROOT
ATOM      1  N   UNL     1     -45.797 -37.263  53.558  0.00  0.00    +0.000 NA
ATOM      2  N   UNL     1     -47.815 -37.269  49.233  0.00  0.00    +0.000 N 
ATOM      3  C   UNL     1     -46.793 -37.229  51.451  0.00  0.00    +0.000 C 
ATOM      4  C   UNL     1     -46.212 -36.295  52.526  0.00  0.00    +0.000 C 
ATOM      5  C   UNL     1     -47.671 -36.435  50.463  0.00  0.00    +0.000 C 
ATOM      6  C   UNL     1     -47.211 -35.131  52.975  0.00  0.00    +0.000 C 
ATOM      7  C   UNL     1     -48.928 -35.780  51.059  0.00  0.00    +0.000 C 
ATOM      8  C   UNL     1     -47.388 -38.417  52.232  0.00  0.00    +0.000 C 
ATOM      9  C   UNL     1     -48.725 -35.411  52.566  0.00  0.00    +0.000 C 
ATOM     10  C   UNL     1     -45.855 -37.818  50.415  0.00  0.00    +0.000 A 
ATOM     11  C   UNL     1     -46.814 -38.304  53.642  0.00  0.00    +0.000 C 
ATOM     12  C   UNL     1     -46.518 -37.868  49.182  0.00  0.00    +0.000 A 
ATOM     13  C   UNL     1     -47.175 -34.912  54.490  0.00  0.00    +0.000 C 
ATOM     14  C   UNL     1     -45.441 -36.675  54.840  0.00  0.00    +0.000 C 
ATOM     15  C   UNL     1     -46.368 -35.601  55.309  0.00  0.00    +0.000 C 
ATOM     16  C   UNL     1     -44.564 -38.310  50.579  0.00  0.00    +0.000 A 
ATOM     17  C   UNL     1     -48.221 -36.593  48.002  0.00  0.00    +0.000 C 
ATOM     18  C   UNL     1     -45.898 -38.457  48.097  0.00  0.00    +0.000 A 
ATOM     19  C   UNL     1     -43.902 -38.912  49.491  0.00  0.00    +0.000 A 
ATOM     20  C   UNL     1     -44.604 -38.983  48.251  0.00  0.00    +0.000 A 
ENDROOT
BRANCH  19  23
ATOM     21  N   UNL     1     -38.666 -41.588  49.517  0.00  0.00    +0.000 NA
ATOM     22  N   UNL     1     -41.740 -37.493  48.262  0.00  0.00    +0.000 N 
ATOM     23  C   UNL     1     -42.445 -39.512  49.626  0.00  0.00    +0.000 C 
ATOM     24  C   UNL     1     -42.260 -40.802  48.704  0.00  0.00    +0.000 C 
ATOM     25  C   UNL     1     -41.369 -38.467  49.173  0.00  0.00    +0.000 A 
ATOM     26  C   UNL     1     -40.820 -41.283  48.461  0.00  0.00    +0.000 C 
ATOM     27  C   UNL     1     -40.684 -42.421  47.450  0.00  0.00    +0.000 C 
ATOM     28  C   UNL     1     -40.096 -41.742  49.719  0.00  0.00    +0.000 C 
ATOM     29  C   UNL     1     -39.991 -38.291  49.392  0.00  0.00    +0.000 A 
ATOM     30  C   UNL     1     -39.194 -42.822  47.235  0.00  0.00    +0.000 C 
ATOM     31  C   UNL     1     -38.192 -42.429  48.396  0.00  0.00    +0.000 C 
ATOM     32  C   UNL     1     -38.995 -39.090  50.217  0.00  0.00    +0.000 C 
ATOM     33  C   UNL     1     -38.222 -40.174  49.406  0.00  0.00    +0.000 C 
ATOM     34  C   UNL     1     -39.585 -37.144  48.613  0.00  0.00    +0.000 A 
ATOM     35  C   UNL     1     -40.696 -36.676  47.927  0.00  0.00    +0.000 A 
ATOM     36  C   UNL     1     -38.356 -36.473  48.420  0.00  0.00    +0.000 A 
ATOM     37  C   UNL     1     -40.659 -35.573  47.066  0.00  0.00    +0.000 A 
ATOM     38  C   UNL     1     -38.295 -35.367  47.564  0.00  0.00    +0.000 A 
ATOM     39  C   UNL     1     -39.433 -34.924  46.898  0.00  0.00    +0.000 A 
ATOM     40  H   UNL     1     -42.676 -37.377  47.895  0.00  0.00    +0.000 HD
BRANCH  23  42
ATOM     41  O   UNL     1     -41.752 -39.248  52.019  0.00  0.00    +0.000 OA
ATOM     42  C   UNL     1     -42.301 -39.895  51.136  0.00  0.00    +0.000 C 
BRANCH  42  43
ATOM     43  O   UNL     1     -42.925 -41.097  51.375  0.00  0.00    +0.000 OA
ATOM     44  C   UNL     1     -43.344 -41.273  52.728  0.00  0.00    +0.000 C 
ENDBRANCH  42  43
ENDBRANCH  23  42
BRANCH  30  45
ATOM     45  O   UNL     1     -39.198 -44.269  47.143  0.00  0.00    +0.000 OA
ATOM     46  H   UNL     1     -38.956 -44.616  48.021  0.00  0.00    +0.000 HD
ENDBRANCH  30  45
BRANCH  30  47
ATOM     47  C   UNL     1     -38.677 -42.366  45.850  0.00  0.00    +0.000 C 
ATOM     48  C   UNL     1     -39.516 -41.330  45.121  0.00  0.00    +0.000 C 
ENDBRANCH  30  47
ENDBRANCH  19  23
BRANCH   7  49
ATOM     49  O   UNL     1     -49.079 -34.508  50.350  0.00  0.00    +0.000 OA
ATOM     50  H   UNL     1     -49.901 -34.102  50.695  0.00  0.00    +0.000 HD
ENDBRANCH   7  49
BRANCH   7  52
ATOM     51  O   UNL     1     -50.351 -37.815  51.067  0.00  0.00    +0.000 OA
ATOM     52  C   UNL     1     -50.205 -36.626  50.823  0.00  0.00    +0.000 C 
BRANCH  52  53
ATOM     53  O   UNL     1     -51.214 -35.817  50.359  0.00  0.00    +0.000 OA
ATOM     54  C   UNL     1     -52.260 -35.594  51.307  0.00  0.00    +0.000 C 
ENDBRANCH  52  53
ENDBRANCH   7  52
BRANCH  20  55
ATOM     55  O   UNL     1     -43.940 -39.533  47.184  0.00  0.00    +0.000 OA
ATOM     56  C   UNL     1     -43.930 -38.740  46.001  0.00  0.00    +0.000 C 
ENDBRANCH  20  55
BRANCH   6  57
ATOM     57  C   UNL     1     -46.763 -33.769  52.327  0.00  0.00    +0.000 C 
ATOM     58  C   UNL     1     -45.368 -33.738  51.700  0.00  0.00    +0.000 C 
ENDBRANCH   6  57
BRANCH   9  59
ATOM     59  O   UNL     1     -49.252 -36.428  53.451  0.00  0.00    +0.000 OA
BRANCH  59  61
ATOM     60  O   UNL     1     -50.775 -34.990  54.377  0.00  0.00    +0.000 OA
ATOM     61  C   UNL     1     -50.123 -36.024  54.414  0.00  0.00    +0.000 C 
ATOM     62  C   UNL     1     -50.194 -37.044  55.507  0.00  0.00    +0.000 C 
ENDBRANCH  59  61
ENDBRANCH   9  59
TORSDOF 12
ENDMDL
MODEL 5
REMARK VINA RESULT:      -6.6     25.700     31.879
REMARK  Name = 
REMARK  19 active torsions:
REMARK  status: ('A' for Active; 'I' for Inactive)
REMARK    1  A    between atoms: O_1  and  C_20
REMARK    2  A    between atoms: O_1  and  C_36
REMARK    3  A    between atoms: O_2  and  C_18
REMARK    4  A    between atoms: O_3  and  C_28
REMARK    5  A    between atoms: O_3  and  C_42
REMARK    6  A    between atoms: O_5  and  C_34
REMARK    7  A    between atoms: O_5  and  C_50
REMARK    8  A    between atoms: O_7  and  C_40
REMARK    9  A    between atoms: O_7  and  C_56
REMARK   10  A    between atoms: O_9  and  C_46
REMARK   11  A    between atoms: N_11  and  C_30
REMARK   12  A    between atoms: C_17  and  C_23
REMARK   13  A    between atoms: C_18  and  C_28
REMARK   14  A    between atoms: C_23  and  C_32
REMARK   15  A    between atoms: C_33  and  C_35
REMARK   16  A    between atoms: C_35  and  C_40
REMARK   17  A    between atoms: C_36  and  C_41
REMARK   18  A    between atoms: C_46  and  C_53
REMARK   19  A    between atoms: C_53  and  C_57
REMARK                            x       y       z     vdW  Elec       q    Type
REMARK                         _______ _______ _______ _____ _____    ______ ____
ROOT
ATOM      1  N   UNL     1     -42.257 -63.556  35.587  0.00  0.00    +0.000 NA
ATOM      2  N   UNL     1     -47.018 -63.238  35.475  0.00  0.00    +0.000 N 
ATOM      3  C   UNL     1     -44.581 -63.365  35.548  0.00  0.00    +0.000 C 
ATOM      4  C   UNL     1     -43.300 -62.513  35.595  0.00  0.00    +0.000 C 
ATOM      5  C   UNL     1     -45.803 -62.526  35.971  0.00  0.00    +0.000 C 
ATOM      6  C   UNL     1     -43.273 -61.460  36.798  0.00  0.00    +0.000 C 
ATOM      7  C   UNL     1     -45.793 -62.009  37.419  0.00  0.00    +0.000 C 
ATOM      8  C   UNL     1     -44.229 -64.658  36.308  0.00  0.00    +0.000 C 
ATOM      9  C   UNL     1     -44.335 -61.784  37.939  0.00  0.00    +0.000 C 
ATOM     10  C   UNL     1     -45.121 -63.790  34.196  0.00  0.00    +0.000 A 
ATOM     11  C   UNL     1     -42.707 -64.656  36.431  0.00  0.00    +0.000 C 
ATOM     12  C   UNL     1     -46.521 -63.753  34.238  0.00  0.00    +0.000 A 
ATOM     13  C   UNL     1     -41.892 -61.394  37.456  0.00  0.00    +0.000 C 
ATOM     14  C   UNL     1     -40.916 -63.081  35.893  0.00  0.00    +0.000 C 
ATOM     15  C   UNL     1     -40.845 -62.115  37.031  0.00  0.00    +0.000 C 
ATOM     16  C   UNL     1     -44.428 -64.221  33.070  0.00  0.00    +0.000 A 
ATOM     17  C   UNL     1     -48.253 -62.464  35.359  0.00  0.00    +0.000 C 
ATOM     18  C   UNL     1     -47.248 -64.192  33.148  0.00  0.00    +0.000 A 
ATOM     19  C   UNL     1     -45.140 -64.671  31.940  0.00  0.00    +0.000 A 
ATOM     20  C   UNL     1     -46.564 -64.655  32.012  0.00  0.00    +0.000 A 
ENDROOT
BRANCH  19  23
ATOM     21  N   UNL     1     -42.869 -67.119  27.101  0.00  0.00    +0.000 NA
ATOM     22  N   UNL     1     -45.598 -63.286  29.476  0.00  0.00    +0.000 N 
ATOM     23  C   UNL     1     -44.405 -65.196  30.642  0.00  0.00    +0.000 C 
ATOM     24  C   UNL     1     -45.054 -66.558  30.118  0.00  0.00    +0.000 C 
ATOM     25  C   UNL     1     -44.521 -64.155  29.477  0.00  0.00    +0.000 A 
ATOM     26  C   UNL     1     -44.685 -67.000  28.693  0.00  0.00    +0.000 C 
ATOM     27  C   UNL     1     -45.449 -68.220  28.180  0.00  0.00    +0.000 C 
ATOM     28  C   UNL     1     -43.208 -67.311  28.500  0.00  0.00    +0.000 C 
ATOM     29  C   UNL     1     -43.817 -63.904  28.286  0.00  0.00    +0.000 A 
ATOM     30  C   UNL     1     -45.044 -68.580  26.719  0.00  0.00    +0.000 C 
ATOM     31  C   UNL     1     -43.636 -68.041  26.234  0.00  0.00    +0.000 C 
ATOM     32  C   UNL     1     -42.600 -64.583  27.676  0.00  0.00    +0.000 C 
ATOM     33  C   UNL     1     -42.946 -65.705  26.651  0.00  0.00    +0.000 C 
ATOM     34  C   UNL     1     -44.496 -62.819  27.617  0.00  0.00    +0.000 A 
ATOM     35  C   UNL     1     -45.594 -62.462  28.385  0.00  0.00    +0.000 A 
ATOM     36  C   UNL     1     -44.278 -62.120  26.408  0.00  0.00    +0.000 A 
ATOM     37  C   UNL     1     -46.484 -61.442  28.026  0.00  0.00    +0.000 A 
ATOM     38  C   UNL     1     -45.154 -61.096  26.029  0.00  0.00    +0.000 A 
ATOM     39  C   UNL     1     -46.241 -60.763  26.829  0.00  0.00    +0.000 A 
ATOM     40  H   UNL     1     -46.300 -63.242  30.203  0.00  0.00    +0.000 HD
BRANCH  23  42
ATOM     41  O   UNL     1     -41.984 -64.649  30.986  0.00  0.00    +0.000 OA
ATOM     42  C   UNL     1     -42.922 -65.432  31.082  0.00  0.00    +0.000 C 
BRANCH  42  43
ATOM     43  O   UNL     1     -42.794 -66.679  31.648  0.00  0.00    +0.000 OA
ATOM     44  C   UNL     1     -41.855 -66.734  32.721  0.00  0.00    +0.000 C 
ENDBRANCH  42  43
ENDBRANCH  23  42
BRANCH  30  45
ATOM     45  O   UNL     1     -44.984 -70.028  26.685  0.00  0.00    +0.000 OA
ATOM     46  H   UNL     1     -45.727 -70.362  27.218  0.00  0.00    +0.000 HD
ENDBRANCH  30  45
BRANCH  30  47
ATOM     47  C   UNL     1     -46.170 -68.233  25.717  0.00  0.00    +0.000 C 
ATOM     48  C   UNL     1     -45.948 -67.010  24.843  0.00  0.00    +0.000 C 
ENDBRANCH  30  47
ENDBRANCH  19  23
BRANCH   7  49
ATOM     49  O   UNL     1     -46.410 -60.682  37.364  0.00  0.00    +0.000 OA
ATOM     50  H   UNL     1     -46.474 -60.375  38.292  0.00  0.00    +0.000 HD
ENDBRANCH   7  49
BRANCH   7  52
ATOM     51  O   UNL     1     -46.584 -64.117  38.466  0.00  0.00    +0.000 OA
ATOM     52  C   UNL     1     -46.632 -62.898  38.371  0.00  0.00    +0.000 C 
BRANCH  52  53
ATOM     53  O   UNL     1     -47.408 -62.103  39.180  0.00  0.00    +0.000 OA
ATOM     54  C   UNL     1     -47.079 -62.193  40.568  0.00  0.00    +0.000 C 
ENDBRANCH  52  53
ENDBRANCH   7  52
BRANCH  20  55
ATOM     55  O   UNL     1     -47.253 -65.055  30.895  0.00  0.00    +0.000 OA
ATOM     56  C   UNL     1     -48.477 -65.738  31.149  0.00  0.00    +0.000 C 
ENDBRANCH  20  55
BRANCH   6  57
ATOM     57  C   UNL     1     -43.560 -60.016  36.244  0.00  0.00    +0.000 C 
ATOM     58  C   UNL     1     -42.964 -58.850  37.035  0.00  0.00    +0.000 C 
ENDBRANCH   6  57
BRANCH   9  59
ATOM     59  O   UNL     1     -43.849 -62.914  38.702  0.00  0.00    +0.000 OA
BRANCH  59  61
ATOM     60  O   UNL     1     -43.112 -61.653  40.467  0.00  0.00    +0.000 OA
ATOM     61  C   UNL     1     -43.552 -62.700  40.012  0.00  0.00    +0.000 C 
ATOM     62  C   UNL     1     -43.875 -63.917  40.821  0.00  0.00    +0.000 C 
ENDBRANCH  59  61
ENDBRANCH   9  59
TORSDOF 12
ENDMDL
MODEL 6
REMARK VINA RESULT:      -6.3     36.364     40.670
REMARK  Name = 
REMARK  19 active torsions:
REMARK  status: ('A' for Active; 'I' for Inactive)
REMARK    1  A    between atoms: O_1  and  C_20
REMARK    2  A    between atoms: O_1  and  C_36
REMARK    3  A    between atoms: O_2  and  C_18
REMARK    4  A    between atoms: O_3  and  C_28
REMARK    5  A    between atoms: O_3  and  C_42
REMARK    6  A    between atoms: O_5  and  C_34
REMARK    7  A    between atoms: O_5  and  C_50
REMARK    8  A    between atoms: O_7  and  C_40
REMARK    9  A    between atoms: O_7  and  C_56
REMARK   10  A    between atoms: O_9  and  C_46
REMARK   11  A    between atoms: N_11  and  C_30
REMARK   12  A    between atoms: C_17  and  C_23
REMARK   13  A    between atoms: C_18  and  C_28
REMARK   14  A    between atoms: C_23  and  C_32
REMARK   15  A    between atoms: C_33  and  C_35
REMARK   16  A    between atoms: C_35  and  C_40
REMARK   17  A    between atoms: C_36  and  C_41
REMARK   18  A    between atoms: C_46  and  C_53
REMARK   19  A    between atoms: C_53  and  C_57
REMARK                            x       y       z     vdW  Elec       q    Type
REMARK                         _______ _______ _______ _____ _____    ______ ____
ROOT
ATOM      1  N   UNL     1     -62.519 -68.308  38.380  0.00  0.00    +0.000 NA
ATOM      2  N   UNL     1     -63.654 -68.757  42.994  0.00  0.00    +0.000 N 
ATOM      3  C   UNL     1     -63.106 -68.508  40.628  0.00  0.00    +0.000 C 
ATOM      4  C   UNL     1     -63.719 -68.262  39.238  0.00  0.00    +0.000 C 
ATOM      5  C   UNL     1     -64.095 -68.089  41.734  0.00  0.00    +0.000 C 
ATOM      6  C   UNL     1     -64.626 -66.949  39.157  0.00  0.00    +0.000 C 
ATOM      7  C   UNL     1     -64.457 -66.595  41.781  0.00  0.00    +0.000 C 
ATOM      8  C   UNL     1     -61.703 -67.875  40.564  0.00  0.00    +0.000 C 
ATOM      9  C   UNL     1     -64.377 -65.939  40.363  0.00  0.00    +0.000 C 
ATOM     10  C   UNL     1     -62.916 -69.937  41.096  0.00  0.00    +0.000 A 
ATOM     11  C   UNL     1     -61.433 -67.633  39.081  0.00  0.00    +0.000 C 
ATOM     12  C   UNL     1     -63.187 -70.002  42.470  0.00  0.00    +0.000 A 
ATOM     13  C   UNL     1     -64.390 -66.182  37.854  0.00  0.00    +0.000 C 
ATOM     14  C   UNL     1     -62.726 -67.845  37.016  0.00  0.00    +0.000 C 
ATOM     15  C   UNL     1     -63.547 -66.602  36.901  0.00  0.00    +0.000 C 
ATOM     16  C   UNL     1     -62.487 -71.048  40.377  0.00  0.00    +0.000 A 
ATOM     17  C   UNL     1     -64.634 -68.881  44.072  0.00  0.00    +0.000 C 
ATOM     18  C   UNL     1     -62.989 -71.189  43.149  0.00  0.00    +0.000 A 
ATOM     19  C   UNL     1     -62.280 -72.274  41.039  0.00  0.00    +0.000 A 
ATOM     20  C   UNL     1     -62.531 -72.313  42.442  0.00  0.00    +0.000 A 
ENDROOT
BRANCH  19  23
ATOM     21  N   UNL     1     -60.194 -76.642  37.701  0.00  0.00    +0.000 NA
ATOM     22  N   UNL     1     -59.795 -73.432  41.864  0.00  0.00    +0.000 N 
ATOM     23  C   UNL     1     -61.769 -73.561  40.276  0.00  0.00    +0.000 C 
ATOM     24  C   UNL     1     -61.234 -73.196  38.816  0.00  0.00    +0.000 C 
ATOM     25  C   UNL     1     -60.579 -74.228  41.046  0.00  0.00    +0.000 A 
ATOM     26  C   UNL     1     -60.395 -74.265  38.096  0.00  0.00    +0.000 C 
ATOM     27  C   UNL     1     -59.777 -73.813  36.774  0.00  0.00    +0.000 C 
ATOM     28  C   UNL     1     -61.149 -75.552  37.796  0.00  0.00    +0.000 C 
ATOM     29  C   UNL     1     -59.988 -75.504  41.063  0.00  0.00    +0.000 A 
ATOM     30  C   UNL     1     -58.914 -74.939  36.129  0.00  0.00    +0.000 C 
ATOM     31  C   UNL     1     -59.236 -76.417  36.596  0.00  0.00    +0.000 C 
ATOM     32  C   UNL     1     -60.330 -76.779  40.309  0.00  0.00    +0.000 C 
ATOM     33  C   UNL     1     -59.526 -76.970  38.987  0.00  0.00    +0.000 C 
ATOM     34  C   UNL     1     -58.861 -75.433  41.964  0.00  0.00    +0.000 A 
ATOM     35  C   UNL     1     -58.774 -74.134  42.441  0.00  0.00    +0.000 A 
ATOM     36  C   UNL     1     -57.893 -76.366  42.401  0.00  0.00    +0.000 A 
ATOM     37  C   UNL     1     -57.785 -73.709  43.336  0.00  0.00    +0.000 A 
ATOM     38  C   UNL     1     -56.895 -75.964  43.296  0.00  0.00    +0.000 A 
ATOM     39  C   UNL     1     -56.844 -74.652  43.757  0.00  0.00    +0.000 A 
ATOM     40  H   UNL     1     -59.962 -72.449  42.038  0.00  0.00    +0.000 HD
BRANCH  23  42
ATOM     41  O   UNL     1     -63.255 -75.490  40.863  0.00  0.00    +0.000 OA
ATOM     42  C   UNL     1     -63.016 -74.500  40.182  0.00  0.00    +0.000 C 
BRANCH  42  43
ATOM     43  O   UNL     1     -63.875 -74.043  39.210  0.00  0.00    +0.000 OA
ATOM     44  C   UNL     1     -64.784 -75.032  38.728  0.00  0.00    +0.000 C 
ENDBRANCH  42  43
ENDBRANCH  23  42
BRANCH  30  45
ATOM     45  O   UNL     1     -59.193 -74.868  34.708  0.00  0.00    +0.000 OA
ATOM     46  H   UNL     1     -60.063 -75.282  34.563  0.00  0.00    +0.000 HD
ENDBRANCH  30  45
BRANCH  30  47
ATOM     47  C   UNL     1     -57.403 -74.621  36.225  0.00  0.00    +0.000 C 
ATOM     48  C   UNL     1     -57.027 -73.293  36.858  0.00  0.00    +0.000 C 
ENDBRANCH  30  47
ENDBRANCH  19  23
BRANCH   7  49
ATOM     49  O   UNL     1     -65.868 -66.547  42.169  0.00  0.00    +0.000 OA
ATOM     50  H   UNL     1     -66.371 -66.876  41.395  0.00  0.00    +0.000 HD
ENDBRANCH   7  49
BRANCH   7  52
ATOM     51  O   UNL     1     -62.447 -65.526  42.775  0.00  0.00    +0.000 OA
ATOM     52  C   UNL     1     -63.633 -65.820  42.840  0.00  0.00    +0.000 C 
BRANCH  52  53
ATOM     53  O   UNL     1     -64.458 -65.421  43.864  0.00  0.00    +0.000 OA
ATOM     54  C   UNL     1     -63.915 -64.375  44.672  0.00  0.00    +0.000 C 
ENDBRANCH  52  53
ENDBRANCH   7  52
BRANCH  20  55
ATOM     55  O   UNL     1     -62.368 -73.519  43.076  0.00  0.00    +0.000 OA
ATOM     56  C   UNL     1     -63.355 -73.829  44.055  0.00  0.00    +0.000 C 
ENDBRANCH  20  55
BRANCH   6  57
ATOM     57  C   UNL     1     -66.146 -67.356  39.154  0.00  0.00    +0.000 C 
ATOM     58  C   UNL     1     -66.472 -68.783  39.600  0.00  0.00    +0.000 C 
ENDBRANCH   6  57
BRANCH   9  59
ATOM     59  O   UNL     1     -63.110 -65.275  40.141  0.00  0.00    +0.000 OA
BRANCH  59  61
ATOM     60  O   UNL     1     -64.041 -63.198  40.404  0.00  0.00    +0.000 OA
ATOM     61  C   UNL     1     -63.131 -63.920  40.022  0.00  0.00    +0.000 C 
ATOM     62  C   UNL     1     -61.863 -63.438  39.387  0.00  0.00    +0.000 C 
ENDBRANCH  59  61
ENDBRANCH   9  59
TORSDOF 12
ENDMDL
MODEL 7
REMARK VINA RESULT:      -6.2     28.067     32.339
REMARK  Name = 
REMARK  19 active torsions:
REMARK  status: ('A' for Active; 'I' for Inactive)
REMARK    1  A    between atoms: O_1  and  C_20
REMARK    2  A    between atoms: O_1  and  C_36
REMARK    3  A    between atoms: O_2  and  C_18
REMARK    4  A    between atoms: O_3  and  C_28
REMARK    5  A    between atoms: O_3  and  C_42
REMARK    6  A    between atoms: O_5  and  C_34
REMARK    7  A    between atoms: O_5  and  C_50
REMARK    8  A    between atoms: O_7  and  C_40
REMARK    9  A    between atoms: O_7  and  C_56
REMARK   10  A    between atoms: O_9  and  C_46
REMARK   11  A    between atoms: N_11  and  C_30
REMARK   12  A    between atoms: C_17  and  C_23
REMARK   13  A    between atoms: C_18  and  C_28
REMARK   14  A    between atoms: C_23  and  C_32
REMARK   15  A    between atoms: C_33  and  C_35
REMARK   16  A    between atoms: C_35  and  C_40
REMARK   17  A    between atoms: C_36  and  C_41
REMARK   18  A    between atoms: C_46  and  C_53
REMARK   19  A    between atoms: C_53  and  C_57
REMARK                            x       y       z     vdW  Elec       q    Type
REMARK                         _______ _______ _______ _____ _____    ______ ____
ROOT
ATOM      1  N   UNL     1     -41.432 -64.571  35.463  0.00  0.00    +0.000 NA
ATOM      2  N   UNL     1     -44.096 -68.414  36.420  0.00  0.00    +0.000 N 
ATOM      3  C   UNL     1     -42.733 -66.439  35.968  0.00  0.00    +0.000 C 
ATOM      4  C   UNL     1     -42.334 -65.060  36.523  0.00  0.00    +0.000 C 
ATOM      5  C   UNL     1     -43.331 -67.317  37.085  0.00  0.00    +0.000 C 
ATOM      6  C   UNL     1     -41.753 -65.110  38.011  0.00  0.00    +0.000 C 
ATOM      7  C   UNL     1     -42.380 -67.678  38.238  0.00  0.00    +0.000 C 
ATOM      8  C   UNL     1     -41.502 -66.924  35.178  0.00  0.00    +0.000 C 
ATOM      9  C   UNL     1     -41.299 -66.569  38.459  0.00  0.00    +0.000 C 
ATOM     10  C   UNL     1     -43.916 -66.528  35.024  0.00  0.00    +0.000 A 
ATOM     11  C   UNL     1     -40.619 -65.690  35.004  0.00  0.00    +0.000 C 
ATOM     12  C   UNL     1     -44.622 -67.708  35.294  0.00  0.00    +0.000 A 
ATOM     13  C   UNL     1     -40.549 -64.179  38.176  0.00  0.00    +0.000 C 
ATOM     14  C   UNL     1     -40.667 -63.384  35.812  0.00  0.00    +0.000 C 
ATOM     15  C   UNL     1     -40.083 -63.404  37.187  0.00  0.00    +0.000 C 
ATOM     16  C   UNL     1     -44.284 -65.668  33.993  0.00  0.00    +0.000 A 
ATOM     17  C   UNL     1     -45.099 -69.117  37.217  0.00  0.00    +0.000 C 
ATOM     18  C   UNL     1     -45.692 -68.060  34.495  0.00  0.00    +0.000 A 
ATOM     19  C   UNL     1     -45.374 -65.996  33.164  0.00  0.00    +0.000 A 
ATOM     20  C   UNL     1     -46.061 -67.217  33.434  0.00  0.00    +0.000 A 
ENDROOT
BRANCH  19  23
ATOM     21  N   UNL     1     -46.435 -62.236  28.770  0.00  0.00    +0.000 NA
ATOM     22  N   UNL     1     -45.215 -67.060  30.511  0.00  0.00    +0.000 N 
ATOM     23  C   UNL     1     -45.820 -65.070  31.962  0.00  0.00    +0.000 C 
ATOM     24  C   UNL     1     -44.742 -63.926  31.680  0.00  0.00    +0.000 C 
ATOM     25  C   UNL     1     -45.961 -65.901  30.642  0.00  0.00    +0.000 A 
ATOM     26  C   UNL     1     -44.858 -63.175  30.343  0.00  0.00    +0.000 C 
ATOM     27  C   UNL     1     -43.717 -62.202  30.051  0.00  0.00    +0.000 C 
ATOM     28  C   UNL     1     -46.146 -62.380  30.185  0.00  0.00    +0.000 C 
ATOM     29  C   UNL     1     -46.629 -65.727  29.416  0.00  0.00    +0.000 A 
ATOM     30  C   UNL     1     -43.891 -61.513  28.665  0.00  0.00    +0.000 C 
ATOM     31  C   UNL     1     -45.362 -61.489  28.079  0.00  0.00    +0.000 C 
ATOM     32  C   UNL     1     -47.526 -64.609  28.912  0.00  0.00    +0.000 C 
ATOM     33  C   UNL     1     -46.778 -63.514  28.092  0.00  0.00    +0.000 C 
ATOM     34  C   UNL     1     -46.283 -66.857  28.585  0.00  0.00    +0.000 A 
ATOM     35  C   UNL     1     -45.407 -67.662  29.298  0.00  0.00    +0.000 A 
ATOM     36  C   UNL     1     -46.631 -67.255  27.274  0.00  0.00    +0.000 A 
ATOM     37  C   UNL     1     -44.862 -68.846  28.786  0.00  0.00    +0.000 A 
ATOM     38  C   UNL     1     -46.099 -68.435  26.742  0.00  0.00    +0.000 A 
ATOM     39  C   UNL     1     -45.227 -69.219  27.490  0.00  0.00    +0.000 A 
ATOM     40  H   UNL     1     -44.611 -67.438  31.229  0.00  0.00    +0.000 HD
BRANCH  23  42
ATOM     41  O   UNL     1     -48.300 -64.723  32.013  0.00  0.00    +0.000 OA
ATOM     42  C   UNL     1     -47.178 -64.441  32.416  0.00  0.00    +0.000 C 
BRANCH  42  43
ATOM     43  O   UNL     1     -46.955 -63.502  33.395  0.00  0.00    +0.000 OA
ATOM     44  C   UNL     1     -47.899 -62.431  33.397  0.00  0.00    +0.000 C 
ENDBRANCH  42  43
ENDBRANCH  23  42
BRANCH  30  45
ATOM     45  O   UNL     1     -43.490 -60.135  28.871  0.00  0.00    +0.000 OA
ATOM     46  H   UNL     1     -42.553 -60.142  29.138  0.00  0.00    +0.000 HD
ENDBRANCH  30  45
BRANCH  30  47
ATOM     47  C   UNL     1     -42.868 -62.045  27.633  0.00  0.00    +0.000 C 
ATOM     48  C   UNL     1     -42.419 -63.486  27.804  0.00  0.00    +0.000 C 
ENDBRANCH  30  47
ENDBRANCH  19  23
BRANCH   7  49
ATOM     49  O   UNL     1     -43.211 -67.678  39.444  0.00  0.00    +0.000 OA
ATOM     50  H   UNL     1     -42.649 -68.043  40.158  0.00  0.00    +0.000 HD
ENDBRANCH   7  49
BRANCH   7  52
ATOM     51  O   UNL     1     -41.469 -69.642  37.022  0.00  0.00    +0.000 OA
ATOM     52  C   UNL     1     -41.759 -69.088  38.073  0.00  0.00    +0.000 C 
BRANCH  52  53
ATOM     53  O   UNL     1     -41.492 -69.621  39.311  0.00  0.00    +0.000 OA
ATOM     54  C   UNL     1     -40.570 -70.712  39.285  0.00  0.00    +0.000 C 
ENDBRANCH  52  53
ENDBRANCH   7  52
BRANCH  20  55
ATOM     55  O   UNL     1     -47.147 -67.512  32.649  0.00  0.00    +0.000 OA
ATOM     56  C   UNL     1     -47.548 -68.879  32.658  0.00  0.00    +0.000 C 
ENDBRANCH  20  55
BRANCH   6  57
ATOM     57  C   UNL     1     -42.844 -64.595  39.022  0.00  0.00    +0.000 C 
ATOM     58  C   UNL     1     -44.010 -63.806  38.424  0.00  0.00    +0.000 C 
ENDBRANCH   6  57
BRANCH   9  59
ATOM     59  O   UNL     1     -40.054 -66.881  37.789  0.00  0.00    +0.000 OA
BRANCH  59  61
ATOM     60  O   UNL     1     -38.929 -67.043  39.778  0.00  0.00    +0.000 OA
ATOM     61  C   UNL     1     -38.998 -67.230  38.571  0.00  0.00    +0.000 C 
ATOM     62  C   UNL     1     -37.947 -67.907  37.747  0.00  0.00    +0.000 C 
ENDBRANCH  59  61
ENDBRANCH   9  59
TORSDOF 12
ENDMDL
MODEL 8
REMARK VINA RESULT:      -6.2     37.618     41.755
REMARK  Name = 
REMARK  19 active torsions:
REMARK  status: ('A' for Active; 'I' for Inactive)
REMARK    1  A    between atoms: O_1  and  C_20
REMARK    2  A    between atoms: O_1  and  C_36
REMARK    3  A    between atoms: O_2  and  C_18
REMARK    4  A    between atoms: O_3  and  C_28
REMARK    5  A    between atoms: O_3  and  C_42
REMARK    6  A    between atoms: O_5  and  C_34
REMARK    7  A    between atoms: O_5  and  C_50
REMARK    8  A    between atoms: O_7  and  C_40
REMARK    9  A    between atoms: O_7  and  C_56
REMARK   10  A    between atoms: O_9  and  C_46
REMARK   11  A    between atoms: N_11  and  C_30
REMARK   12  A    between atoms: C_17  and  C_23
REMARK   13  A    between atoms: C_18  and  C_28
REMARK   14  A    between atoms: C_23  and  C_32
REMARK   15  A    between atoms: C_33  and  C_35
REMARK   16  A    between atoms: C_35  and  C_40
REMARK   17  A    between atoms: C_36  and  C_41
REMARK   18  A    between atoms: C_46  and  C_53
REMARK   19  A    between atoms: C_53  and  C_57
REMARK                            x       y       z     vdW  Elec       q    Type
REMARK                         _______ _______ _______ _____ _____    ______ ____
ROOT
ATOM      1  N   UNL     1     -51.178 -77.135  63.208  0.00  0.00    +0.000 NA
ATOM      2  N   UNL     1     -48.698 -80.657  61.152  0.00  0.00    +0.000 N 
ATOM      3  C   UNL     1     -49.979 -78.844  62.169  0.00  0.00    +0.000 C 
ATOM      4  C   UNL     1     -50.623 -77.475  61.884  0.00  0.00    +0.000 C 
ATOM      5  C   UNL     1     -49.703 -79.595  60.851  0.00  0.00    +0.000 C 
ATOM      6  C   UNL     1     -51.635 -77.486  60.647  0.00  0.00    +0.000 C 
ATOM      7  C   UNL     1     -50.941 -79.968  60.019  0.00  0.00    +0.000 C 
ATOM      8  C   UNL     1     -50.866 -79.485  63.254  0.00  0.00    +0.000 C 
ATOM      9  C   UNL     1     -52.108 -78.950  60.236  0.00  0.00    +0.000 C 
ATOM     10  C   UNL     1     -48.557 -78.883  62.693  0.00  0.00    +0.000 A 
ATOM     11  C   UNL     1     -51.730 -78.349  63.796  0.00  0.00    +0.000 C 
ATOM     12  C   UNL     1     -47.895 -79.977  62.119  0.00  0.00    +0.000 A 
ATOM     13  C   UNL     1     -52.889 -76.659  60.940  0.00  0.00    +0.000 C 
ATOM     14  C   UNL     1     -52.091 -76.002  63.214  0.00  0.00    +0.000 C 
ATOM     15  C   UNL     1     -53.073 -75.990  62.087  0.00  0.00    +0.000 C 
ATOM     16  C   UNL     1     -47.944 -78.059  63.631  0.00  0.00    +0.000 A 
ATOM     17  C   UNL     1     -47.950 -81.217  60.028  0.00  0.00    +0.000 C 
ATOM     18  C   UNL     1     -46.607 -80.280  62.517  0.00  0.00    +0.000 A 
ATOM     19  C   UNL     1     -46.629 -78.338  64.054  0.00  0.00    +0.000 A 
ATOM     20  C   UNL     1     -45.982 -79.473  63.483  0.00  0.00    +0.000 A 
ENDROOT
BRANCH  19  23
ATOM     21  N   UNL     1     -43.670 -75.621  68.348  0.00  0.00    +0.000 NA
ATOM     22  N   UNL     1     -44.206 -77.018  63.293  0.00  0.00    +0.000 N 
ATOM     23  C   UNL     1     -45.893 -77.451  65.136  0.00  0.00    +0.000 C 
ATOM     24  C   UNL     1     -45.176 -78.356  66.240  0.00  0.00    +0.000 C 
ATOM     25  C   UNL     1     -44.780 -76.572  64.471  0.00  0.00    +0.000 A 
ATOM     26  C   UNL     1     -44.143 -77.664  67.144  0.00  0.00    +0.000 C 
ATOM     27  C   UNL     1     -43.373 -78.599  68.074  0.00  0.00    +0.000 C 
ATOM     28  C   UNL     1     -44.723 -76.568  68.026  0.00  0.00    +0.000 C 
ATOM     29  C   UNL     1     -44.086 -75.400  64.824  0.00  0.00    +0.000 A 
ATOM     30  C   UNL     1     -42.323 -77.825  68.927  0.00  0.00    +0.000 C 
ATOM     31  C   UNL     1     -42.579 -76.273  69.104  0.00  0.00    +0.000 C 
ATOM     32  C   UNL     1     -44.191 -74.499  66.044  0.00  0.00    +0.000 C 
ATOM     33  C   UNL     1     -43.180 -74.845  67.179  0.00  0.00    +0.000 C 
ATOM     34  C   UNL     1     -43.121 -75.153  63.778  0.00  0.00    +0.000 A 
ATOM     35  C   UNL     1     -43.226 -76.175  62.847  0.00  0.00    +0.000 A 
ATOM     36  C   UNL     1     -42.151 -74.149  63.554  0.00  0.00    +0.000 A 
ATOM     37  C   UNL     1     -42.428 -76.253  61.699  0.00  0.00    +0.000 A 
ATOM     38  C   UNL     1     -41.343 -74.207  62.412  0.00  0.00    +0.000 A 
ATOM     39  C   UNL     1     -41.481 -75.246  61.498  0.00  0.00    +0.000 A 
ATOM     40  H   UNL     1     -44.485 -77.856  62.800  0.00  0.00    +0.000 HD
BRANCH  23  42
ATOM     41  O   UNL     1     -47.355 -75.447  65.486  0.00  0.00    +0.000 OA
ATOM     42  C   UNL     1     -47.021 -76.586  65.790  0.00  0.00    +0.000 C 
BRANCH  42  43
ATOM     43  O   UNL     1     -47.649 -77.305  66.779  0.00  0.00    +0.000 OA
ATOM     44  C   UNL     1     -48.995 -76.900  67.024  0.00  0.00    +0.000 C 
ENDBRANCH  42  43
ENDBRANCH  23  42
BRANCH  30  45
ATOM     45  O   UNL     1     -42.387 -78.424  70.246  0.00  0.00    +0.000 OA
ATOM     46  H   UNL     1     -42.457 -79.387  70.124  0.00  0.00    +0.000 HD
ENDBRANCH  30  45
BRANCH  30  47
ATOM     47  C   UNL     1     -40.880 -78.121  68.456  0.00  0.00    +0.000 C 
ATOM     48  C   UNL     1     -40.406 -77.384  67.215  0.00  0.00    +0.000 C 
ENDBRANCH  30  47
ENDBRANCH  19  23
BRANCH   7  49
ATOM     49  O   UNL     1     -50.531 -79.820  58.621  0.00  0.00    +0.000 OA
ATOM     50  H   UNL     1     -50.856 -80.620  58.158  0.00  0.00    +0.000 HD
ENDBRANCH   7  49
BRANCH   7  52
ATOM     51  O   UNL     1     -51.522 -82.002  61.319  0.00  0.00    +0.000 OA
ATOM     52  C   UNL     1     -51.385 -81.435  60.244  0.00  0.00    +0.000 C 
BRANCH  52  53
ATOM     53  O   UNL     1     -51.692 -82.015  59.037  0.00  0.00    +0.000 OA
ATOM     54  C   UNL     1     -51.093 -83.296  58.839  0.00  0.00    +0.000 C 
ENDBRANCH  52  53
ENDBRANCH   7  52
BRANCH  20  55
ATOM     55  O   UNL     1     -44.688 -79.717  63.868  0.00  0.00    +0.000 OA
ATOM     56  C   UNL     1     -44.194 -81.015  63.548  0.00  0.00    +0.000 C 
ENDBRANCH  20  55
BRANCH   6  57
ATOM     57  C   UNL     1     -50.952 -76.814  59.399  0.00  0.00    +0.000 C 
ATOM     58  C   UNL     1     -51.656 -75.588  58.814  0.00  0.00    +0.000 C 
ENDBRANCH   6  57
BRANCH   9  59
ATOM     59  O   UNL     1     -53.058 -79.412  61.226  0.00  0.00    +0.000 OA
BRANCH  59  61
ATOM     60  O   UNL     1     -54.620 -80.077  59.688  0.00  0.00    +0.000 OA
ATOM     61  C   UNL     1     -54.324 -79.667  60.802  0.00  0.00    +0.000 C 
ATOM     62  C   UNL     1     -55.301 -79.409  61.906  0.00  0.00    +0.000 C 
ENDBRANCH  59  61
ENDBRANCH   9  59
TORSDOF 12
ENDMDL
MODEL 9
REMARK VINA RESULT:      -6.2     36.573     41.005
REMARK  Name = 
REMARK  19 active torsions:
REMARK  status: ('A' for Active; 'I' for Inactive)
REMARK    1  A    between atoms: O_1  and  C_20
REMARK    2  A    between atoms: O_1  and  C_36
REMARK    3  A    between atoms: O_2  and  C_18
REMARK    4  A    between atoms: O_3  and  C_28
REMARK    5  A    between atoms: O_3  and  C_42
REMARK    6  A    between atoms: O_5  and  C_34
REMARK    7  A    between atoms: O_5  and  C_50
REMARK    8  A    between atoms: O_7  and  C_40
REMARK    9  A    between atoms: O_7  and  C_56
REMARK   10  A    between atoms: O_9  and  C_46
REMARK   11  A    between atoms: N_11  and  C_30
REMARK   12  A    between atoms: C_17  and  C_23
REMARK   13  A    between atoms: C_18  and  C_28
REMARK   14  A    between atoms: C_23  and  C_32
REMARK   15  A    between atoms: C_33  and  C_35
REMARK   16  A    between atoms: C_35  and  C_40
REMARK   17  A    between atoms: C_36  and  C_41
REMARK   18  A    between atoms: C_46  and  C_53
REMARK   19  A    between atoms: C_53  and  C_57
REMARK                            x       y       z     vdW  Elec       q    Type
REMARK                         _______ _______ _______ _____ _____    ______ ____
ROOT
ATOM      1  N   UNL     1     -60.635 -68.742  40.622  0.00  0.00    +0.000 NA
ATOM      2  N   UNL     1     -63.801 -72.312  40.519  0.00  0.00    +0.000 N 
ATOM      3  C   UNL     1     -62.206 -70.463  40.553  0.00  0.00    +0.000 C 
ATOM      4  C   UNL     1     -61.816 -69.155  39.841  0.00  0.00    +0.000 C 
ATOM      5  C   UNL     1     -63.651 -70.863  40.192  0.00  0.00    +0.000 C 
ATOM      6  C   UNL     1     -63.016 -68.107  39.719  0.00  0.00    +0.000 C 
ATOM      7  C   UNL     1     -64.751 -69.888  40.645  0.00  0.00    +0.000 C 
ATOM      8  C   UNL     1     -61.807 -70.251  42.026  0.00  0.00    +0.000 C 
ATOM      9  C   UNL     1     -64.223 -68.417  40.710  0.00  0.00    +0.000 C 
ATOM     10  C   UNL     1     -61.551 -71.756  40.108  0.00  0.00    +0.000 A 
ATOM     11  C   UNL     1     -60.897 -69.026  42.028  0.00  0.00    +0.000 C 
ATOM     12  C   UNL     1     -62.500 -72.786  40.167  0.00  0.00    +0.000 A 
ATOM     13  C   UNL     1     -62.544 -66.678  39.997  0.00  0.00    +0.000 C 
ATOM     14  C   UNL     1     -60.177 -67.385  40.365  0.00  0.00    +0.000 C 
ATOM     15  C   UNL     1     -61.269 -66.369  40.272  0.00  0.00    +0.000 C 
ATOM     16  C   UNL     1     -60.229 -71.992  39.746  0.00  0.00    +0.000 A 
ATOM     17  C   UNL     1     -64.903 -73.036  39.888  0.00  0.00    +0.000 C 
ATOM     18  C   UNL     1     -62.113 -74.085  39.899  0.00  0.00    +0.000 A 
ATOM     19  C   UNL     1     -59.804 -73.304  39.461  0.00  0.00    +0.000 A 
ATOM     20  C   UNL     1     -60.775 -74.344  39.558  0.00  0.00    +0.000 A 
ENDROOT
BRANCH  19  23
ATOM     21  N   UNL     1     -54.353 -75.149  38.255  0.00  0.00    +0.000 NA
ATOM     22  N   UNL     1     -59.208 -73.800  36.705  0.00  0.00    +0.000 N 
ATOM     23  C   UNL     1     -58.308 -73.633  39.071  0.00  0.00    +0.000 C 
ATOM     24  C   UNL     1     -57.897 -75.106  39.532  0.00  0.00    +0.000 C 
ATOM     25  C   UNL     1     -58.111 -73.569  37.518  0.00  0.00    +0.000 A 
ATOM     26  C   UNL     1     -56.612 -75.692  38.925  0.00  0.00    +0.000 C 
ATOM     27  C   UNL     1     -56.345 -77.156  39.275  0.00  0.00    +0.000 C 
ATOM     28  C   UNL     1     -55.347 -74.930  39.291  0.00  0.00    +0.000 C 
ATOM     29  C   UNL     1     -57.012 -73.415  36.653  0.00  0.00    +0.000 A 
ATOM     30  C   UNL     1     -55.048 -77.682  38.591  0.00  0.00    +0.000 C 
ATOM     31  C   UNL     1     -53.998 -76.581  38.151  0.00  0.00    +0.000 C 
ATOM     32  C   UNL     1     -55.531 -73.222  36.937  0.00  0.00    +0.000 C 
ATOM     33  C   UNL     1     -54.707 -74.545  36.944  0.00  0.00    +0.000 C 
ATOM     34  C   UNL     1     -57.521 -73.514  35.305  0.00  0.00    +0.000 A 
ATOM     35  C   UNL     1     -58.885 -73.751  35.378  0.00  0.00    +0.000 A 
ATOM     36  C   UNL     1     -56.929 -73.438  34.024  0.00  0.00    +0.000 A 
ATOM     37  C   UNL     1     -59.699 -73.909  34.249  0.00  0.00    +0.000 A 
ATOM     38  C   UNL     1     -57.722 -73.591  32.881  0.00  0.00    +0.000 A 
ATOM     39  C   UNL     1     -59.089 -73.823  32.995  0.00  0.00    +0.000 A 
ATOM     40  H   UNL     1     -60.147 -73.966  37.043  0.00  0.00    +0.000 HD
BRANCH  23  42
ATOM     41  O   UNL     1     -56.943 -72.665  40.935  0.00  0.00    +0.000 OA
ATOM     42  C   UNL     1     -57.447 -72.565  39.823  0.00  0.00    +0.000 C 
BRANCH  42  43
ATOM     43  O   UNL     1     -57.287 -71.451  39.032  0.00  0.00    +0.000 OA
ATOM     44  C   UNL     1     -56.263 -70.564  39.480  0.00  0.00    +0.000 C 
ENDBRANCH  42  43
ENDBRANCH  23  42
BRANCH  30  45
ATOM     45  O   UNL     1     -54.403 -78.514  39.588  0.00  0.00    +0.000 OA
ATOM     46  H   UNL     1     -54.259 -77.963  40.378  0.00  0.00    +0.000 HD
ENDBRANCH  30  45
BRANCH  30  47
ATOM     47  C   UNL     1     -55.370 -78.664  37.441  0.00  0.00    +0.000 C 
ATOM     48  C   UNL     1     -55.846 -78.049  36.137  0.00  0.00    +0.000 C 
ENDBRANCH  30  47
ENDBRANCH  19  23
BRANCH   7  49
ATOM     49  O   UNL     1     -65.755 -69.910  39.579  0.00  0.00    +0.000 OA
ATOM     50  H   UNL     1     -65.916 -70.856  39.380  0.00  0.00    +0.000 HD
ENDBRANCH   7  49
BRANCH   7  52
ATOM     51  O   UNL     1     -64.870 -70.645  43.007  0.00  0.00    +0.000 OA
ATOM     52  C   UNL     1     -65.429 -70.334  41.965  0.00  0.00    +0.000 C 
BRANCH  52  53
ATOM     53  O   UNL     1     -66.794 -70.256  41.830  0.00  0.00    +0.000 OA
ATOM     54  C   UNL     1     -67.466 -69.786  43.000  0.00  0.00    +0.000 C 
ENDBRANCH  52  53
ENDBRANCH   7  52
BRANCH  20  55
ATOM     55  O   UNL     1     -60.367 -75.615  39.240  0.00  0.00    +0.000 OA
ATOM     56  C   UNL     1     -61.283 -76.366  38.448  0.00  0.00    +0.000 C 
ENDBRANCH  20  55
BRANCH   6  57
ATOM     57  C   UNL     1     -63.568 -68.105  38.246  0.00  0.00    +0.000 C 
ATOM     58  C   UNL     1     -62.605 -68.577  37.155  0.00  0.00    +0.000 C 
ENDBRANCH   6  57
BRANCH   9  59
ATOM     59  O   UNL     1     -63.817 -68.043  42.048  0.00  0.00    +0.000 OA
BRANCH  59  61
ATOM     60  O   UNL     1     -64.061 -66.365  43.589  0.00  0.00    +0.000 OA
ATOM     61  C   UNL     1     -64.471 -67.001  42.629  0.00  0.00    +0.000 C 
ATOM     62  C   UNL     1     -65.750 -66.724  41.900  0.00  0.00    +0.000 C 
ENDBRANCH  59  61
ENDBRANCH   9  59
TORSDOF 12
ENDMDL
