MODEL 1
REMARK VINA RESULT:      -5.9      0.000      0.000
REMARK  Name = Vorinostat.pdbqt.pdb
REMARK  6 active torsions:
REMARK  status: ('A' for Active; 'I' for Inactive)
REMARK    1  A    between atoms: C_1  and  C_2
REMARK    2  A    between atoms: C_3  and  C_4
REMARK    3  A    between atoms: C_5  and  C_8
REMARK    4  A    between atoms: N_7  and  O_10
REMARK    5  A    between atoms: C_12  and  C_15
REMARK    6  A    between atoms: N_14  and  C_17
REMARK                            x       y       z     vdW  Elec       q    Type
REMARK                         _______ _______ _______ _____ _____    ______ ____
ROOT
ATOM      1  C   UNL     1     -43.841 -55.333  35.530  0.00  0.00    +0.000 C 
ATOM      2  C   UNL     1     -44.069 -53.954  34.905  0.00  0.00    +0.000 C 
ENDROOT
BRANCH   2   5
ATOM      3  O   UNL     1     -43.341 -51.876  34.266  0.00  0.00    +0.000 OA
ATOM      4  N   UNL     1     -45.566 -52.445  33.866  0.00  0.00    +0.000 N 
ATOM      5  C   UNL     1     -44.282 -52.652  34.315  0.00  0.00    +0.000 C 
ATOM      6  H   UNL     1     -46.228 -53.201  33.986  0.00  0.00    +0.000 HD
BRANCH   4   7
ATOM      7  C   UNL     1     -46.039 -51.271  33.254  0.00  0.00    +0.000 A 
ATOM      8  C   UNL     1     -46.337 -50.183  34.075  0.00  0.00    +0.000 A 
ATOM      9  C   UNL     1     -46.217 -51.156  31.876  0.00  0.00    +0.000 A 
ATOM     10  C   UNL     1     -46.810 -48.994  33.526  0.00  0.00    +0.000 A 
ATOM     11  C   UNL     1     -46.690 -49.967  31.323  0.00  0.00    +0.000 A 
ATOM     12  C   UNL     1     -46.986 -48.886  32.149  0.00  0.00    +0.000 A 
ENDBRANCH   4   7
ENDBRANCH   2   5
BRANCH   1  13
ATOM     13  C   UNL     1     -43.613 -56.713  36.153  0.00  0.00    +0.000 C 
ATOM     14  C   UNL     1     -43.386 -58.094  36.777  0.00  0.00    +0.000 C 
BRANCH  14  15
ATOM     15  C   UNL     1     -43.158 -59.473  37.401  0.00  0.00    +0.000 C 
ATOM     16  C   UNL     1     -42.928 -60.853  38.025  0.00  0.00    +0.000 C 
BRANCH  16  19
ATOM     17  O   UNL     1     -42.662 -62.279  39.829  0.00  0.00    +0.000 OA
ATOM     18  N   UNL     1     -42.573 -63.187  37.734  0.00  0.00    +0.000 N 
ATOM     19  C   UNL     1     -42.711 -62.148  38.612  0.00  0.00    +0.000 C 
ATOM     20  H   UNL     1     -42.650 -63.104  36.728  0.00  0.00    +0.000 HD
BRANCH  18  21
ATOM     21  O   UNL     1     -42.392 -64.479  38.272  0.00  0.00    +0.000 OA
ATOM     22  H   UNL     1     -42.131 -65.006  37.485  0.00  0.00    +0.000 HD
ENDBRANCH  18  21
ENDBRANCH  16  19
ENDBRANCH  14  15
ENDBRANCH   1  13
TORSDOF 6
ENDMDL
MODEL 2
REMARK VINA RESULT:      -5.7     20.091     20.565
REMARK  Name = Vorinostat.pdbqt.pdb
REMARK  6 active torsions:
REMARK  status: ('A' for Active; 'I' for Inactive)
REMARK    1  A    between atoms: C_1  and  C_2
REMARK    2  A    between atoms: C_3  and  C_4
REMARK    3  A    between atoms: C_5  and  C_8
REMARK    4  A    between atoms: N_7  and  O_10
REMARK    5  A    between atoms: C_12  and  C_15
REMARK    6  A    between atoms: N_14  and  C_17
REMARK                            x       y       z     vdW  Elec       q    Type
REMARK                         _______ _______ _______ _____ _____    ______ ____
ROOT
ATOM      1  C   UNL     1     -34.811 -47.315  51.834  0.00  0.00    +0.000 C 
ATOM      2  C   UNL     1     -35.365 -46.085  51.110  0.00  0.00    +0.000 C 
ENDROOT
BRANCH   2   5
ATOM      3  O   UNL     1     -35.103 -44.069  50.050  0.00  0.00    +0.000 OA
ATOM      4  N   UNL     1     -37.257 -44.929  50.283  0.00  0.00    +0.000 N 
ATOM      5  C   UNL     1     -35.888 -44.924  50.428  0.00  0.00    +0.000 C 
ATOM      6  H   UNL     1     -37.761 -45.723  50.658  0.00  0.00    +0.000 HD
BRANCH   4   7
ATOM      7  C   UNL     1     -38.018 -43.925  49.660  0.00  0.00    +0.000 A 
ATOM      8  C   UNL     1     -38.527 -44.189  48.388  0.00  0.00    +0.000 A 
ATOM      9  C   UNL     1     -38.279 -42.693  50.259  0.00  0.00    +0.000 A 
ATOM     10  C   UNL     1     -39.288 -43.232  47.721  0.00  0.00    +0.000 A 
ATOM     11  C   UNL     1     -39.041 -41.734  49.594  0.00  0.00    +0.000 A 
ATOM     12  C   UNL     1     -39.545 -42.004  48.325  0.00  0.00    +0.000 A 
ENDBRANCH   4   7
ENDBRANCH   2   5
BRANCH   1  13
ATOM     13  C   UNL     1     -34.255 -48.544  52.560  0.00  0.00    +0.000 C 
ATOM     14  C   UNL     1     -33.699 -49.774  53.285  0.00  0.00    +0.000 C 
BRANCH  14  15
ATOM     15  C   UNL     1     -33.144 -51.003  54.009  0.00  0.00    +0.000 C 
ATOM     16  C   UNL     1     -32.588 -52.232  54.735  0.00  0.00    +0.000 C 
BRANCH  16  19
ATOM     17  O   UNL     1     -31.231 -54.103  54.875  0.00  0.00    +0.000 OA
ATOM     18  N   UNL     1     -32.548 -53.607  56.675  0.00  0.00    +0.000 N 
ATOM     19  C   UNL     1     -32.064 -53.386  55.416  0.00  0.00    +0.000 C 
ATOM     20  H   UNL     1     -33.205 -53.003  57.153  0.00  0.00    +0.000 HD
BRANCH  18  21
ATOM     21  O   UNL     1     -32.033 -54.711  57.389  0.00  0.00    +0.000 OA
ATOM     22  H   UNL     1     -31.272 -54.991  56.835  0.00  0.00    +0.000 HD
ENDBRANCH  18  21
ENDBRANCH  16  19
ENDBRANCH  14  15
ENDBRANCH   1  13
TORSDOF 6
ENDMDL
MODEL 3
REMARK VINA RESULT:      -5.3     19.640     20.054
REMARK  Name = Vorinostat.pdbqt.pdb
REMARK  6 active torsions:
REMARK  status: ('A' for Active; 'I' for Inactive)
REMARK    1  A    between atoms: C_1  and  C_2
REMARK    2  A    between atoms: C_3  and  C_4
REMARK    3  A    between atoms: C_5  and  C_8
REMARK    4  A    between atoms: N_7  and  O_10
REMARK    5  A    between atoms: C_12  and  C_15
REMARK    6  A    between atoms: N_14  and  C_17
REMARK                            x       y       z     vdW  Elec       q    Type
REMARK                         _______ _______ _______ _____ _____    ______ ____
ROOT
ATOM      1  C   UNL     1     -37.121 -44.375  50.994  0.00  0.00    +0.000 C 
ATOM      2  C   UNL     1     -37.917 -43.180  50.462  0.00  0.00    +0.000 C 
ENDROOT
BRANCH   2   5
ATOM      3  O   UNL     1     -38.404 -40.940  50.391  0.00  0.00    +0.000 OA
ATOM      4  N   UNL     1     -39.625 -42.386  49.030  0.00  0.00    +0.000 N 
ATOM      5  C   UNL     1     -38.669 -42.052  49.962  0.00  0.00    +0.000 C 
ATOM      6  H   UNL     1     -39.714 -43.365  48.786  0.00  0.00    +0.000 HD
BRANCH   4   7
ATOM      7  C   UNL     1     -40.491 -41.485  48.387  0.00  0.00    +0.000 A 
ATOM      8  C   UNL     1     -40.007 -40.800  47.272  0.00  0.00    +0.000 A 
ATOM      9  C   UNL     1     -41.797 -41.255  48.817  0.00  0.00    +0.000 A 
ATOM     10  C   UNL     1     -40.819 -39.893  46.594  0.00  0.00    +0.000 A 
ATOM     11  C   UNL     1     -42.612 -40.349  48.140  0.00  0.00    +0.000 A 
ATOM     12  C   UNL     1     -42.123 -39.669  47.029  0.00  0.00    +0.000 A 
ENDBRANCH   4   7
ENDBRANCH   2   5
BRANCH   1  13
ATOM     13  C   UNL     1     -36.326 -45.570  51.527  0.00  0.00    +0.000 C 
ATOM     14  C   UNL     1     -35.529 -46.765  52.060  0.00  0.00    +0.000 C 
BRANCH  14  15
ATOM     15  C   UNL     1     -34.733 -47.959  52.593  0.00  0.00    +0.000 C 
ATOM     16  C   UNL     1     -33.935 -49.154  53.124  0.00  0.00    +0.000 C 
BRANCH  16  19
ATOM     17  O   UNL     1     -31.961 -50.287  53.550  0.00  0.00    +0.000 OA
ATOM     18  N   UNL     1     -33.918 -51.289  54.172  0.00  0.00    +0.000 N 
ATOM     19  C   UNL     1     -33.184 -50.275  53.623  0.00  0.00    +0.000 C 
ATOM     20  H   UNL     1     -34.925 -51.279  54.277  0.00  0.00    +0.000 HD
BRANCH  18  21
ATOM     21  O   UNL     1     -33.215 -52.393  54.703  0.00  0.00    +0.000 OA
ATOM     22  H   UNL     1     -32.276 -52.130  54.580  0.00  0.00    +0.000 HD
ENDBRANCH  18  21
ENDBRANCH  16  19
ENDBRANCH  14  15
ENDBRANCH   1  13
TORSDOF 6
ENDMDL
MODEL 4
REMARK VINA RESULT:      -5.3     20.508     23.761
REMARK  Name = Vorinostat.pdbqt.pdb
REMARK  6 active torsions:
REMARK  status: ('A' for Active; 'I' for Inactive)
REMARK    1  A    between atoms: C_1  and  C_2
REMARK    2  A    between atoms: C_3  and  C_4
REMARK    3  A    between atoms: C_5  and  C_8
REMARK    4  A    between atoms: N_7  and  O_10
REMARK    5  A    between atoms: C_12  and  C_15
REMARK    6  A    between atoms: N_14  and  C_17
REMARK                            x       y       z     vdW  Elec       q    Type
REMARK                         _______ _______ _______ _____ _____    ______ ____
ROOT
ATOM      1  C   UNL     1     -34.619 -47.336  52.278  0.00  0.00    +0.000 C 
ATOM      2  C   UNL     1     -33.694 -48.450  52.778  0.00  0.00    +0.000 C 
ENDROOT
BRANCH   2   5
ATOM      3  O   UNL     1     -31.630 -49.255  53.368  0.00  0.00    +0.000 OA
ATOM      4  N   UNL     1     -33.465 -50.686  53.519  0.00  0.00    +0.000 N 
ATOM      5  C   UNL     1     -32.821 -49.499  53.250  0.00  0.00    +0.000 C 
ATOM      6  H   UNL     1     -34.465 -50.717  53.365  0.00  0.00    +0.000 HD
BRANCH   4   7
ATOM      7  C   UNL     1     -32.853 -51.861  53.988  0.00  0.00    +0.000 A 
ATOM      8  C   UNL     1     -32.313 -52.735  53.044  0.00  0.00    +0.000 A 
ATOM      9  C   UNL     1     -32.768 -52.180  55.342  0.00  0.00    +0.000 A 
ATOM     10  C   UNL     1     -31.694 -53.916  53.449  0.00  0.00    +0.000 A 
ATOM     11  C   UNL     1     -32.149 -53.360  55.751  0.00  0.00    +0.000 A 
ATOM     12  C   UNL     1     -31.612 -54.228  54.803  0.00  0.00    +0.000 A 
ENDBRANCH   4   7
ENDBRANCH   2   5
BRANCH   1  13
ATOM     13  C   UNL     1     -35.545 -46.223  51.781  0.00  0.00    +0.000 C 
ATOM     14  C   UNL     1     -36.471 -45.109  51.282  0.00  0.00    +0.000 C 
BRANCH  14  15
ATOM     15  C   UNL     1     -37.396 -43.995  50.784  0.00  0.00    +0.000 C 
ATOM     16  C   UNL     1     -38.320 -42.880  50.286  0.00  0.00    +0.000 C 
BRANCH  16  19
ATOM     17  O   UNL     1     -39.132 -40.712  50.313  0.00  0.00    +0.000 OA
ATOM     18  N   UNL     1     -40.042 -42.169  48.807  0.00  0.00    +0.000 N 
ATOM     19  C   UNL     1     -39.187 -41.831  49.818  0.00  0.00    +0.000 C 
ATOM     20  H   UNL     1     -40.074 -43.077  48.359  0.00  0.00    +0.000 HD
BRANCH  18  21
ATOM     21  O   UNL     1     -40.886 -41.158  48.298  0.00  0.00    +0.000 OA
ATOM     22  H   UNL     1     -40.359 -40.343  48.446  0.00  0.00    +0.000 HD
ENDBRANCH  18  21
ENDBRANCH  16  19
ENDBRANCH  14  15
ENDBRANCH   1  13
TORSDOF 6
ENDMDL
MODEL 5
REMARK VINA RESULT:      -5.1      9.755     11.031
REMARK  Name = Vorinostat.pdbqt.pdb
REMARK  6 active torsions:
REMARK  status: ('A' for Active; 'I' for Inactive)
REMARK    1  A    between atoms: C_1  and  C_2
REMARK    2  A    between atoms: C_3  and  C_4
REMARK    3  A    between atoms: C_5  and  C_8
REMARK    4  A    between atoms: N_7  and  O_10
REMARK    5  A    between atoms: C_12  and  C_15
REMARK    6  A    between atoms: N_14  and  C_17
REMARK                            x       y       z     vdW  Elec       q    Type
REMARK                         _______ _______ _______ _____ _____    ______ ____
ROOT
ATOM      1  C   UNL     1     -47.278 -62.686  36.559  0.00  0.00    +0.000 C 
ATOM      2  C   UNL     1     -47.398 -62.761  35.034  0.00  0.00    +0.000 C 
ENDROOT
BRANCH   2   5
ATOM      3  O   UNL     1     -47.796 -61.813  32.985  0.00  0.00    +0.000 OA
ATOM      4  N   UNL     1     -47.270 -64.082  33.076  0.00  0.00    +0.000 N 
ATOM      5  C   UNL     1     -47.510 -62.831  33.596  0.00  0.00    +0.000 C 
ATOM      6  H   UNL     1     -47.043 -64.822  33.729  0.00  0.00    +0.000 HD
BRANCH   4   7
ATOM      7  C   UNL     1     -47.313 -64.424  31.713  0.00  0.00    +0.000 A 
ATOM      8  C   UNL     1     -48.156 -65.468  31.330  0.00  0.00    +0.000 A 
ATOM      9  C   UNL     1     -46.555 -63.767  30.745  0.00  0.00    +0.000 A 
ATOM     10  C   UNL     1     -48.240 -65.852  29.994  0.00  0.00    +0.000 A 
ATOM     11  C   UNL     1     -46.637 -64.149  29.407  0.00  0.00    +0.000 A 
ATOM     12  C   UNL     1     -47.480 -65.192  29.032  0.00  0.00    +0.000 A 
ENDBRANCH   4   7
ENDBRANCH   2   5
BRANCH   1  13
ATOM     13  C   UNL     1     -47.157 -62.612  38.084  0.00  0.00    +0.000 C 
ATOM     14  C   UNL     1     -47.035 -62.537  39.609  0.00  0.00    +0.000 C 
BRANCH  14  15
ATOM     15  C   UNL     1     -46.913 -62.462  41.133  0.00  0.00    +0.000 C 
ATOM     16  C   UNL     1     -46.790 -62.386  42.659  0.00  0.00    +0.000 C 
BRANCH  16  19
ATOM     17  O   UNL     1     -45.592 -62.493  44.636  0.00  0.00    +0.000 OA
ATOM     18  N   UNL     1     -47.825 -62.030  44.769  0.00  0.00    +0.000 N 
ATOM     19  C   UNL     1     -46.673 -62.313  44.090  0.00  0.00    +0.000 C 
ATOM     20  H   UNL     1     -48.719 -61.840  44.333  0.00  0.00    +0.000 HD
BRANCH  18  21
ATOM     21  O   UNL     1     -47.746 -61.917  46.175  0.00  0.00    +0.000 OA
ATOM     22  H   UNL     1     -48.684 -62.005  46.452  0.00  0.00    +0.000 HD
ENDBRANCH  18  21
ENDBRANCH  16  19
ENDBRANCH  14  15
ENDBRANCH   1  13
TORSDOF 6
ENDMDL
MODEL 6
REMARK VINA RESULT:      -5.0      6.902     12.339
REMARK  Name = Vorinostat.pdbqt.pdb
REMARK  6 active torsions:
REMARK  status: ('A' for Active; 'I' for Inactive)
REMARK    1  A    between atoms: C_1  and  C_2
REMARK    2  A    between atoms: C_3  and  C_4
REMARK    3  A    between atoms: C_5  and  C_8
REMARK    4  A    between atoms: N_7  and  O_10
REMARK    5  A    between atoms: C_12  and  C_15
REMARK    6  A    between atoms: N_14  and  C_17
REMARK                            x       y       z     vdW  Elec       q    Type
REMARK                         _______ _______ _______ _____ _____    ______ ____
ROOT
ATOM      1  C   UNL     1     -46.221 -61.303  33.713  0.00  0.00    +0.000 C 
ATOM      2  C   UNL     1     -46.970 -62.607  33.422  0.00  0.00    +0.000 C 
ENDROOT
BRANCH   2   5
ATOM      3  O   UNL     1     -48.857 -63.908  33.454  0.00  0.00    +0.000 OA
ATOM      4  N   UNL     1     -46.904 -64.807  32.555  0.00  0.00    +0.000 N 
ATOM      5  C   UNL     1     -47.677 -63.836  33.148  0.00  0.00    +0.000 C 
ATOM      6  H   UNL     1     -45.935 -64.580  32.369  0.00  0.00    +0.000 HD
BRANCH   4   7
ATOM      7  C   UNL     1     -47.342 -66.091  32.185  0.00  0.00    +0.000 A 
ATOM      8  C   UNL     1     -48.398 -66.181  31.276  0.00  0.00    +0.000 A 
ATOM      9  C   UNL     1     -46.769 -67.259  32.685  0.00  0.00    +0.000 A 
ATOM     10  C   UNL     1     -48.876 -67.426  30.872  0.00  0.00    +0.000 A 
ATOM     11  C   UNL     1     -47.245 -68.506  32.282  0.00  0.00    +0.000 A 
ATOM     12  C   UNL     1     -48.298 -68.588  31.376  0.00  0.00    +0.000 A 
ENDBRANCH   4   7
ENDBRANCH   2   5
BRANCH   1  13
ATOM     13  C   UNL     1     -45.474 -59.999  34.004  0.00  0.00    +0.000 C 
ATOM     14  C   UNL     1     -44.727 -58.693  34.296  0.00  0.00    +0.000 C 
BRANCH  14  15
ATOM     15  C   UNL     1     -43.981 -57.388  34.588  0.00  0.00    +0.000 C 
ATOM     16  C   UNL     1     -43.236 -56.082  34.880  0.00  0.00    +0.000 C 
BRANCH  16  19
ATOM     17  O   UNL     1     -41.425 -54.654  34.686  0.00  0.00    +0.000 OA
ATOM     18  N   UNL     1     -43.197 -53.958  35.949  0.00  0.00    +0.000 N 
ATOM     19  C   UNL     1     -42.538 -54.855  35.155  0.00  0.00    +0.000 C 
ATOM     20  H   UNL     1     -44.133 -54.090  36.312  0.00  0.00    +0.000 HD
BRANCH  18  21
ATOM     21  O   UNL     1     -42.559 -52.727  36.215  0.00  0.00    +0.000 OA
ATOM     22  H   UNL     1     -42.442 -52.751  37.191  0.00  0.00    +0.000 HD
ENDBRANCH  18  21
ENDBRANCH  16  19
ENDBRANCH  14  15
ENDBRANCH   1  13
TORSDOF 6
ENDMDL
MODEL 7
REMARK VINA RESULT:      -5.0     20.006     22.722
REMARK  Name = Vorinostat.pdbqt.pdb
REMARK  6 active torsions:
REMARK  status: ('A' for Active; 'I' for Inactive)
REMARK    1  A    between atoms: C_1  and  C_2
REMARK    2  A    between atoms: C_3  and  C_4
REMARK    3  A    between atoms: C_5  and  C_8
REMARK    4  A    between atoms: N_7  and  O_10
REMARK    5  A    between atoms: C_12  and  C_15
REMARK    6  A    between atoms: N_14  and  C_17
REMARK                            x       y       z     vdW  Elec       q    Type
REMARK                         _______ _______ _______ _____ _____    ______ ____
ROOT
ATOM      1  C   UNL     1     -37.636 -43.330  49.907  0.00  0.00    +0.000 C 
ATOM      2  C   UNL     1     -36.344 -44.056  50.294  0.00  0.00    +0.000 C 
ENDROOT
BRANCH   2   5
ATOM      3  O   UNL     1     -34.073 -44.129  50.597  0.00  0.00    +0.000 OA
ATOM      4  N   UNL     1     -35.314 -46.051  51.041  0.00  0.00    +0.000 N 
ATOM      5  C   UNL     1     -35.126 -44.743  50.657  0.00  0.00    +0.000 C 
ATOM      6  H   UNL     1     -36.263 -46.406  51.034  0.00  0.00    +0.000 HD
BRANCH   4   7
ATOM      7  C   UNL     1     -34.302 -46.940  51.442  0.00  0.00    +0.000 A 
ATOM      8  C   UNL     1     -33.590 -47.609  50.445  0.00  0.00    +0.000 A 
ATOM      9  C   UNL     1     -33.988 -47.174  52.781  0.00  0.00    +0.000 A 
ATOM     10  C   UNL     1     -32.576 -48.502  50.782  0.00  0.00    +0.000 A 
ATOM     11  C   UNL     1     -32.973 -48.067  53.120  0.00  0.00    +0.000 A 
ATOM     12  C   UNL     1     -32.267 -48.731  52.121  0.00  0.00    +0.000 A 
ENDBRANCH   4   7
ENDBRANCH   2   5
BRANCH   1  13
ATOM     13  C   UNL     1     -38.926 -42.603  49.519  0.00  0.00    +0.000 C 
ATOM     14  C   UNL     1     -40.217 -41.876  49.130  0.00  0.00    +0.000 C 
BRANCH  14  15
ATOM     15  C   UNL     1     -41.507 -41.149  48.741  0.00  0.00    +0.000 C 
ATOM     16  C   UNL     1     -42.797 -40.419  48.352  0.00  0.00    +0.000 C 
BRANCH  16  19
ATOM     17  O   UNL     1     -45.077 -40.046  48.493  0.00  0.00    +0.000 OA
ATOM     18  N   UNL     1     -43.871 -38.736  47.060  0.00  0.00    +0.000 N 
ATOM     19  C   UNL     1     -44.007 -39.734  47.985  0.00  0.00    +0.000 C 
ATOM     20  H   UNL     1     -42.991 -38.438  46.660  0.00  0.00    +0.000 HD
BRANCH  18  21
ATOM     21  O   UNL     1     -45.031 -38.017  46.698  0.00  0.00    +0.000 OA
ATOM     22  H   UNL     1     -45.488 -37.896  47.560  0.00  0.00    +0.000 HD
ENDBRANCH  18  21
ENDBRANCH  16  19
ENDBRANCH  14  15
ENDBRANCH   1  13
TORSDOF 6
ENDMDL
MODEL 8
REMARK VINA RESULT:      -5.0     21.593     25.000
REMARK  Name = Vorinostat.pdbqt.pdb
REMARK  6 active torsions:
REMARK  status: ('A' for Active; 'I' for Inactive)
REMARK    1  A    between atoms: C_1  and  C_2
REMARK    2  A    between atoms: C_3  and  C_4
REMARK    3  A    between atoms: C_5  and  C_8
REMARK    4  A    between atoms: N_7  and  O_10
REMARK    5  A    between atoms: C_12  and  C_15
REMARK    6  A    between atoms: N_14  and  C_17
REMARK                            x       y       z     vdW  Elec       q    Type
REMARK                         _______ _______ _______ _____ _____    ______ ____
ROOT
ATOM      1  C   UNL     1     -33.726 -49.504  53.226  0.00  0.00    +0.000 C 
ATOM      2  C   UNL     1     -33.030 -50.759  53.762  0.00  0.00    +0.000 C 
ENDROOT
BRANCH   2   5
ATOM      3  O   UNL     1     -32.487 -52.983  53.639  0.00  0.00    +0.000 OA
ATOM      4  N   UNL     1     -31.679 -51.740  55.438  0.00  0.00    +0.000 N 
ATOM      5  C   UNL     1     -32.374 -51.942  54.268  0.00  0.00    +0.000 C 
ATOM      6  H   UNL     1     -31.689 -50.806  55.829  0.00  0.00    +0.000 HD
BRANCH   4   7
ATOM      7  C   UNL     1     -30.955 -52.719  56.140  0.00  0.00    +0.000 A 
ATOM      8  C   UNL     1     -29.668 -53.023  55.692  0.00  0.00    +0.000 A 
ATOM      9  C   UNL     1     -31.467 -53.387  57.251  0.00  0.00    +0.000 A 
ATOM     10  C   UNL     1     -28.903 -53.986  56.347  0.00  0.00    +0.000 A 
ATOM     11  C   UNL     1     -30.704 -54.350  57.908  0.00  0.00    +0.000 A 
ATOM     12  C   UNL     1     -29.421 -54.649  57.456  0.00  0.00    +0.000 A 
ENDBRANCH   4   7
ENDBRANCH   2   5
BRANCH   1  13
ATOM     13  C   UNL     1     -34.424 -48.251  52.690  0.00  0.00    +0.000 C 
ATOM     14  C   UNL     1     -35.122 -46.998  52.153  0.00  0.00    +0.000 C 
BRANCH  14  15
ATOM     15  C   UNL     1     -35.819 -45.745  51.616  0.00  0.00    +0.000 C 
ATOM     16  C   UNL     1     -36.516 -44.490  51.079  0.00  0.00    +0.000 C 
BRANCH  16  19
ATOM     17  O   UNL     1     -36.720 -42.199  50.824  0.00  0.00    +0.000 OA
ATOM     18  N   UNL     1     -38.285 -43.525  49.818  0.00  0.00    +0.000 N 
ATOM     19  C   UNL     1     -37.168 -43.311  50.576  0.00  0.00    +0.000 C 
ATOM     20  H   UNL     1     -38.647 -44.437  49.569  0.00  0.00    +0.000 HD
BRANCH  18  21
ATOM     21  O   UNL     1     -38.935 -42.393  49.277  0.00  0.00    +0.000 OA
ATOM     22  H   UNL     1     -39.783 -42.374  49.773  0.00  0.00    +0.000 HD
ENDBRANCH  18  21
ENDBRANCH  16  19
ENDBRANCH  14  15
ENDBRANCH   1  13
TORSDOF 6
ENDMDL
MODEL 9
REMARK VINA RESULT:      -4.8      3.891     12.834
REMARK  Name = Vorinostat.pdbqt.pdb
REMARK  6 active torsions:
REMARK  status: ('A' for Active; 'I' for Inactive)
REMARK    1  A    between atoms: C_1  and  C_2
REMARK    2  A    between atoms: C_3  and  C_4
REMARK    3  A    between atoms: C_5  and  C_8
REMARK    4  A    between atoms: N_7  and  O_10
REMARK    5  A    between atoms: C_12  and  C_15
REMARK    6  A    between atoms: N_14  and  C_17
REMARK                            x       y       z     vdW  Elec       q    Type
REMARK                         _______ _______ _______ _____ _____    ______ ____
ROOT
ATOM      1  C   UNL     1     -43.393 -60.661  38.155  0.00  0.00    +0.000 C 
ATOM      2  C   UNL     1     -43.626 -61.983  38.893  0.00  0.00    +0.000 C 
ENDROOT
BRANCH   2   5
ATOM      3  O   UNL     1     -43.529 -63.300  40.767  0.00  0.00    +0.000 OA
ATOM      4  N   UNL     1     -44.409 -64.214  38.811  0.00  0.00    +0.000 N 
ATOM      5  C   UNL     1     -43.847 -63.229  39.590  0.00  0.00    +0.000 C 
ATOM      6  H   UNL     1     -44.611 -63.985  37.846  0.00  0.00    +0.000 HD
BRANCH   4   7
ATOM      7  C   UNL     1     -44.727 -65.514  39.240  0.00  0.00    +0.000 A 
ATOM      8  C   UNL     1     -43.672 -66.363  39.580  0.00  0.00    +0.000 A 
ATOM      9  C   UNL     1     -46.037 -65.979  39.337  0.00  0.00    +0.000 A 
ATOM     10  C   UNL     1     -43.926 -67.663  40.012  0.00  0.00    +0.000 A 
ATOM     11  C   UNL     1     -46.294 -67.280  39.769  0.00  0.00    +0.000 A 
ATOM     12  C   UNL     1     -45.237 -68.121  40.106  0.00  0.00    +0.000 A 
ENDBRANCH   4   7
ENDBRANCH   2   5
BRANCH   1  13
ATOM     13  C   UNL     1     -43.162 -59.340  37.416  0.00  0.00    +0.000 C 
ATOM     14  C   UNL     1     -42.930 -58.018  36.677  0.00  0.00    +0.000 C 
BRANCH  14  15
ATOM     15  C   UNL     1     -42.698 -56.697  35.939  0.00  0.00    +0.000 C 
ATOM     16  C   UNL     1     -42.464 -55.375  35.201  0.00  0.00    +0.000 C 
BRANCH  16  19
ATOM     17  O   UNL     1     -41.733 -53.182  35.083  0.00  0.00    +0.000 OA
ATOM     18  N   UNL     1     -42.627 -54.108  33.195  0.00  0.00    +0.000 N 
ATOM     19  C   UNL     1     -42.243 -54.135  34.506  0.00  0.00    +0.000 C 
ATOM     20  H   UNL     1     -43.012 -54.897  32.691  0.00  0.00    +0.000 HD
BRANCH  18  21
ATOM     21  O   UNL     1     -42.396 -52.918  32.470  0.00  0.00    +0.000 OA
ATOM     22  H   UNL     1     -42.801 -52.233  33.046  0.00  0.00    +0.000 HD
ENDBRANCH  18  21
ENDBRANCH  16  19
ENDBRANCH  14  15
ENDBRANCH   1  13
TORSDOF 6
ENDMDL
