MODEL 1
REMARK VINA RESULT:      -7.3      0.000      0.000
REMARK  Name = 10074640_Masitinib.pdbqt.pdb
REMARK  6 active torsions:
REMARK  status: ('A' for Active; 'I' for Inactive)
REMARK    1  A    between atoms: C_1  and  N_22
REMARK    2  A    between atoms: C_2  and  N_9
REMARK    3  A    between atoms: C_12  and  C_16
REMARK    4  A    between atoms: C_23  and  C_30
REMARK    5  A    between atoms: C_25  and  C_31
REMARK    6  A    between atoms: C_31  and  N_32
REMARK                            x       y       z     vdW  Elec       q    Type
REMARK                         _______ _______ _______ _____ _____    ______ ____
ROOT
ATOM      1  C   UNL     1     -22.905  12.444   8.003  0.00  0.00    +0.000 A 
ATOM      2  C   UNL     1     -24.061  11.263   6.196  0.00  0.00    +0.000 A 
ATOM      3  C   UNL     1     -23.716  12.444   6.866  0.00  0.00    +0.000 A 
ATOM      4  C   UNL     1     -23.555  10.056   6.717  0.00  0.00    +0.000 A 
ATOM      5  C   UNL     1     -22.402  11.236   8.479  0.00  0.00    +0.000 A 
ATOM      6  C   UNL     1     -22.733  10.042   7.844  0.00  0.00    +0.000 A 
ATOM      7  C   UNL     1     -23.890   8.732   6.061  0.00  0.00    +0.000 C 
ENDROOT
BRANCH   2   9
ATOM      8  S   UNL     1     -25.536  11.277   2.439  0.00  0.00    +0.000 S 
ATOM      9  N   UNL     1     -24.848  11.272   5.019  0.00  0.00    +0.000 N 
ATOM     10  N   UNL     1     -23.209  10.743   3.378  0.00  0.00    +0.000 NA
ATOM     11  C   UNL     1     -24.422  11.088   3.750  0.00  0.00    +0.000 A 
ATOM     12  C   UNL     1     -23.115  10.649   2.003  0.00  0.00    +0.000 A 
ATOM     13  C   UNL     1     -24.291  10.912   1.344  0.00  0.00    +0.000 A 
ATOM     14  H   UNL     1     -25.840  11.418   5.192  0.00  0.00    +0.000 HD
BRANCH  12  16
ATOM     15  N   UNL     1     -20.775   9.225  -0.534  0.00  0.00    +0.000 NA
ATOM     16  C   UNL     1     -21.879  10.290   1.344  0.00  0.00    +0.000 A 
ATOM     17  C   UNL     1     -20.638  10.656   1.857  0.00  0.00    +0.000 A 
ATOM     18  C   UNL     1     -21.890   9.573   0.156  0.00  0.00    +0.000 A 
ATOM     19  C   UNL     1     -19.470  10.307   1.188  0.00  0.00    +0.000 A 
ATOM     20  C   UNL     1     -19.595   9.598   0.005  0.00  0.00    +0.000 A 
ENDBRANCH  12  16
ENDBRANCH   2   9
BRANCH   1  22
ATOM     21  O   UNL     1     -24.039  13.499  10.461  0.00  0.00    +0.000 OA
ATOM     22  N   UNL     1     -22.548  13.624   8.687  0.00  0.00    +0.000 N 
ATOM     23  C   UNL     1     -23.168  14.092   9.836  0.00  0.00    +0.000 C 
ATOM     24  H   UNL     1     -21.759  14.137   8.310  0.00  0.00    +0.000 HD
BRANCH  23  30
ATOM     25  C   UNL     1     -21.925  17.908  11.292  0.00  0.00    +0.000 A 
ATOM     26  C   UNL     1     -20.960  16.988  10.889  0.00  0.00    +0.000 A 
ATOM     27  C   UNL     1     -23.277  17.585  11.224  0.00  0.00    +0.000 A 
ATOM     28  C   UNL     1     -21.351  15.737  10.415  0.00  0.00    +0.000 A 
ATOM     29  C   UNL     1     -23.666  16.334  10.752  0.00  0.00    +0.000 A 
ATOM     30  C   UNL     1     -22.704  15.405  10.346  0.00  0.00    +0.000 A 
BRANCH  25  31
ATOM     31  C   UNL     1     -21.525  19.189  11.776  0.00  0.00    +0.000 C 
BRANCH  31  32
ATOM     32  N   UNL     1     -21.115  20.497  12.272  0.00  0.00    +0.000 N 
ATOM     33  N   UNL     1     -22.904  21.686  15.098  0.00  0.00    +0.000 N 
ATOM     34  C   UNL     1     -22.351  21.318  12.397  0.00  0.00    +0.000 C 
ATOM     35  C   UNL     1     -20.881  20.350  13.736  0.00  0.00    +0.000 C 
ATOM     36  C   UNL     1     -23.130  21.847  13.636  0.00  0.00    +0.000 C 
ATOM     37  C   UNL     1     -21.660  20.878  14.974  0.00  0.00    +0.000 C 
ATOM     38  C   UNL     1     -22.514  22.991  15.615  0.00  0.00    +0.000 C 
ENDBRANCH  31  32
ENDBRANCH  25  31
ENDBRANCH  23  30
ENDBRANCH   1  22
TORSDOF 6
ENDMDL
MODEL 2
REMARK VINA RESULT:      -7.2     16.207     19.076
REMARK  Name = 10074640_Masitinib.pdbqt.pdb
REMARK  6 active torsions:
REMARK  status: ('A' for Active; 'I' for Inactive)
REMARK    1  A    between atoms: C_1  and  N_22
REMARK    2  A    between atoms: C_2  and  N_9
REMARK    3  A    between atoms: C_12  and  C_16
REMARK    4  A    between atoms: C_23  and  C_30
REMARK    5  A    between atoms: C_25  and  C_31
REMARK    6  A    between atoms: C_31  and  N_32
REMARK                            x       y       z     vdW  Elec       q    Type
REMARK                         _______ _______ _______ _____ _____    ______ ____
ROOT
ATOM      1  C   UNL     1     -14.311   4.485  22.455  0.00  0.00    +0.000 A 
ATOM      2  C   UNL     1     -12.083   5.446  22.792  0.00  0.00    +0.000 A 
ATOM      3  C   UNL     1     -13.359   5.477  22.213  0.00  0.00    +0.000 A 
ATOM      4  C   UNL     1     -11.790   4.361  23.642  0.00  0.00    +0.000 A 
ATOM      5  C   UNL     1     -13.996   3.438  23.319  0.00  0.00    +0.000 A 
ATOM      6  C   UNL     1     -12.735   3.370  23.905  0.00  0.00    +0.000 A 
ATOM      7  C   UNL     1     -10.430   4.244  24.301  0.00  0.00    +0.000 C 
ENDROOT
BRANCH   2   9
ATOM      8  S   UNL     1      -9.257   7.981  21.423  0.00  0.00    +0.000 S 
ATOM      9  N   UNL     1     -11.137   6.476  22.577  0.00  0.00    +0.000 N 
ATOM     10  N   UNL     1     -10.688   6.197  20.258  0.00  0.00    +0.000 NA
ATOM     11  C   UNL     1     -10.480   6.756  21.430  0.00  0.00    +0.000 A 
ATOM     12  C   UNL     1      -9.835   6.713  19.301  0.00  0.00    +0.000 A 
ATOM     13  C   UNL     1      -8.993   7.690  19.772  0.00  0.00    +0.000 A 
ATOM     14  H   UNL     1     -10.976   7.060  23.396  0.00  0.00    +0.000 HD
BRANCH  12  16
ATOM     15  N   UNL     1     -10.492   4.542  16.335  0.00  0.00    +0.000 NA
ATOM     16  C   UNL     1      -9.861   6.257  17.929  0.00  0.00    +0.000 A 
ATOM     17  C   UNL     1      -9.362   7.032  16.886  0.00  0.00    +0.000 A 
ATOM     18  C   UNL     1     -10.406   5.024  17.600  0.00  0.00    +0.000 A 
ATOM     19  C   UNL     1      -9.418   6.569  15.576  0.00  0.00    +0.000 A 
ATOM     20  C   UNL     1      -9.991   5.328  15.358  0.00  0.00    +0.000 A 
ENDBRANCH  12  16
ENDBRANCH   2   9
BRANCH   1  22
ATOM     21  O   UNL     1     -16.707   5.769  23.478  0.00  0.00    +0.000 OA
ATOM     22  N   UNL     1     -15.598   4.503  21.881  0.00  0.00    +0.000 N 
ATOM     23  C   UNL     1     -16.712   5.100  22.452  0.00  0.00    +0.000 C 
ATOM     24  H   UNL     1     -15.686   4.068  20.970  0.00  0.00    +0.000 HD
BRANCH  23  30
ATOM     25  C   UNL     1     -20.370   4.643  20.298  0.00  0.00    +0.000 A 
ATOM     26  C   UNL     1     -20.366   4.454  21.678  0.00  0.00    +0.000 A 
ATOM     27  C   UNL     1     -19.194   4.973  19.631  0.00  0.00    +0.000 A 
ATOM     28  C   UNL     1     -19.178   4.596  22.393  0.00  0.00    +0.000 A 
ATOM     29  C   UNL     1     -18.008   5.114  20.347  0.00  0.00    +0.000 A 
ATOM     30  C   UNL     1     -17.996   4.925  21.731  0.00  0.00    +0.000 A 
BRANCH  25  31
ATOM     31  C   UNL     1     -21.585   4.499  19.566  0.00  0.00    +0.000 C 
BRANCH  31  32
ATOM     32  N   UNL     1     -22.826   4.353  18.815  0.00  0.00    +0.000 N 
ATOM     33  N   UNL     1     -23.054   6.294  15.851  0.00  0.00    +0.000 N 
ATOM     34  C   UNL     1     -23.340   5.727  18.559  0.00  0.00    +0.000 C 
ATOM     35  C   UNL     1     -22.445   4.068  17.403  0.00  0.00    +0.000 C 
ATOM     36  C   UNL     1     -23.448   6.574  17.259  0.00  0.00    +0.000 C 
ATOM     37  C   UNL     1     -22.552   4.915  16.103  0.00  0.00    +0.000 C 
ATOM     38  C   UNL     1     -24.283   6.167  15.081  0.00  0.00    +0.000 C 
ENDBRANCH  31  32
ENDBRANCH  25  31
ENDBRANCH  23  30
ENDBRANCH   1  22
TORSDOF 6
ENDMDL
MODEL 3
REMARK VINA RESULT:      -6.9     19.536     21.103
REMARK  Name = 10074640_Masitinib.pdbqt.pdb
REMARK  6 active torsions:
REMARK  status: ('A' for Active; 'I' for Inactive)
REMARK    1  A    between atoms: C_1  and  N_22
REMARK    2  A    between atoms: C_2  and  N_9
REMARK    3  A    between atoms: C_12  and  C_16
REMARK    4  A    between atoms: C_23  and  C_30
REMARK    5  A    between atoms: C_25  and  C_31
REMARK    6  A    between atoms: C_31  and  N_32
REMARK                            x       y       z     vdW  Elec       q    Type
REMARK                         _______ _______ _______ _____ _____    ______ ____
ROOT
ATOM      1  C   UNL     1      -9.221   4.423  17.605  0.00  0.00    +0.000 A 
ATOM      2  C   UNL     1      -7.063   3.556  16.839  0.00  0.00    +0.000 A 
ATOM      3  C   UNL     1      -8.073   3.655  17.805  0.00  0.00    +0.000 A 
ATOM      4  C   UNL     1      -7.249   4.271  15.640  0.00  0.00    +0.000 A 
ATOM      5  C   UNL     1      -9.385   5.099  16.399  0.00  0.00    +0.000 A 
ATOM      6  C   UNL     1      -8.397   5.032  15.420  0.00  0.00    +0.000 A 
ATOM      7  C   UNL     1      -6.200   4.229  14.546  0.00  0.00    +0.000 C 
ENDROOT
BRANCH   2   9
ATOM      8  S   UNL     1      -4.288   0.629  16.986  0.00  0.00    +0.000 S 
ATOM      9  N   UNL     1      -5.921   2.741  17.029  0.00  0.00    +0.000 N 
ATOM     10  N   UNL     1      -6.453   0.889  15.635  0.00  0.00    +0.000 NA
ATOM     11  C   UNL     1      -5.699   1.511  16.513  0.00  0.00    +0.000 A 
ATOM     12  C   UNL     1      -5.939  -0.356  15.328  0.00  0.00    +0.000 A 
ATOM     13  C   UNL     1      -4.766  -0.651  15.981  0.00  0.00    +0.000 A 
ATOM     14  H   UNL     1      -5.204   3.172  17.609  0.00  0.00    +0.000 HD
BRANCH  12  16
ATOM     15  N   UNL     1      -7.814  -3.298  13.997  0.00  0.00    +0.000 NA
ATOM     16  C   UNL     1      -6.589  -1.242  14.389  0.00  0.00    +0.000 A 
ATOM     17  C   UNL     1      -6.683  -0.937  13.034  0.00  0.00    +0.000 A 
ATOM     18  C   UNL     1      -7.162  -2.432  14.813  0.00  0.00    +0.000 A 
ATOM     19  C   UNL     1      -7.331  -1.804  12.161  0.00  0.00    +0.000 A 
ATOM     20  C   UNL     1      -7.875  -2.961  12.692  0.00  0.00    +0.000 A 
ENDBRANCH  12  16
ENDBRANCH   2   9
BRANCH   1  22
ATOM     21  O   UNL     1     -10.973   2.327  18.593  0.00  0.00    +0.000 OA
ATOM     22  N   UNL     1     -10.246   4.531  18.567  0.00  0.00    +0.000 N 
ATOM     23  C   UNL     1     -11.078   3.492  18.957  0.00  0.00    +0.000 C 
ATOM     24  H   UNL     1     -10.346   5.435  19.014  0.00  0.00    +0.000 HD
BRANCH  23  30
ATOM     25  C   UNL     1     -14.246   4.421  21.666  0.00  0.00    +0.000 A 
ATOM     26  C   UNL     1     -13.145   5.272  21.589  0.00  0.00    +0.000 A 
ATOM     27  C   UNL     1     -14.308   3.281  20.871  0.00  0.00    +0.000 A 
ATOM     28  C   UNL     1     -12.103   4.979  20.713  0.00  0.00    +0.000 A 
ATOM     29  C   UNL     1     -13.265   2.989  19.996  0.00  0.00    +0.000 A 
ATOM     30  C   UNL     1     -12.157   3.836  19.915  0.00  0.00    +0.000 A 
BRANCH  25  31
ATOM     31  C   UNL     1     -15.314   4.721  22.562  0.00  0.00    +0.000 C 
BRANCH  31  32
ATOM     32  N   UNL     1     -16.405   5.031  23.477  0.00  0.00    +0.000 N 
ATOM     33  N   UNL     1     -16.023   3.788  26.781  0.00  0.00    +0.000 N 
ATOM     34  C   UNL     1     -16.811   3.747  24.114  0.00  0.00    +0.000 C 
ATOM     35  C   UNL     1     -15.790   5.618  24.700  0.00  0.00    +0.000 C 
ATOM     36  C   UNL     1     -16.651   3.206  25.564  0.00  0.00    +0.000 C 
ATOM     37  C   UNL     1     -15.629   5.078  26.149  0.00  0.00    +0.000 C 
ATOM     38  C   UNL     1     -17.099   4.083  27.717  0.00  0.00    +0.000 C 
ENDBRANCH  31  32
ENDBRANCH  25  31
ENDBRANCH  23  30
ENDBRANCH   1  22
TORSDOF 6
ENDMDL
MODEL 4
REMARK VINA RESULT:      -6.7     13.318     19.346
REMARK  Name = 10074640_Masitinib.pdbqt.pdb
REMARK  6 active torsions:
REMARK  status: ('A' for Active; 'I' for Inactive)
REMARK    1  A    between atoms: C_1  and  N_22
REMARK    2  A    between atoms: C_2  and  N_9
REMARK    3  A    between atoms: C_12  and  C_16
REMARK    4  A    between atoms: C_23  and  C_30
REMARK    5  A    between atoms: C_25  and  C_31
REMARK    6  A    between atoms: C_31  and  N_32
REMARK                            x       y       z     vdW  Elec       q    Type
REMARK                         _______ _______ _______ _____ _____    ______ ____
ROOT
ATOM      1  C   UNL     1     -12.885   3.864  -2.543  0.00  0.00    +0.000 A 
ATOM      2  C   UNL     1     -14.934   5.106  -3.050  0.00  0.00    +0.000 A 
ATOM      3  C   UNL     1     -14.120   4.391  -2.161  0.00  0.00    +0.000 A 
ATOM      4  C   UNL     1     -14.456   5.276  -4.364  0.00  0.00    +0.000 A 
ATOM      5  C   UNL     1     -12.431   4.071  -3.844  0.00  0.00    +0.000 A 
ATOM      6  C   UNL     1     -13.219   4.767  -4.757  0.00  0.00    +0.000 A 
ATOM      7  C   UNL     1     -15.279   6.026  -5.392  0.00  0.00    +0.000 C 
ENDROOT
BRANCH   2   9
ATOM      8  S   UNL     1     -17.958   7.421  -1.714  0.00  0.00    +0.000 S 
ATOM      9  N   UNL     1     -16.165   5.675  -2.645  0.00  0.00    +0.000 N 
ATOM     10  N   UNL     1     -15.553   7.963  -2.426  0.00  0.00    +0.000 NA
ATOM     11  C   UNL     1     -16.401   6.964  -2.315  0.00  0.00    +0.000 A 
ATOM     12  C   UNL     1     -16.116   9.147  -1.991  0.00  0.00    +0.000 A 
ATOM     13  C   UNL     1     -17.418   9.024  -1.570  0.00  0.00    +0.000 A 
ATOM     14  H   UNL     1     -16.937   5.011  -2.632  0.00  0.00    +0.000 HD
BRANCH  12  16
ATOM     15  N   UNL     1     -14.479  12.272  -0.767  0.00  0.00    +0.000 NA
ATOM     16  C   UNL     1     -15.383  10.393  -2.006  0.00  0.00    +0.000 A 
ATOM     17  C   UNL     1     -14.841  10.914  -3.178  0.00  0.00    +0.000 A 
ATOM     18  C   UNL     1     -15.180  11.112  -0.837  0.00  0.00    +0.000 A 
ATOM     19  C   UNL     1     -14.127  12.107  -3.152  0.00  0.00    +0.000 A 
ATOM     20  C   UNL     1     -13.976  12.739  -1.930  0.00  0.00    +0.000 A 
ENDBRANCH  12  16
ENDBRANCH   2   9
BRANCH   1  22
ATOM     21  O   UNL     1     -13.441   1.335  -1.227  0.00  0.00    +0.000 OA
ATOM     22  N   UNL     1     -12.055   3.144  -1.660  0.00  0.00    +0.000 N 
ATOM     23  C   UNL     1     -12.407   1.960  -1.030  0.00  0.00    +0.000 C 
ATOM     24  H   UNL     1     -11.126   3.523  -1.512  0.00  0.00    +0.000 HD
BRANCH  23  30
ATOM     25  C   UNL     1      -9.512   0.379   1.682  0.00  0.00    +0.000 A 
ATOM     26  C   UNL     1     -10.862   0.325   2.021  0.00  0.00    +0.000 A 
ATOM     27  C   UNL     1      -9.113   0.945   0.475  0.00  0.00    +0.000 A 
ATOM     28  C   UNL     1     -11.817   0.840   1.148  0.00  0.00    +0.000 A 
ATOM     29  C   UNL     1     -10.069   1.461  -0.397  0.00  0.00    +0.000 A 
ATOM     30  C   UNL     1     -11.425   1.412  -0.063  0.00  0.00    +0.000 A 
BRANCH  25  31
ATOM     31  C   UNL     1      -8.534  -0.150   2.575  0.00  0.00    +0.000 C 
BRANCH  31  32
ATOM     32  N   UNL     1      -7.533  -0.689   3.486  0.00  0.00    +0.000 N 
ATOM     33  N   UNL     1      -4.158  -0.007   2.621  0.00  0.00    +0.000 N 
ATOM     34  C   UNL     1      -6.546  -1.432   2.653  0.00  0.00    +0.000 C 
ATOM     35  C   UNL     1      -6.619   0.434   3.838  0.00  0.00    +0.000 C 
ATOM     36  C   UNL     1      -5.065  -1.137   2.281  0.00  0.00    +0.000 C 
ATOM     37  C   UNL     1      -5.138   0.729   3.465  0.00  0.00    +0.000 C 
ATOM     38  C   UNL     1      -3.136  -0.533   3.515  0.00  0.00    +0.000 C 
ENDBRANCH  31  32
ENDBRANCH  25  31
ENDBRANCH  23  30
ENDBRANCH   1  22
TORSDOF 6
ENDMDL
MODEL 5
REMARK VINA RESULT:      -6.6     12.520     16.398
REMARK  Name = 10074640_Masitinib.pdbqt.pdb
REMARK  6 active torsions:
REMARK  status: ('A' for Active; 'I' for Inactive)
REMARK    1  A    between atoms: C_1  and  N_22
REMARK    2  A    between atoms: C_2  and  N_9
REMARK    3  A    between atoms: C_12  and  C_16
REMARK    4  A    between atoms: C_23  and  C_30
REMARK    5  A    between atoms: C_25  and  C_31
REMARK    6  A    between atoms: C_31  and  N_32
REMARK                            x       y       z     vdW  Elec       q    Type
REMARK                         _______ _______ _______ _____ _____    ______ ____
ROOT
ATOM      1  C   UNL     1     -15.075  10.568  -1.543  0.00  0.00    +0.000 A 
ATOM      2  C   UNL     1     -16.653   8.772  -1.008  0.00  0.00    +0.000 A 
ATOM      3  C   UNL     1     -15.970   9.571  -1.935  0.00  0.00    +0.000 A 
ATOM      4  C   UNL     1     -16.400   9.014   0.357  0.00  0.00    +0.000 A 
ATOM      5  C   UNL     1     -14.830  10.765  -0.187  0.00  0.00    +0.000 A 
ATOM      6  C   UNL     1     -15.497   9.997   0.764  0.00  0.00    +0.000 A 
ATOM      7  C   UNL     1     -17.103   8.204   1.427  0.00  0.00    +0.000 C 
ENDROOT
BRANCH   2   9
ATOM      8  S   UNL     1     -18.410   5.391  -2.338  0.00  0.00    +0.000 S 
ATOM      9  N   UNL     1     -17.526   7.735  -1.412  0.00  0.00    +0.000 N 
ATOM     10  N   UNL     1     -16.004   5.919  -1.620  0.00  0.00    +0.000 NA
ATOM     11  C   UNL     1     -17.194   6.465  -1.736  0.00  0.00    +0.000 A 
ATOM     12  C   UNL     1     -16.012   4.606  -2.050  0.00  0.00    +0.000 A 
ATOM     13  C   UNL     1     -17.243   4.166  -2.474  0.00  0.00    +0.000 A 
ATOM     14  H   UNL     1     -18.506   8.010  -1.429  0.00  0.00    +0.000 HD
BRANCH  12  16
ATOM     15  N   UNL     1     -13.841   1.569  -1.991  0.00  0.00    +0.000 NA
ATOM     16  C   UNL     1     -14.821   3.787  -2.029  0.00  0.00    +0.000 A 
ATOM     17  C   UNL     1     -13.546   4.342  -2.068  0.00  0.00    +0.000 A 
ATOM     18  C   UNL     1     -14.911   2.403  -1.984  0.00  0.00    +0.000 A 
ATOM     19  C   UNL     1     -12.422   3.523  -2.063  0.00  0.00    +0.000 A 
ATOM     20  C   UNL     1     -12.625   2.154  -2.025  0.00  0.00    +0.000 A 
ENDBRANCH  12  16
ENDBRANCH   2   9
BRANCH   1  22
ATOM     21  O   UNL     1     -14.629  13.436  -1.422  0.00  0.00    +0.000 OA
ATOM     22  N   UNL     1     -14.381  11.377  -2.465  0.00  0.00    +0.000 N 
ATOM     23  C   UNL     1     -14.248  12.754  -2.366  0.00  0.00    +0.000 C 
ATOM     24  H   UNL     1     -13.930  10.893  -3.233  0.00  0.00    +0.000 HD
BRANCH  23  30
ATOM     25  C   UNL     1     -12.239  14.617  -5.640  0.00  0.00    +0.000 A 
ATOM     26  C   UNL     1     -12.611  15.390  -4.543  0.00  0.00    +0.000 A 
ATOM     27  C   UNL     1     -12.522  13.255  -5.669  0.00  0.00    +0.000 A 
ATOM     28  C   UNL     1     -13.270  14.796  -3.469  0.00  0.00    +0.000 A 
ATOM     29  C   UNL     1     -13.183  12.663  -4.595  0.00  0.00    +0.000 A 
ATOM     30  C   UNL     1     -13.560  13.432  -3.492  0.00  0.00    +0.000 A 
BRANCH  25  31
ATOM     31  C   UNL     1     -11.562  15.224  -6.740  0.00  0.00    +0.000 C 
BRANCH  31  32
ATOM     32  N   UNL     1     -10.873  15.847  -7.863  0.00  0.00    +0.000 N 
ATOM     33  N   UNL     1      -8.751  18.569  -7.030  0.00  0.00    +0.000 N 
ATOM     34  C   UNL     1     -11.121  17.312  -7.763  0.00  0.00    +0.000 C 
ATOM     35  C   UNL     1      -9.429  15.913  -7.500  0.00  0.00    +0.000 C 
ATOM     36  C   UNL     1     -10.189  18.506  -7.407  0.00  0.00    +0.000 C 
ATOM     37  C   UNL     1      -8.498  17.106  -7.143  0.00  0.00    +0.000 C 
ATOM     38  C   UNL     1      -8.049  19.210  -8.133  0.00  0.00    +0.000 C 
ENDBRANCH  31  32
ENDBRANCH  25  31
ENDBRANCH  23  30
ENDBRANCH   1  22
TORSDOF 6
ENDMDL
MODEL 6
REMARK VINA RESULT:      -6.3      8.275     12.121
REMARK  Name = 10074640_Masitinib.pdbqt.pdb
REMARK  6 active torsions:
REMARK  status: ('A' for Active; 'I' for Inactive)
REMARK    1  A    between atoms: C_1  and  N_22
REMARK    2  A    between atoms: C_2  and  N_9
REMARK    3  A    between atoms: C_12  and  C_16
REMARK    4  A    between atoms: C_23  and  C_30
REMARK    5  A    between atoms: C_25  and  C_31
REMARK    6  A    between atoms: C_31  and  N_32
REMARK                            x       y       z     vdW  Elec       q    Type
REMARK                         _______ _______ _______ _____ _____    ______ ____
ROOT
ATOM      1  C   UNL     1     -26.397   4.952   8.364  0.00  0.00    +0.000 A 
ATOM      2  C   UNL     1     -26.105   3.483  10.301  0.00  0.00    +0.000 A 
ATOM      3  C   UNL     1     -25.727   4.593   9.535  0.00  0.00    +0.000 A 
ATOM      4  C   UNL     1     -27.202   2.728   9.842  0.00  0.00    +0.000 A 
ATOM      5  C   UNL     1     -27.493   4.199   7.950  0.00  0.00    +0.000 A 
ATOM      6  C   UNL     1     -27.890   3.082   8.681  0.00  0.00    +0.000 A 
ATOM      7  C   UNL     1     -27.670   1.505  10.604  0.00  0.00    +0.000 C 
ENDROOT
BRANCH   2   9
ATOM      8  S   UNL     1     -23.805   1.966  13.251  0.00  0.00    +0.000 S 
ATOM      9  N   UNL     1     -25.450   3.148  11.510  0.00  0.00    +0.000 N 
ATOM     10  N   UNL     1     -23.638   1.841  10.693  0.00  0.00    +0.000 NA
ATOM     11  C   UNL     1     -24.365   2.355  11.660  0.00  0.00    +0.000 A 
ATOM     12  C   UNL     1     -22.607   1.072  11.198  0.00  0.00    +0.000 A 
ATOM     13  C   UNL     1     -22.559   1.035  12.570  0.00  0.00    +0.000 A 
ATOM     14  H   UNL     1     -25.859   3.588  12.332  0.00  0.00    +0.000 HD
BRANCH  12  16
ATOM     15  N   UNL     1     -19.508   0.385   9.232  0.00  0.00    +0.000 NA
ATOM     16  C   UNL     1     -21.667   0.392  10.335  0.00  0.00    +0.000 A 
ATOM     17  C   UNL     1     -21.931  -0.870   9.810  0.00  0.00    +0.000 A 
ATOM     18  C   UNL     1     -20.450   0.974  10.010  0.00  0.00    +0.000 A 
ATOM     19  C   UNL     1     -20.997  -1.503   8.997  0.00  0.00    +0.000 A 
ATOM     20  C   UNL     1     -19.811  -0.836   8.743  0.00  0.00    +0.000 A 
ENDBRANCH  12  16
ENDBRANCH   2   9
BRANCH   1  22
ATOM     21  O   UNL     1     -24.425   5.071   6.234  0.00  0.00    +0.000 OA
ATOM     22  N   UNL     1     -26.029   6.067   7.584  0.00  0.00    +0.000 N 
ATOM     23  C   UNL     1     -25.041   6.061   6.611  0.00  0.00    +0.000 C 
ATOM     24  H   UNL     1     -26.559   6.917   7.742  0.00  0.00    +0.000 HD
BRANCH  23  30
ATOM     25  C   UNL     1     -24.159   9.851   4.853  0.00  0.00    +0.000 A 
ATOM     26  C   UNL     1     -24.848   8.899   4.106  0.00  0.00    +0.000 A 
ATOM     27  C   UNL     1     -23.760   9.567   6.156  0.00  0.00    +0.000 A 
ATOM     28  C   UNL     1     -25.139   7.657   4.665  0.00  0.00    +0.000 A 
ATOM     29  C   UNL     1     -24.051   8.325   6.713  0.00  0.00    +0.000 A 
ATOM     30  C   UNL     1     -24.740   7.364   5.969  0.00  0.00    +0.000 A 
BRANCH  25  31
ATOM     31  C   UNL     1     -23.862  11.124   4.282  0.00  0.00    +0.000 C 
BRANCH  31  32
ATOM     32  N   UNL     1     -23.555  12.423   3.697  0.00  0.00    +0.000 N 
ATOM     33  N   UNL     1     -23.920  12.634   0.172  0.00  0.00    +0.000 N 
ATOM     34  C   UNL     1     -22.602  12.179   2.579  0.00  0.00    +0.000 C 
ATOM     35  C   UNL     1     -24.712  12.791   2.833  0.00  0.00    +0.000 C 
ATOM     36  C   UNL     1     -22.760  12.281   1.034  0.00  0.00    +0.000 C 
ATOM     37  C   UNL     1     -24.870  12.891   1.289  0.00  0.00    +0.000 C 
ATOM     38  C   UNL     1     -23.621  13.921  -0.439  0.00  0.00    +0.000 C 
ENDBRANCH  31  32
ENDBRANCH  25  31
ENDBRANCH  23  30
ENDBRANCH   1  22
TORSDOF 6
ENDMDL
MODEL 7
REMARK VINA RESULT:      -6.3     19.270     20.875
REMARK  Name = 10074640_Masitinib.pdbqt.pdb
REMARK  6 active torsions:
REMARK  status: ('A' for Active; 'I' for Inactive)
REMARK    1  A    between atoms: C_1  and  N_22
REMARK    2  A    between atoms: C_2  and  N_9
REMARK    3  A    between atoms: C_12  and  C_16
REMARK    4  A    between atoms: C_23  and  C_30
REMARK    5  A    between atoms: C_25  and  C_31
REMARK    6  A    between atoms: C_31  and  N_32
REMARK                            x       y       z     vdW  Elec       q    Type
REMARK                         _______ _______ _______ _____ _____    ______ ____
ROOT
ATOM      1  C   UNL     1      -8.079   7.308  16.691  0.00  0.00    +0.000 A 
ATOM      2  C   UNL     1      -8.460   4.891  16.781  0.00  0.00    +0.000 A 
ATOM      3  C   UNL     1      -7.654   5.996  16.477  0.00  0.00    +0.000 A 
ATOM      4  C   UNL     1      -9.736   5.154  17.318  0.00  0.00    +0.000 A 
ATOM      5  C   UNL     1      -9.336   7.533  17.246  0.00  0.00    +0.000 A 
ATOM      6  C   UNL     1     -10.169   6.460  17.551  0.00  0.00    +0.000 A 
ATOM      7  C   UNL     1     -10.677   4.018  17.665  0.00  0.00    +0.000 C 
ENDROOT
BRANCH   2   9
ATOM      8  S   UNL     1      -6.483   1.482  15.909  0.00  0.00    +0.000 S 
ATOM      9  N   UNL     1      -8.009   3.561  16.602  0.00  0.00    +0.000 N 
ATOM     10  N   UNL     1      -5.737   3.935  16.004  0.00  0.00    +0.000 NA
ATOM     11  C   UNL     1      -6.783   3.162  16.194  0.00  0.00    +0.000 A 
ATOM     12  C   UNL     1      -4.645   3.202  15.580  0.00  0.00    +0.000 A 
ATOM     13  C   UNL     1      -4.885   1.853  15.475  0.00  0.00    +0.000 A 
ATOM     14  H   UNL     1      -8.707   2.858  16.833  0.00  0.00    +0.000 HD
BRANCH  12  16
ATOM     15  N   UNL     1      -0.952   3.649  15.254  0.00  0.00    +0.000 NA
ATOM     16  C   UNL     1      -3.371   3.823  15.296  0.00  0.00    +0.000 A 
ATOM     17  C   UNL     1      -3.280   5.109  14.771  0.00  0.00    +0.000 A 
ATOM     18  C   UNL     1      -2.182   3.144  15.523  0.00  0.00    +0.000 A 
ATOM     19  C   UNL     1      -2.038   5.670  14.494  0.00  0.00    +0.000 A 
ATOM     20  C   UNL     1      -0.916   4.902  14.751  0.00  0.00    +0.000 A 
ENDBRANCH  12  16
ENDBRANCH   2   9
BRANCH   1  22
ATOM     21  O   UNL     1      -6.136   8.627  18.402  0.00  0.00    +0.000 OA
ATOM     22  N   UNL     1      -7.278   8.429  16.391  0.00  0.00    +0.000 N 
ATOM     23  C   UNL     1      -6.402   9.036  17.279  0.00  0.00    +0.000 C 
ATOM     24  H   UNL     1      -7.342   8.783  15.444  0.00  0.00    +0.000 HD
BRANCH  23  30
ATOM     25  C   UNL     1      -4.532  12.599  15.850  0.00  0.00    +0.000 A 
ATOM     26  C   UNL     1      -3.737  11.536  16.271  0.00  0.00    +0.000 A 
ATOM     27  C   UNL     1      -5.920  12.501  15.899  0.00  0.00    +0.000 A 
ATOM     28  C   UNL     1      -4.333  10.369  16.743  0.00  0.00    +0.000 A 
ATOM     29  C   UNL     1      -6.515  11.334  16.372  0.00  0.00    +0.000 A 
ATOM     30  C   UNL     1      -5.723  10.264  16.797  0.00  0.00    +0.000 A 
BRANCH  25  31
ATOM     31  C   UNL     1      -3.923  13.794  15.366  0.00  0.00    +0.000 C 
BRANCH  31  32
ATOM     32  N   UNL     1      -3.298  15.015  14.873  0.00  0.00    +0.000 N 
ATOM     33  N   UNL     1      -2.687  15.112  11.377  0.00  0.00    +0.000 N 
ATOM     34  C   UNL     1      -2.126  14.600  14.052  0.00  0.00    +0.000 C 
ATOM     35  C   UNL     1      -4.124  15.491  13.728  0.00  0.00    +0.000 C 
ATOM     36  C   UNL     1      -1.856  14.650  12.521  0.00  0.00    +0.000 C 
ATOM     37  C   UNL     1      -3.853  15.541  12.197  0.00  0.00    +0.000 C 
ATOM     38  C   UNL     1      -2.064  16.321  10.857  0.00  0.00    +0.000 C 
ENDBRANCH  31  32
ENDBRANCH  25  31
ENDBRANCH  23  30
ENDBRANCH   1  22
TORSDOF 6
ENDMDL
MODEL 8
REMARK VINA RESULT:      -6.3     13.305     19.796
REMARK  Name = 10074640_Masitinib.pdbqt.pdb
REMARK  6 active torsions:
REMARK  status: ('A' for Active; 'I' for Inactive)
REMARK    1  A    between atoms: C_1  and  N_22
REMARK    2  A    between atoms: C_2  and  N_9
REMARK    3  A    between atoms: C_12  and  C_16
REMARK    4  A    between atoms: C_23  and  C_30
REMARK    5  A    between atoms: C_25  and  C_31
REMARK    6  A    between atoms: C_31  and  N_32
REMARK                            x       y       z     vdW  Elec       q    Type
REMARK                         _______ _______ _______ _____ _____    ______ ____
ROOT
ATOM      1  C   UNL     1     -11.815   4.243  -4.518  0.00  0.00    +0.000 A 
ATOM      2  C   UNL     1     -13.090   5.897  -5.798  0.00  0.00    +0.000 A 
ATOM      3  C   UNL     1     -13.017   4.873  -4.844  0.00  0.00    +0.000 A 
ATOM      4  C   UNL     1     -11.887   6.275  -6.427  0.00  0.00    +0.000 A 
ATOM      5  C   UNL     1     -10.640   4.658  -5.141  0.00  0.00    +0.000 A 
ATOM      6  C   UNL     1     -10.676   5.665  -6.102  0.00  0.00    +0.000 A 
ATOM      7  C   UNL     1     -11.877   7.366  -7.479  0.00  0.00    +0.000 C 
ENDROOT
BRANCH   2   9
ATOM      8  S   UNL     1     -16.543   7.987  -5.798  0.00  0.00    +0.000 S 
ATOM      9  N   UNL     1     -14.304   6.561  -6.094  0.00  0.00    +0.000 N 
ATOM     10  N   UNL     1     -14.622   7.826  -4.104  0.00  0.00    +0.000 NA
ATOM     11  C   UNL     1     -15.003   7.386  -5.283  0.00  0.00    +0.000 A 
ATOM     12  C   UNL     1     -15.581   8.646  -3.542  0.00  0.00    +0.000 A 
ATOM     13  C   UNL     1     -16.688   8.833  -4.334  0.00  0.00    +0.000 A 
ATOM     14  H   UNL     1     -14.645   6.387  -7.037  0.00  0.00    +0.000 HD
BRANCH  12  16
ATOM     15  N   UNL     1     -15.185  11.273  -0.919  0.00  0.00    +0.000 NA
ATOM     16  C   UNL     1     -15.402   9.253  -2.242  0.00  0.00    +0.000 A 
ATOM     17  C   UNL     1     -15.317   8.491  -1.080  0.00  0.00    +0.000 A 
ATOM     18  C   UNL     1     -15.323  10.632  -2.106  0.00  0.00    +0.000 A 
ATOM     19  C   UNL     1     -15.161   9.109   0.156  0.00  0.00    +0.000 A 
ATOM     20  C   UNL     1     -15.103  10.492   0.179  0.00  0.00    +0.000 A 
ENDBRANCH  12  16
ENDBRANCH   2   9
BRANCH   1  22
ATOM     21  O   UNL     1     -12.557   4.344  -1.711  0.00  0.00    +0.000 OA
ATOM     22  N   UNL     1     -11.726   3.214  -3.560  0.00  0.00    +0.000 N 
ATOM     23  C   UNL     1     -12.057   3.348  -2.220  0.00  0.00    +0.000 C 
ATOM     24  H   UNL     1     -11.424   2.309  -3.904  0.00  0.00    +0.000 HD
BRANCH  23  30
ATOM     25  C   UNL     1     -11.407  -0.028   0.312  0.00  0.00    +0.000 A 
ATOM     26  C   UNL     1     -10.335   0.501  -0.404  0.00  0.00    +0.000 A 
ATOM     27  C   UNL     1     -12.674   0.535   0.199  0.00  0.00    +0.000 A 
ATOM     28  C   UNL     1     -10.534   1.600  -1.236  0.00  0.00    +0.000 A 
ATOM     29  C   UNL     1     -12.871   1.633  -0.635  0.00  0.00    +0.000 A 
ATOM     30  C   UNL     1     -11.801   2.169  -1.357  0.00  0.00    +0.000 A 
BRANCH  25  31
ATOM     31  C   UNL     1     -11.204  -1.153   1.166  0.00  0.00    +0.000 C 
BRANCH  31  32
ATOM     32  N   UNL     1     -10.994  -2.301   2.038  0.00  0.00    +0.000 N 
ATOM     33  N   UNL     1     -13.876  -4.272   2.685  0.00  0.00    +0.000 N 
ATOM     34  C   UNL     1     -12.034  -2.230   3.103  0.00  0.00    +0.000 C 
ATOM     35  C   UNL     1     -11.572  -3.484   1.341  0.00  0.00    +0.000 C 
ATOM     36  C   UNL     1     -13.291  -3.099   3.391  0.00  0.00    +0.000 C 
ATOM     37  C   UNL     1     -12.830  -4.353   1.629  0.00  0.00    +0.000 C 
ATOM     38  C   UNL     1     -13.695  -5.426   3.554  0.00  0.00    +0.000 C 
ENDBRANCH  31  32
ENDBRANCH  25  31
ENDBRANCH  23  30
ENDBRANCH   1  22
TORSDOF 6
ENDMDL
MODEL 9
REMARK VINA RESULT:      -6.2      8.371     11.313
REMARK  Name = 10074640_Masitinib.pdbqt.pdb
REMARK  6 active torsions:
REMARK  status: ('A' for Active; 'I' for Inactive)
REMARK    1  A    between atoms: C_1  and  N_22
REMARK    2  A    between atoms: C_2  and  N_9
REMARK    3  A    between atoms: C_12  and  C_16
REMARK    4  A    between atoms: C_23  and  C_30
REMARK    5  A    between atoms: C_25  and  C_31
REMARK    6  A    between atoms: C_31  and  N_32
REMARK                            x       y       z     vdW  Elec       q    Type
REMARK                         _______ _______ _______ _____ _____    ______ ____
ROOT
ATOM      1  C   UNL     1     -26.804   4.452  10.368  0.00  0.00    +0.000 A 
ATOM      2  C   UNL     1     -26.966   4.119   7.947  0.00  0.00    +0.000 A 
ATOM      3  C   UNL     1     -26.217   4.372   9.104  0.00  0.00    +0.000 A 
ATOM      4  C   UNL     1     -28.355   3.947   8.106  0.00  0.00    +0.000 A 
ATOM      5  C   UNL     1     -28.177   4.254  10.494  0.00  0.00    +0.000 A 
ATOM      6  C   UNL     1     -28.954   4.011   9.365  0.00  0.00    +0.000 A 
ATOM      7  C   UNL     1     -29.242   3.681   6.906  0.00  0.00    +0.000 C 
ENDROOT
BRANCH   2   9
ATOM      8  S   UNL     1     -25.241   4.633   4.335  0.00  0.00    +0.000 S 
ATOM      9  N   UNL     1     -26.361   3.995   6.674  0.00  0.00    +0.000 N 
ATOM     10  N   UNL     1     -25.616   6.225   6.312  0.00  0.00    +0.000 NA
ATOM     11  C   UNL     1     -25.807   4.981   5.933  0.00  0.00    +0.000 A 
ATOM     12  C   UNL     1     -25.032   6.970   5.305  0.00  0.00    +0.000 A 
ATOM     13  C   UNL     1     -24.766   6.253   4.164  0.00  0.00    +0.000 A 
ATOM     14  H   UNL     1     -26.345   3.041   6.320  0.00  0.00    +0.000 HD
BRANCH  12  16
ATOM     15  N   UNL     1     -25.104  10.667   4.784  0.00  0.00    +0.000 NA
ATOM     16  C   UNL     1     -24.724   8.373   5.473  0.00  0.00    +0.000 A 
ATOM     17  C   UNL     1     -23.837   8.820   6.448  0.00  0.00    +0.000 A 
ATOM     18  C   UNL     1     -25.321   9.332   4.668  0.00  0.00    +0.000 A 
ATOM     19  C   UNL     1     -23.577  10.178   6.592  0.00  0.00    +0.000 A 
ATOM     20  C   UNL     1     -24.233  11.051   5.741  0.00  0.00    +0.000 A 
ENDBRANCH  12  16
ENDBRANCH   2   9
BRANCH   1  22
ATOM     21  O   UNL     1     -25.564   2.521  12.150  0.00  0.00    +0.000 OA
ATOM     22  N   UNL     1     -26.063   4.704  11.540  0.00  0.00    +0.000 N 
ATOM     23  C   UNL     1     -25.538   3.725  12.371  0.00  0.00    +0.000 C 
ATOM     24  H   UNL     1     -25.888   5.679  11.757  0.00  0.00    +0.000 HD
BRANCH  23  30
ATOM     25  C   UNL     1     -23.637   5.185  15.905  0.00  0.00    +0.000 A 
ATOM     26  C   UNL     1     -23.403   3.873  15.500  0.00  0.00    +0.000 A 
ATOM     27  C   UNL     1     -24.483   6.008  15.167  0.00  0.00    +0.000 A 
ATOM     28  C   UNL     1     -24.020   3.382  14.351  0.00  0.00    +0.000 A 
ATOM     29  C   UNL     1     -25.099   5.515  14.020  0.00  0.00    +0.000 A 
ATOM     30  C   UNL     1     -24.871   4.200  13.608  0.00  0.00    +0.000 A 
BRANCH  25  31
ATOM     31  C   UNL     1     -23.005   5.688  17.080  0.00  0.00    +0.000 C 
BRANCH  31  32
ATOM     32  N   UNL     1     -22.359   6.205  18.280  0.00  0.00    +0.000 N 
ATOM     33  N   UNL     1     -19.578   4.330  19.444  0.00  0.00    +0.000 N 
ATOM     34  C   UNL     1     -22.251   5.068  19.236  0.00  0.00    +0.000 C 
ATOM     35  C   UNL     1     -20.902   6.292  17.983  0.00  0.00    +0.000 C 
ATOM     36  C   UNL     1     -21.032   4.253  19.753  0.00  0.00    +0.000 C 
ATOM     37  C   UNL     1     -19.682   5.475  18.499  0.00  0.00    +0.000 C 
ATOM     38  C   UNL     1     -18.913   4.824  20.641  0.00  0.00    +0.000 C 
ENDBRANCH  31  32
ENDBRANCH  25  31
ENDBRANCH  23  30
ENDBRANCH   1  22
TORSDOF 6
ENDMDL
