MODEL 1
REMARK VINA RESULT:      -5.8      0.000      0.000
REMARK  Name = 101808842_CandidaspongiolideB.pdbqt.pdb
REMARK  12 active torsions:
REMARK  status: ('A' for Active; 'I' for Inactive)
REMARK    1  A    between atoms: C_6  and  C_42
REMARK    2  A    between atoms: C_7  and  O_28
REMARK    3  A    between atoms: C_10  and  O_30
REMARK    4  A    between atoms: C_13  and  O_32
REMARK    5  A    between atoms: C_19  and  O_34
REMARK    6  A    between atoms: C_20  and  O_38
REMARK    7  A    between atoms: C_21  and  O_36
REMARK    8  A    between atoms: O_38  and  C_40
REMARK    9  A    between atoms: C_42  and  C_44
REMARK   10  A    between atoms: C_42  and  O_52
REMARK   11  A    between atoms: C_45  and  C_47
REMARK   12  A    between atoms: C_47  and  C_49
REMARK                            x       y       z     vdW  Elec       q    Type
REMARK                         _______ _______ _______ _____ _____    ______ ____
ROOT
ATOM      1  O   UNL     1      -5.845  15.130  -0.894  0.00  0.00    +0.000 OA
ATOM      2  O   UNL     1       0.228  14.774   2.300  0.00  0.00    +0.000 OA
ATOM      3  O   UNL     1      -2.072  15.560  -1.180  0.00  0.00    +0.000 OA
ATOM      4  O   UNL     1      -1.060  16.678   2.104  0.00  0.00    +0.000 OA
ATOM      5  O   UNL     1      -3.381  16.842   3.935  0.00  0.00    +0.000 OA
ATOM      6  C   UNL     1      -0.935  13.868  -0.029  0.00  0.00    +0.000 C 
ATOM      7  C   UNL     1      -3.519  13.970   0.022  0.00  0.00    +0.000 C 
ATOM      8  C   UNL     1      -2.178  14.566  -0.461  0.00  0.00    +0.000 C 
ATOM      9  C   UNL     1      -0.284  14.321   1.153  0.00  0.00    +0.000 C 
ATOM     10  C   UNL     1      -3.910  14.554   1.394  0.00  0.00    +0.000 C 
ATOM     11  C   UNL     1      -5.170  15.224   1.433  0.00  0.00    +0.000 C 
ATOM     12  C   UNL     1      -4.675  14.467  -0.790  0.00  0.00    +0.000 C 
ATOM     13  C   UNL     1      -6.247  15.589   0.461  0.00  0.00    +0.000 C 
ATOM     14  C   UNL     1      -6.478  17.107   0.435  0.00  0.00    +0.000 C 
ATOM     15  C   UNL     1      -5.547  18.005   1.036  0.00  0.00    +0.000 C 
ATOM     16  C   UNL     1      -7.716  17.819  -0.101  0.00  0.00    +0.000 C 
ATOM     17  C   UNL     1      -0.315  15.944   2.736  0.00  0.00    +0.000 C 
ATOM     18  C   UNL     1      -4.672  18.759   1.627  0.00  0.00    +0.000 C 
ATOM     19  C   UNL     1       0.048  16.187   4.152  0.00  0.00    +0.000 C 
ATOM     20  C   UNL     1      -4.849  19.202   2.990  0.00  0.00    +0.000 C 
ATOM     21  C   UNL     1      -0.705  17.113   4.975  0.00  0.00    +0.000 C 
ATOM     22  C   UNL     1      -3.840  19.176   4.047  0.00  0.00    +0.000 C 
ATOM     23  C   UNL     1      -1.513  18.232   4.514  0.00  0.00    +0.000 C 
ATOM     24  C   UNL     1      -2.941  17.978   4.142  0.00  0.00    +0.000 C 
ATOM     25  C   UNL     1      -3.377  18.982   0.898  0.00  0.00    +0.000 C 
ATOM     26  C   UNL     1      -4.016  20.059   5.281  0.00  0.00    +0.000 C 
ATOM     27  C   UNL     1      -0.819  19.551   4.190  0.00  0.00    +0.000 C 
ENDROOT
BRANCH   7  28
ATOM     28  O   UNL     1      -3.584  12.560   0.090  0.00  0.00    +0.000 OA
ATOM     29  H   UNL     1      -2.780  12.270   0.559  0.00  0.00    +0.000 HD
ENDBRANCH   7  28
BRANCH  10  30
ATOM     30  O   UNL     1      -3.119  14.429   2.506  0.00  0.00    +0.000 OA
ATOM     31  H   UNL     1      -2.456  15.150   2.554  0.00  0.00    +0.000 HD
ENDBRANCH  10  30
BRANCH  13  32
ATOM     32  O   UNL     1      -7.432  14.896   0.843  0.00  0.00    +0.000 OA
ATOM     33  H   UNL     1      -7.147  13.998   1.079  0.00  0.00    +0.000 HD
ENDBRANCH  13  32
BRANCH  19  34
ATOM     34  O   UNL     1       1.021  15.446   4.797  0.00  0.00    +0.000 OA
ATOM     35  H   UNL     1       1.673  15.050   4.184  0.00  0.00    +0.000 HD
ENDBRANCH  19  34
BRANCH  21  36
ATOM     36  O   UNL     1      -0.326  17.144   6.307  0.00  0.00    +0.000 OA
ATOM     37  C   UNL     1      -1.452  17.180   7.148  0.00  0.00    +0.000 C 
ENDBRANCH  21  36
BRANCH  20  38
ATOM     38  O   UNL     1      -6.011  19.979   3.216  0.00  0.00    +0.000 OA
BRANCH  38  40
ATOM     39  O   UNL     1      -5.133  22.048   2.601  0.00  0.00    +0.000 OA
ATOM     40  C   UNL     1      -5.950  21.148   2.528  0.00  0.00    +0.000 C 
ATOM     41  C   UNL     1      -7.083  21.393   1.603  0.00  0.00    +0.000 C 
ENDBRANCH  38  40
ENDBRANCH  20  38
BRANCH   6  42
ATOM     42  C   UNL     1      -0.327  12.918  -0.934  0.00  0.00    +0.000 C 
BRANCH  42  44
ATOM     43  O   UNL     1       1.898  12.327  -1.979  0.00  0.00    +0.000 OA
ATOM     44  C   UNL     1       1.088  12.485  -0.789  0.00  0.00    +0.000 C 
ATOM     45  C   UNL     1       2.040  13.484  -1.264  0.00  0.00    +0.000 C 
ATOM     46  C   UNL     1       1.423  11.328   0.210  0.00  0.00    +0.000 C 
BRANCH  45  47
ATOM     47  C   UNL     1       3.318  13.733  -0.669  0.00  0.00    +0.000 C 
ATOM     48  C   UNL     1       4.582  13.397  -1.419  0.00  0.00    +0.000 C 
BRANCH  47  49
ATOM     49  C   UNL     1       3.447  14.676   0.382  0.00  0.00    +0.000 C 
ATOM     50  C   UNL     1       3.555  15.421   1.314  0.00  0.00    +0.000 C 
ATOM     51  C   UNL     1       3.670  16.276   2.579  0.00  0.00    +0.000 C 
ENDBRANCH  47  49
ENDBRANCH  45  47
ENDBRANCH  42  44
BRANCH  42  52
ATOM     52  O   UNL     1      -1.164  12.418  -1.923  0.00  0.00    +0.000 OA
ATOM     53  H   UNL     1      -0.686  11.845  -2.556  0.00  0.00    +0.000 HD
ENDBRANCH  42  52
ENDBRANCH   6  42
TORSDOF 12
ENDMDL
MODEL 2
REMARK VINA RESULT:      -5.5      2.133      3.203
REMARK  Name = 101808842_CandidaspongiolideB.pdbqt.pdb
REMARK  12 active torsions:
REMARK  status: ('A' for Active; 'I' for Inactive)
REMARK    1  A    between atoms: C_6  and  C_42
REMARK    2  A    between atoms: C_7  and  O_28
REMARK    3  A    between atoms: C_10  and  O_30
REMARK    4  A    between atoms: C_13  and  O_32
REMARK    5  A    between atoms: C_19  and  O_34
REMARK    6  A    between atoms: C_20  and  O_38
REMARK    7  A    between atoms: C_21  and  O_36
REMARK    8  A    between atoms: O_38  and  C_40
REMARK    9  A    between atoms: C_42  and  C_44
REMARK   10  A    between atoms: C_42  and  O_52
REMARK   11  A    between atoms: C_45  and  C_47
REMARK   12  A    between atoms: C_47  and  C_49
REMARK                            x       y       z     vdW  Elec       q    Type
REMARK                         _______ _______ _______ _____ _____    ______ ____
ROOT
ATOM      1  O   UNL     1      -7.022  18.084  -2.168  0.00  0.00    +0.000 OA
ATOM      2  O   UNL     1      -2.952  13.883   1.438  0.00  0.00    +0.000 OA
ATOM      3  O   UNL     1      -3.856  15.968  -2.148  0.00  0.00    +0.000 OA
ATOM      4  O   UNL     1      -2.684  16.168   1.265  0.00  0.00    +0.000 OA
ATOM      5  O   UNL     1      -4.514  17.798   2.926  0.00  0.00    +0.000 OA
ATOM      6  C   UNL     1      -4.195  13.943  -1.022  0.00  0.00    +0.000 C 
ATOM      7  C   UNL     1      -6.093  15.694  -1.156  0.00  0.00    +0.000 C 
ATOM      8  C   UNL     1      -4.647  15.280  -1.501  0.00  0.00    +0.000 C 
ATOM      9  C   UNL     1      -3.522  13.869   0.231  0.00  0.00    +0.000 C 
ATOM     10  C   UNL     1      -6.146  16.395   0.216  0.00  0.00    +0.000 C 
ATOM     11  C   UNL     1      -6.673  17.720   0.204  0.00  0.00    +0.000 C 
ATOM     12  C   UNL     1      -6.572  16.821  -2.020  0.00  0.00    +0.000 C 
ATOM     13  C   UNL     1      -7.161  18.695  -0.821  0.00  0.00    +0.000 C 
ATOM     14  C   UNL     1      -6.356  20.002  -0.771  0.00  0.00    +0.000 C 
ATOM     15  C   UNL     1      -5.128  20.084  -0.049  0.00  0.00    +0.000 C 
ATOM     16  C   UNL     1      -6.784  21.345  -1.353  0.00  0.00    +0.000 C 
ATOM     17  C   UNL     1      -2.652  15.127   1.904  0.00  0.00    +0.000 C 
ATOM     18  C   UNL     1      -4.036  20.092   0.650  0.00  0.00    +0.000 C 
ATOM     19  C   UNL     1      -2.356  15.078   3.355  0.00  0.00    +0.000 C 
ATOM     20  C   UNL     1      -4.015  20.546   2.021  0.00  0.00    +0.000 C 
ATOM     21  C   UNL     1      -2.409  16.273   4.175  0.00  0.00    +0.000 C 
ATOM     22  C   UNL     1      -3.368  19.873   3.146  0.00  0.00    +0.000 C 
ATOM     23  C   UNL     1      -2.257  17.649   3.725  0.00  0.00    +0.000 C 
ATOM     24  C   UNL     1      -3.468  18.379   3.233  0.00  0.00    +0.000 C 
ATOM     25  C   UNL     1      -2.840  19.423   0.035  0.00  0.00    +0.000 C 
ATOM     26  C   UNL     1      -3.051  20.662   4.415  0.00  0.00    +0.000 C 
ATOM     27  C   UNL     1      -0.849  18.203   3.535  0.00  0.00    +0.000 C 
ENDROOT
BRANCH   7  28
ATOM     28  O   UNL     1      -7.058  14.662  -1.180  0.00  0.00    +0.000 OA
ATOM     29  H   UNL     1      -6.633  13.898  -1.610  0.00  0.00    +0.000 HD
ENDBRANCH   7  28
BRANCH  10  30
ATOM     30  O   UNL     1      -5.734  15.788   1.374  0.00  0.00    +0.000 OA
ATOM     31  H   UNL     1      -5.461  16.449   2.044  0.00  0.00    +0.000 HD
ENDBRANCH  10  30
BRANCH  13  32
ATOM     32  O   UNL     1      -8.543  18.934  -0.571  0.00  0.00    +0.000 OA
ATOM     33  H   UNL     1      -8.652  18.874   0.391  0.00  0.00    +0.000 HD
ENDBRANCH  13  32
BRANCH  19  34
ATOM     34  O   UNL     1      -2.158  13.885   4.023  0.00  0.00    +0.000 OA
ATOM     35  H   UNL     1      -1.614  13.982   4.832  0.00  0.00    +0.000 HD
ENDBRANCH  19  34
BRANCH  21  36
ATOM     36  O   UNL     1      -2.230  16.052   5.531  0.00  0.00    +0.000 OA
ATOM     37  C   UNL     1      -3.431  16.253   6.235  0.00  0.00    +0.000 C 
ENDBRANCH  21  36
BRANCH  20  38
ATOM     38  O   UNL     1      -4.417  21.890   2.208  0.00  0.00    +0.000 OA
BRANCH  38  40
ATOM     39  O   UNL     1      -6.450  21.167   3.088  0.00  0.00    +0.000 OA
ATOM     40  C   UNL     1      -5.742  21.962   2.497  0.00  0.00    +0.000 C 
ATOM     41  C   UNL     1      -6.442  23.151   1.952  0.00  0.00    +0.000 C 
ENDBRANCH  38  40
ENDBRANCH  20  38
BRANCH   6  42
ATOM     42  C   UNL     1      -4.259  12.825  -1.936  0.00  0.00    +0.000 C 
BRANCH  42  44
ATOM     43  O   UNL     1      -2.631  11.536  -3.379  0.00  0.00    +0.000 OA
ATOM     44  C   UNL     1      -3.149  11.844  -2.062  0.00  0.00    +0.000 C 
ATOM     45  C   UNL     1      -1.932  12.430  -2.615  0.00  0.00    +0.000 C 
ATOM     46  C   UNL     1      -3.209  10.526  -1.220  0.00  0.00    +0.000 C 
BRANCH  45  47
ATOM     47  C   UNL     1      -0.605  12.060  -2.226  0.00  0.00    +0.000 C 
ATOM     48  C   UNL     1       0.402  11.642  -3.267  0.00  0.00    +0.000 C 
BRANCH  47  49
ATOM     49  C   UNL     1      -0.076  12.495  -0.985  0.00  0.00    +0.000 C 
ATOM     50  C   UNL     1       0.307  12.869   0.087  0.00  0.00    +0.000 C 
ATOM     51  C   UNL     1       0.680  13.375   1.484  0.00  0.00    +0.000 C 
ENDBRANCH  47  49
ENDBRANCH  45  47
ENDBRANCH  42  44
BRANCH  42  52
ATOM     52  O   UNL     1      -5.439  12.715  -2.660  0.00  0.00    +0.000 OA
ATOM     53  H   UNL     1      -5.903  13.573  -2.741  0.00  0.00    +0.000 HD
ENDBRANCH  42  52
ENDBRANCH   6  42
TORSDOF 12
ENDMDL
MODEL 3
REMARK VINA RESULT:      -5.4     14.646     18.752
REMARK  Name = 101808842_CandidaspongiolideB.pdbqt.pdb
REMARK  12 active torsions:
REMARK  status: ('A' for Active; 'I' for Inactive)
REMARK    1  A    between atoms: C_6  and  C_42
REMARK    2  A    between atoms: C_7  and  O_28
REMARK    3  A    between atoms: C_10  and  O_30
REMARK    4  A    between atoms: C_13  and  O_32
REMARK    5  A    between atoms: C_19  and  O_34
REMARK    6  A    between atoms: C_20  and  O_38
REMARK    7  A    between atoms: C_21  and  O_36
REMARK    8  A    between atoms: O_38  and  C_40
REMARK    9  A    between atoms: C_42  and  C_44
REMARK   10  A    between atoms: C_42  and  O_52
REMARK   11  A    between atoms: C_45  and  C_47
REMARK   12  A    between atoms: C_47  and  C_49
REMARK                            x       y       z     vdW  Elec       q    Type
REMARK                         _______ _______ _______ _____ _____    ______ ____
ROOT
ATOM      1  O   UNL     1     -11.862   1.375  -1.082  0.00  0.00    +0.000 OA
ATOM      2  O   UNL     1     -15.230   5.946  -4.952  0.00  0.00    +0.000 OA
ATOM      3  O   UNL     1     -13.075   4.968  -1.428  0.00  0.00    +0.000 OA
ATOM      4  O   UNL     1     -12.949   5.604  -4.983  0.00  0.00    +0.000 OA
ATOM      5  O   UNL     1     -12.038   3.205  -6.462  0.00  0.00    +0.000 OA
ATOM      6  C   UNL     1     -15.228   5.054  -2.344  0.00  0.00    +0.000 C 
ATOM      7  C   UNL     1     -14.025   2.783  -2.050  0.00  0.00    +0.000 C 
ATOM      8  C   UNL     1     -14.011   4.320  -1.898  0.00  0.00    +0.000 C 
ATOM      9  C   UNL     1     -15.261   5.558  -3.675  0.00  0.00    +0.000 C 
ATOM     10  C   UNL     1     -13.515   2.371  -3.446  0.00  0.00    +0.000 C 
ATOM     11  C   UNL     1     -12.377   1.509  -3.448  0.00  0.00    +0.000 C 
ATOM     12  C   UNL     1     -12.974   2.129  -1.207  0.00  0.00    +0.000 C 
ATOM     13  C   UNL     1     -11.457   0.907  -2.433  0.00  0.00    +0.000 C 
ATOM     14  C   UNL     1     -10.000   1.315  -2.696  0.00  0.00    +0.000 C 
ATOM     15  C   UNL     1      -9.682   2.373  -3.598  0.00  0.00    +0.000 C 
ATOM     16  C   UNL     1      -8.758   0.614  -2.153  0.00  0.00    +0.000 C 
ATOM     17  C   UNL     1     -14.009   5.836  -5.544  0.00  0.00    +0.000 C 
ATOM     18  C   UNL     1      -9.467   3.325  -4.452  0.00  0.00    +0.000 C 
ATOM     19  C   UNL     1     -14.136   5.949  -7.016  0.00  0.00    +0.000 C 
ATOM     20  C   UNL     1      -9.174   3.049  -5.839  0.00  0.00    +0.000 C 
ATOM     21  C   UNL     1     -13.092   5.471  -7.902  0.00  0.00    +0.000 C 
ATOM     22  C   UNL     1      -9.774   3.708  -6.998  0.00  0.00    +0.000 C 
ATOM     23  C   UNL     1     -11.684   5.300  -7.578  0.00  0.00    +0.000 C 
ATOM     24  C   UNL     1     -11.243   4.008  -6.963  0.00  0.00    +0.000 C 
ATOM     25  C   UNL     1      -9.732   4.725  -3.977  0.00  0.00    +0.000 C 
ATOM     26  C   UNL     1      -9.072   3.637  -8.353  0.00  0.00    +0.000 C 
ATOM     27  C   UNL     1     -10.767   6.516  -7.641  0.00  0.00    +0.000 C 
ENDROOT
BRANCH   7  28
ATOM     28  O   UNL     1     -15.263   2.146  -1.809  0.00  0.00    +0.000 OA
ATOM     29  H   UNL     1     -15.239   1.841  -0.884  0.00  0.00    +0.000 HD
ENDBRANCH   7  28
BRANCH  10  30
ATOM     30  O   UNL     1     -14.116   2.783  -4.606  0.00  0.00    +0.000 OA
ATOM     31  H   UNL     1     -14.936   2.276  -4.781  0.00  0.00    +0.000 HD
ENDBRANCH  10  30
BRANCH  13  32
ATOM     32  O   UNL     1     -11.612  -0.508  -2.489  0.00  0.00    +0.000 OA
ATOM     33  H   UNL     1     -10.934  -0.823  -3.107  0.00  0.00    +0.000 HD
ENDBRANCH  13  32
BRANCH  19  34
ATOM     34  O   UNL     1     -15.303   6.379  -7.621  0.00  0.00    +0.000 OA
ATOM     35  H   UNL     1     -16.054   6.456  -6.997  0.00  0.00    +0.000 HD
ENDBRANCH  19  34
BRANCH  21  36
ATOM     36  O   UNL     1     -13.405   5.532  -9.250  0.00  0.00    +0.000 OA
ATOM     37  C   UNL     1     -13.525   4.242  -9.795  0.00  0.00    +0.000 C 
ENDBRANCH  21  36
BRANCH  20  38
ATOM     38  O   UNL     1      -8.008   2.277  -6.058  0.00  0.00    +0.000 OA
BRANCH  38  40
ATOM     39  O   UNL     1      -6.457   4.014  -5.984  0.00  0.00    +0.000 OA
ATOM     40  C   UNL     1      -6.903   2.939  -5.628  0.00  0.00    +0.000 C 
ATOM     41  C   UNL     1      -6.085   2.213  -4.626  0.00  0.00    +0.000 C 
ENDBRANCH  38  40
ENDBRANCH  20  38
BRANCH   6  42
ATOM     42  C   UNL     1     -16.219   5.411  -1.354  0.00  0.00    +0.000 C 
BRANCH  42  44
ATOM     43  O   UNL     1     -16.641   7.410   0.136  0.00  0.00    +0.000 OA
ATOM     44  C   UNL     1     -16.693   6.809  -1.181  0.00  0.00    +0.000 C 
ATOM     45  C   UNL     1     -15.639   7.717  -0.742  0.00  0.00    +0.000 C 
ATOM     46  C   UNL     1     -18.020   7.247  -1.885  0.00  0.00    +0.000 C 
BRANCH  45  47
ATOM     47  C   UNL     1     -15.524   9.085  -1.151  0.00  0.00    +0.000 C 
ATOM     48  C   UNL     1     -15.370  10.174  -0.121  0.00  0.00    +0.000 C 
BRANCH  47  49
ATOM     49  C   UNL     1     -15.106   9.405  -2.467  0.00  0.00    +0.000 C 
ATOM     50  C   UNL     1     -14.778   9.617  -3.600  0.00  0.00    +0.000 C 
ATOM     51  C   UNL     1     -14.391   9.771  -5.074  0.00  0.00    +0.000 C 
ENDBRANCH  47  49
ENDBRANCH  45  47
ENDBRANCH  42  44
BRANCH  42  52
ATOM     52  O   UNL     1     -16.717   4.354  -0.602  0.00  0.00    +0.000 OA
ATOM     53  H   UNL     1     -16.132   3.571  -0.635  0.00  0.00    +0.000 HD
ENDBRANCH  42  52
ENDBRANCH   6  42
TORSDOF 12
ENDMDL
MODEL 4
REMARK VINA RESULT:      -5.3     18.859     21.693
REMARK  Name = 101808842_CandidaspongiolideB.pdbqt.pdb
REMARK  12 active torsions:
REMARK  status: ('A' for Active; 'I' for Inactive)
REMARK    1  A    between atoms: C_6  and  C_42
REMARK    2  A    between atoms: C_7  and  O_28
REMARK    3  A    between atoms: C_10  and  O_30
REMARK    4  A    between atoms: C_13  and  O_32
REMARK    5  A    between atoms: C_19  and  O_34
REMARK    6  A    between atoms: C_20  and  O_38
REMARK    7  A    between atoms: C_21  and  O_36
REMARK    8  A    between atoms: O_38  and  C_40
REMARK    9  A    between atoms: C_42  and  C_44
REMARK   10  A    between atoms: C_42  and  O_52
REMARK   11  A    between atoms: C_45  and  C_47
REMARK   12  A    between atoms: C_47  and  C_49
REMARK                            x       y       z     vdW  Elec       q    Type
REMARK                         _______ _______ _______ _____ _____    ______ ____
ROOT
ATOM      1  O   UNL     1      -5.573   7.835  16.577  0.00  0.00    +0.000 OA
ATOM      2  O   UNL     1      -9.278   2.252  18.100  0.00  0.00    +0.000 OA
ATOM      3  O   UNL     1      -5.558   4.294  17.979  0.00  0.00    +0.000 OA
ATOM      4  O   UNL     1      -8.787   3.962  19.569  0.00  0.00    +0.000 OA
ATOM      5  O   UNL     1     -10.394   6.427  19.242  0.00  0.00    +0.000 OA
ATOM      6  C   UNL     1      -6.963   2.886  16.744  0.00  0.00    +0.000 C 
ATOM      7  C   UNL     1      -6.789   5.397  16.154  0.00  0.00    +0.000 C 
ATOM      8  C   UNL     1      -6.362   4.214  17.049  0.00  0.00    +0.000 C 
ATOM      9  C   UNL     1      -8.144   2.504  17.442  0.00  0.00    +0.000 C 
ATOM     10  C   UNL     1      -8.059   6.071  16.713  0.00  0.00    +0.000 C 
ATOM     11  C   UNL     1      -7.927   7.458  17.022  0.00  0.00    +0.000 C 
ATOM     12  C   UNL     1      -5.839   6.550  16.261  0.00  0.00    +0.000 C 
ATOM     13  C   UNL     1      -6.837   8.483  17.011  0.00  0.00    +0.000 C 
ATOM     14  C   UNL     1      -6.640   9.096  18.406  0.00  0.00    +0.000 C 
ATOM     15  C   UNL     1      -7.224   8.499  19.563  0.00  0.00    +0.000 C 
ATOM     16  C   UNL     1      -5.935  10.412  18.718  0.00  0.00    +0.000 C 
ATOM     17  C   UNL     1      -9.549   3.123  19.111  0.00  0.00    +0.000 C 
ATOM     18  C   UNL     1      -7.806   7.917  20.565  0.00  0.00    +0.000 C 
ATOM     19  C   UNL     1     -10.958   2.988  19.547  0.00  0.00    +0.000 C 
ATOM     20  C   UNL     1      -9.099   8.347  21.045  0.00  0.00    +0.000 C 
ATOM     21  C   UNL     1     -11.619   4.039  20.296  0.00  0.00    +0.000 C 
ATOM     22  C   UNL     1     -10.233   7.484  21.369  0.00  0.00    +0.000 C 
ATOM     23  C   UNL     1     -10.983   5.056  21.120  0.00  0.00    +0.000 C 
ATOM     24  C   UNL     1     -10.521   6.320  20.466  0.00  0.00    +0.000 C 
ATOM     25  C   UNL     1      -7.169   6.655  21.072  0.00  0.00    +0.000 C 
ATOM     26  C   UNL     1     -11.353   8.013  22.262  0.00  0.00    +0.000 C 
ATOM     27  C   UNL     1     -10.587   4.696  22.549  0.00  0.00    +0.000 C 
ENDROOT
BRANCH   7  28
ATOM     28  O   UNL     1      -6.992   5.102  14.787  0.00  0.00    +0.000 OA
ATOM     29  H   UNL     1      -6.115   5.141  14.364  0.00  0.00    +0.000 HD
ENDBRANCH   7  28
BRANCH  10  30
ATOM     30  O   UNL     1      -9.240   5.397  16.887  0.00  0.00    +0.000 OA
ATOM     31  H   UNL     1     -10.008   6.001  16.809  0.00  0.00    +0.000 HD
ENDBRANCH  10  30
BRANCH  13  32
ATOM     32  O   UNL     1      -7.187   9.481  16.057  0.00  0.00    +0.000 OA
ATOM     33  H   UNL     1      -7.530  10.230  16.571  0.00  0.00    +0.000 HD
ENDBRANCH  13  32
BRANCH  19  34
ATOM     34  O   UNL     1     -11.752   1.931  19.144  0.00  0.00    +0.000 OA
ATOM     35  H   UNL     1     -12.106   1.407  19.893  0.00  0.00    +0.000 HD
ENDBRANCH  19  34
BRANCH  21  36
ATOM     36  O   UNL     1     -12.968   3.824  20.527  0.00  0.00    +0.000 OA
ATOM     37  C   UNL     1     -13.609   5.018  20.902  0.00  0.00    +0.000 C 
ENDBRANCH  21  36
BRANCH  20  38
ATOM     38  O   UNL     1      -9.149   9.688  21.497  0.00  0.00    +0.000 OA
BRANCH  38  40
ATOM     39  O   UNL     1      -8.410   9.312  23.675  0.00  0.00    +0.000 OA
ATOM     40  C   UNL     1      -8.359   9.859  22.588  0.00  0.00    +0.000 C 
ATOM     41  C   UNL     1      -7.326  10.915  22.457  0.00  0.00    +0.000 C 
ENDBRANCH  38  40
ENDBRANCH  20  38
BRANCH   6  42
ATOM     42  C   UNL     1      -6.211   1.959  15.927  0.00  0.00    +0.000 C 
BRANCH  42  44
ATOM     43  O   UNL     1      -6.644  -0.226  17.123  0.00  0.00    +0.000 OA
ATOM     44  C   UNL     1      -5.714   0.663  16.458  0.00  0.00    +0.000 C 
ATOM     45  C   UNL     1      -6.336  -0.491  15.817  0.00  0.00    +0.000 C 
ATOM     46  C   UNL     1      -4.351   0.637  17.226  0.00  0.00    +0.000 C 
BRANCH  45  47
ATOM     47  C   UNL     1      -5.665  -1.725  15.540  0.00  0.00    +0.000 C 
ATOM     48  C   UNL     1      -5.714  -2.855  16.537  0.00  0.00    +0.000 C 
BRANCH  47  49
ATOM     49  C   UNL     1      -5.345  -2.082  14.206  0.00  0.00    +0.000 C 
ATOM     50  C   UNL     1      -5.107  -2.328  13.058  0.00  0.00    +0.000 C 
ATOM     51  C   UNL     1      -4.879  -2.550  11.560  0.00  0.00    +0.000 C 
ENDBRANCH  47  49
ENDBRANCH  45  47
ENDBRANCH  42  44
BRANCH  42  52
ATOM     52  O   UNL     1      -6.016   2.352  14.609  0.00  0.00    +0.000 OA
ATOM     53  H   UNL     1      -6.253   1.645  13.975  0.00  0.00    +0.000 HD
ENDBRANCH  42  52
ENDBRANCH   6  42
TORSDOF 12
ENDMDL
MODEL 5
REMARK VINA RESULT:      -5.3      2.835      8.097
REMARK  Name = 101808842_CandidaspongiolideB.pdbqt.pdb
REMARK  12 active torsions:
REMARK  status: ('A' for Active; 'I' for Inactive)
REMARK    1  A    between atoms: C_6  and  C_42
REMARK    2  A    between atoms: C_7  and  O_28
REMARK    3  A    between atoms: C_10  and  O_30
REMARK    4  A    between atoms: C_13  and  O_32
REMARK    5  A    between atoms: C_19  and  O_34
REMARK    6  A    between atoms: C_20  and  O_38
REMARK    7  A    between atoms: C_21  and  O_36
REMARK    8  A    between atoms: O_38  and  C_40
REMARK    9  A    between atoms: C_42  and  C_44
REMARK   10  A    between atoms: C_42  and  O_52
REMARK   11  A    between atoms: C_45  and  C_47
REMARK   12  A    between atoms: C_47  and  C_49
REMARK                            x       y       z     vdW  Elec       q    Type
REMARK                         _______ _______ _______ _____ _____    ______ ____
ROOT
ATOM      1  O   UNL     1      -2.994  13.666   0.772  0.00  0.00    +0.000 OA
ATOM      2  O   UNL     1      -6.661  19.475   0.926  0.00  0.00    +0.000 OA
ATOM      3  O   UNL     1      -2.949  17.444   1.256  0.00  0.00    +0.000 OA
ATOM      4  O   UNL     1      -5.567  18.643  -0.927  0.00  0.00    +0.000 OA
ATOM      5  O   UNL     1      -6.917  16.397  -2.306  0.00  0.00    +0.000 OA
ATOM      6  C   UNL     1      -4.805  18.164   2.487  0.00  0.00    +0.000 C 
ATOM      7  C   UNL     1      -4.541  15.668   1.867  0.00  0.00    +0.000 C 
ATOM      8  C   UNL     1      -3.998  17.112   1.809  0.00  0.00    +0.000 C 
ATOM      9  C   UNL     1      -5.757  18.887   1.712  0.00  0.00    +0.000 C 
ATOM     10  C   UNL     1      -5.502  15.401   0.691  0.00  0.00    +0.000 C 
ATOM     11  C   UNL     1      -5.132  14.321  -0.165  0.00  0.00    +0.000 C 
ATOM     12  C   UNL     1      -3.482  14.659   1.545  0.00  0.00    +0.000 C 
ATOM     13  C   UNL     1      -3.990  13.362  -0.287  0.00  0.00    +0.000 C 
ATOM     14  C   UNL     1      -3.318  13.474  -1.663  0.00  0.00    +0.000 C 
ATOM     15  C   UNL     1      -3.589  14.575  -2.529  0.00  0.00    +0.000 C 
ATOM     16  C   UNL     1      -2.411  12.431  -2.309  0.00  0.00    +0.000 C 
ATOM     17  C   UNL     1      -6.519  19.200  -0.400  0.00  0.00    +0.000 C 
ATOM     18  C   UNL     1      -3.904  15.590  -3.274  0.00  0.00    +0.000 C 
ATOM     19  C   UNL     1      -7.738  19.594  -1.144  0.00  0.00    +0.000 C 
ATOM     20  C   UNL     1      -4.938  15.500  -4.279  0.00  0.00    +0.000 C 
ATOM     21  C   UNL     1      -8.024  19.056  -2.460  0.00  0.00    +0.000 C 
ATOM     22  C   UNL     1      -6.010  16.468  -4.506  0.00  0.00    +0.000 C 
ATOM     23  C   UNL     1      -7.062  18.521  -3.412  0.00  0.00    +0.000 C 
ATOM     24  C   UNL     1      -6.682  17.077  -3.310  0.00  0.00    +0.000 C 
ATOM     25  C   UNL     1      -3.286  16.909  -2.908  0.00  0.00    +0.000 C 
ATOM     26  C   UNL     1      -6.745  16.479  -5.845  0.00  0.00    +0.000 C 
ATOM     27  C   UNL     1      -6.298  19.495  -4.304  0.00  0.00    +0.000 C 
ENDROOT
BRANCH   7  28
ATOM     28  O   UNL     1      -5.177  15.290   3.071  0.00  0.00    +0.000 OA
ATOM     29  H   UNL     1      -5.735  14.520   2.858  0.00  0.00    +0.000 HD
ENDBRANCH   7  28
BRANCH  10  30
ATOM     30  O   UNL     1      -6.643  16.133   0.486  0.00  0.00    +0.000 OA
ATOM     31  H   UNL     1      -7.093  16.334   1.333  0.00  0.00    +0.000 HD
ENDBRANCH  10  30
BRANCH  13  32
ATOM     32  O   UNL     1      -4.498  12.049  -0.070  0.00  0.00    +0.000 OA
ATOM     33  H   UNL     1      -3.948  11.461  -0.611  0.00  0.00    +0.000 HD
ENDBRANCH  13  32
BRANCH  19  34
ATOM     34  O   UNL     1      -8.728  20.370  -0.572  0.00  0.00    +0.000 OA
ATOM     35  H   UNL     1      -9.044  21.087  -1.160  0.00  0.00    +0.000 HD
ENDBRANCH  19  34
BRANCH  21  36
ATOM     36  O   UNL     1      -9.256  19.418  -2.978  0.00  0.00    +0.000 OA
ATOM     37  C   UNL     1      -9.784  18.393  -3.781  0.00  0.00    +0.000 C 
ENDBRANCH  21  36
BRANCH  20  38
ATOM     38  O   UNL     1      -4.702  14.538  -5.290  0.00  0.00    +0.000 OA
BRANCH  38  40
ATOM     39  O   UNL     1      -6.292  13.129  -4.332  0.00  0.00    +0.000 OA
ATOM     40  C   UNL     1      -5.279  13.351  -4.970  0.00  0.00    +0.000 C 
ATOM     41  C   UNL     1      -4.526  12.148  -5.403  0.00  0.00    +0.000 C 
ENDBRANCH  38  40
ENDBRANCH  20  38
BRANCH   6  42
ATOM     42  C   UNL     1      -4.440  18.556   3.830  0.00  0.00    +0.000 C 
BRANCH  42  44
ATOM     43  O   UNL     1      -2.690  18.789   5.640  0.00  0.00    +0.000 OA
ATOM     44  C   UNL     1      -3.026  18.776   4.231  0.00  0.00    +0.000 C 
ATOM     45  C   UNL     1      -2.452  17.638   4.941  0.00  0.00    +0.000 C 
ATOM     46  C   UNL     1      -2.202  19.890   3.503  0.00  0.00    +0.000 C 
BRANCH  45  47
ATOM     47  C   UNL     1      -1.089  17.213   4.825  0.00  0.00    +0.000 C 
ATOM     48  C   UNL     1      -0.179  17.246   6.026  0.00  0.00    +0.000 C 
BRANCH  47  49
ATOM     49  C   UNL     1      -0.693  16.359   3.764  0.00  0.00    +0.000 C 
ATOM     50  C   UNL     1      -0.317  15.686   2.847  0.00  0.00    +0.000 C 
ATOM     51  C   UNL     1       0.225  14.926   1.633  0.00  0.00    +0.000 C 
ENDBRANCH  47  49
ENDBRANCH  45  47
ENDBRANCH  42  44
BRANCH  42  52
ATOM     52  O   UNL     1      -5.503  18.741   4.705  0.00  0.00    +0.000 OA
ATOM     53  H   UNL     1      -6.225  18.099   4.549  0.00  0.00    +0.000 HD
ENDBRANCH  42  52
ENDBRANCH   6  42
TORSDOF 12
ENDMDL
MODEL 6
REMARK VINA RESULT:      -5.1      4.221     10.084
REMARK  Name = 101808842_CandidaspongiolideB.pdbqt.pdb
REMARK  12 active torsions:
REMARK  status: ('A' for Active; 'I' for Inactive)
REMARK    1  A    between atoms: C_6  and  C_42
REMARK    2  A    between atoms: C_7  and  O_28
REMARK    3  A    between atoms: C_10  and  O_30
REMARK    4  A    between atoms: C_13  and  O_32
REMARK    5  A    between atoms: C_19  and  O_34
REMARK    6  A    between atoms: C_20  and  O_38
REMARK    7  A    between atoms: C_21  and  O_36
REMARK    8  A    between atoms: O_38  and  C_40
REMARK    9  A    between atoms: C_42  and  C_44
REMARK   10  A    between atoms: C_42  and  O_52
REMARK   11  A    between atoms: C_45  and  C_47
REMARK   12  A    between atoms: C_47  and  C_49
REMARK                            x       y       z     vdW  Elec       q    Type
REMARK                         _______ _______ _______ _____ _____    ______ ____
ROOT
ATOM      1  O   UNL     1       0.310  20.723   9.494  0.00  0.00    +0.000 OA
ATOM      2  O   UNL     1      -3.642  16.041   6.384  0.00  0.00    +0.000 OA
ATOM      3  O   UNL     1      -2.979  20.019   7.709  0.00  0.00    +0.000 OA
ATOM      4  O   UNL     1      -2.150  17.441   5.317  0.00  0.00    +0.000 OA
ATOM      5  O   UNL     1       0.700  16.668   5.529  0.00  0.00    +0.000 OA
ATOM      6  C   UNL     1      -3.872  17.954   8.356  0.00  0.00    +0.000 C 
ATOM      7  C   UNL     1      -1.587  18.735   9.281  0.00  0.00    +0.000 C 
ATOM      8  C   UNL     1      -2.814  19.003   8.384  0.00  0.00    +0.000 C 
ATOM      9  C   UNL     1      -3.809  16.962   7.336  0.00  0.00    +0.000 C 
ATOM     10  C   UNL     1      -0.506  17.955   8.506  0.00  0.00    +0.000 C 
ATOM     11  C   UNL     1       0.764  18.598   8.418  0.00  0.00    +0.000 C 
ATOM     12  C   UNL     1      -0.819  19.989   9.567  0.00  0.00    +0.000 C 
ATOM     13  C   UNL     1       1.361  19.905   8.835  0.00  0.00    +0.000 C 
ATOM     14  C   UNL     1       1.918  20.672   7.627  0.00  0.00    +0.000 C 
ATOM     15  C   UNL     1       1.591  20.283   6.293  0.00  0.00    +0.000 C 
ATOM     16  C   UNL     1       2.929  21.813   7.674  0.00  0.00    +0.000 C 
ATOM     17  C   UNL     1      -2.697  16.357   5.455  0.00  0.00    +0.000 C 
ATOM     18  C   UNL     1       1.274  19.856   5.110  0.00  0.00    +0.000 C 
ATOM     19  C   UNL     1      -2.335  15.161   4.659  0.00  0.00    +0.000 C 
ATOM     20  C   UNL     1       2.131  18.956   4.373  0.00  0.00    +0.000 C 
ATOM     21  C   UNL     1      -1.098  15.105   3.904  0.00  0.00    +0.000 C 
ATOM     22  C   UNL     1       1.711  17.749   3.664  0.00  0.00    +0.000 C 
ATOM     23  C   UNL     1      -0.328  16.235   3.405  0.00  0.00    +0.000 C 
ATOM     24  C   UNL     1       0.684  16.866   4.309  0.00  0.00    +0.000 C 
ATOM     25  C   UNL     1      -0.111  20.180   4.629  0.00  0.00    +0.000 C 
ATOM     26  C   UNL     1       2.617  17.154   2.587  0.00  0.00    +0.000 C 
ATOM     27  C   UNL     1      -0.752  16.885   2.092  0.00  0.00    +0.000 C 
ENDROOT
BRANCH   7  28
ATOM     28  O   UNL     1      -1.842  18.070  10.502  0.00  0.00    +0.000 OA
ATOM     29  H   UNL     1      -1.761  17.116  10.318  0.00  0.00    +0.000 HD
ENDBRANCH   7  28
BRANCH  10  30
ATOM     30  O   UNL     1      -0.736  16.722   7.952  0.00  0.00    +0.000 OA
ATOM     31  H   UNL     1       0.104  16.242   7.793  0.00  0.00    +0.000 HD
ENDBRANCH  10  30
BRANCH  13  32
ATOM     32  O   UNL     1       2.386  19.632   9.786  0.00  0.00    +0.000 OA
ATOM     33  H   UNL     1       3.211  19.581   9.277  0.00  0.00    +0.000 HD
ENDBRANCH  13  32
BRANCH  19  34
ATOM     34  O   UNL     1      -3.075  13.994   4.709  0.00  0.00    +0.000 OA
ATOM     35  H   UNL     1      -2.628  13.276   5.203  0.00  0.00    +0.000 HD
ENDBRANCH  19  34
BRANCH  21  36
ATOM     36  O   UNL     1      -0.837  13.881   3.311  0.00  0.00    +0.000 OA
ATOM     37  C   UNL     1       0.441  13.869   2.725  0.00  0.00    +0.000 C 
ENDBRANCH  21  36
BRANCH  20  38
ATOM     38  O   UNL     1       3.424  19.461   4.096  0.00  0.00    +0.000 OA
BRANCH  38  40
ATOM     39  O   UNL     1       4.329  18.050   5.714  0.00  0.00    +0.000 OA
ATOM     40  C   UNL     1       4.309  19.068   5.048  0.00  0.00    +0.000 C 
ATOM     41  C   UNL     1       5.366  20.058   5.371  0.00  0.00    +0.000 C 
ENDBRANCH  38  40
ENDBRANCH  20  38
BRANCH   6  42
ATOM     42  C   UNL     1      -5.024  18.112   9.215  0.00  0.00    +0.000 C 
BRANCH  42  44
ATOM     43  O   UNL     1      -6.198  16.623  10.888  0.00  0.00    +0.000 OA
ATOM     44  C   UNL     1      -5.089  17.499  10.567  0.00  0.00    +0.000 C 
ATOM     45  C   UNL     1      -5.010  16.042  10.536  0.00  0.00    +0.000 C 
ATOM     46  C   UNL     1      -4.770  18.389  11.814  0.00  0.00    +0.000 C 
BRANCH  45  47
ATOM     47  C   UNL     1      -4.354  15.244  11.527  0.00  0.00    +0.000 C 
ATOM     48  C   UNL     1      -5.155  14.325  12.414  0.00  0.00    +0.000 C 
BRANCH  47  49
ATOM     49  C   UNL     1      -2.972  14.950  11.409  0.00  0.00    +0.000 C 
ATOM     50  C   UNL     1      -1.793  14.741  11.364  0.00  0.00    +0.000 C 
ATOM     51  C   UNL     1      -0.272  14.560  11.394  0.00  0.00    +0.000 C 
ENDBRANCH  47  49
ENDBRANCH  45  47
ENDBRANCH  42  44
BRANCH  42  52
ATOM     52  O   UNL     1      -6.046  18.899   8.701  0.00  0.00    +0.000 OA
ATOM     53  H   UNL     1      -6.529  18.450   7.978  0.00  0.00    +0.000 HD
ENDBRANCH  42  52
ENDBRANCH   6  42
TORSDOF 12
ENDMDL
MODEL 7
REMARK VINA RESULT:      -5.1     20.272     23.071
REMARK  Name = 101808842_CandidaspongiolideB.pdbqt.pdb
REMARK  12 active torsions:
REMARK  status: ('A' for Active; 'I' for Inactive)
REMARK    1  A    between atoms: C_6  and  C_42
REMARK    2  A    between atoms: C_7  and  O_28
REMARK    3  A    between atoms: C_10  and  O_30
REMARK    4  A    between atoms: C_13  and  O_32
REMARK    5  A    between atoms: C_19  and  O_34
REMARK    6  A    between atoms: C_20  and  O_38
REMARK    7  A    between atoms: C_21  and  O_36
REMARK    8  A    between atoms: O_38  and  C_40
REMARK    9  A    between atoms: C_42  and  C_44
REMARK   10  A    between atoms: C_42  and  O_52
REMARK   11  A    between atoms: C_45  and  C_47
REMARK   12  A    between atoms: C_47  and  C_49
REMARK                            x       y       z     vdW  Elec       q    Type
REMARK                         _______ _______ _______ _____ _____    ______ ____
ROOT
ATOM      1  O   UNL     1     -22.522  20.512   3.525  0.00  0.00    +0.000 OA
ATOM      2  O   UNL     1     -22.805  15.039   7.670  0.00  0.00    +0.000 OA
ATOM      3  O   UNL     1     -23.929  19.024   6.736  0.00  0.00    +0.000 OA
ATOM      4  O   UNL     1     -24.310  15.509   5.986  0.00  0.00    +0.000 OA
ATOM      5  O   UNL     1     -23.386  14.900   3.240  0.00  0.00    +0.000 OA
ATOM      6  C   UNL     1     -22.320  17.746   7.856  0.00  0.00    +0.000 C 
ATOM      7  C   UNL     1     -21.764  18.835   5.577  0.00  0.00    +0.000 C 
ATOM      8  C   UNL     1     -22.781  18.580   6.711  0.00  0.00    +0.000 C 
ATOM      9  C   UNL     1     -22.575  16.346   7.816  0.00  0.00    +0.000 C 
ATOM     10  C   UNL     1     -21.832  17.712   4.523  0.00  0.00    +0.000 C 
ATOM     11  C   UNL     1     -22.133  18.141   3.196  0.00  0.00    +0.000 C 
ATOM     12  C   UNL     1     -22.165  19.996   4.719  0.00  0.00    +0.000 C 
ATOM     13  C   UNL     1     -22.475  19.426   2.511  0.00  0.00    +0.000 C 
ATOM     14  C   UNL     1     -23.836  19.332   1.805  0.00  0.00    +0.000 C 
ATOM     15  C   UNL     1     -24.734  18.257   2.074  0.00  0.00    +0.000 C 
ATOM     16  C   UNL     1     -24.340  20.254   0.699  0.00  0.00    +0.000 C 
ATOM     17  C   UNL     1     -23.637  14.725   6.639  0.00  0.00    +0.000 C 
ATOM     18  C   UNL     1     -25.486  17.237   2.348  0.00  0.00    +0.000 C 
ATOM     19  C   UNL     1     -23.562  13.277   6.335  0.00  0.00    +0.000 C 
ATOM     20  C   UNL     1     -25.478  16.046   1.530  0.00  0.00    +0.000 C 
ATOM     21  C   UNL     1     -24.010  12.751   5.060  0.00  0.00    +0.000 C 
ATOM     22  C   UNL     1     -25.410  14.667   2.009  0.00  0.00    +0.000 C 
ATOM     23  C   UNL     1     -24.978  13.356   4.157  0.00  0.00    +0.000 C 
ATOM     24  C   UNL     1     -24.493  14.357   3.155  0.00  0.00    +0.000 C 
ATOM     25  C   UNL     1     -26.214  17.272   3.662  0.00  0.00    +0.000 C 
ATOM     26  C   UNL     1     -25.848  13.527   1.091  0.00  0.00    +0.000 C 
ATOM     27  C   UNL     1     -26.463  13.142   4.429  0.00  0.00    +0.000 C 
ENDROOT
BRANCH   7  28
ATOM     28  O   UNL     1     -20.419  19.008   5.975  0.00  0.00    +0.000 OA
ATOM     29  H   UNL     1     -20.260  18.368   6.693  0.00  0.00    +0.000 HD
ENDBRANCH   7  28
BRANCH  10  30
ATOM     30  O   UNL     1     -21.603  16.396   4.827  0.00  0.00    +0.000 OA
ATOM     31  H   UNL     1     -21.991  15.802   4.150  0.00  0.00    +0.000 HD
ENDBRANCH  10  30
BRANCH  13  32
ATOM     32  O   UNL     1     -21.434  19.716   1.583  0.00  0.00    +0.000 OA
ATOM     33  H   UNL     1     -21.697  20.540   1.142  0.00  0.00    +0.000 HD
ENDBRANCH  13  32
BRANCH  19  34
ATOM     34  O   UNL     1     -22.935  12.382   7.181  0.00  0.00    +0.000 OA
ATOM     35  H   UNL     1     -22.064  12.082   6.847  0.00  0.00    +0.000 HD
ENDBRANCH  19  34
BRANCH  21  36
ATOM     36  O   UNL     1     -23.764  11.401   4.873  0.00  0.00    +0.000 OA
ATOM     37  C   UNL     1     -23.438  11.131   3.532  0.00  0.00    +0.000 C 
ENDBRANCH  21  36
BRANCH  20  38
ATOM     38  O   UNL     1     -25.851  16.251   0.180  0.00  0.00    +0.000 OA
BRANCH  38  40
ATOM     39  O   UNL     1     -23.627  16.025  -0.477  0.00  0.00    +0.000 OA
ATOM     40  C   UNL     1     -24.757  16.462  -0.596  0.00  0.00    +0.000 C 
ATOM     41  C   UNL     1     -24.953  17.419  -1.713  0.00  0.00    +0.000 C 
ENDBRANCH  38  40
ENDBRANCH  20  38
BRANCH   6  42
ATOM     42  C   UNL     1     -21.836  18.413   9.045  0.00  0.00    +0.000 C 
BRANCH  42  44
ATOM     43  O   UNL     1     -22.736  18.899  11.357  0.00  0.00    +0.000 OA
ATOM     44  C   UNL     1     -22.193  17.947  10.411  0.00  0.00    +0.000 C 
ATOM     45  C   UNL     1     -23.616  18.080  10.704  0.00  0.00    +0.000 C 
ATOM     46  C   UNL     1     -21.207  16.992  11.162  0.00  0.00    +0.000 C 
BRANCH  45  47
ATOM     47  C   UNL     1     -24.370  17.161  11.502  0.00  0.00    +0.000 C 
ATOM     48  C   UNL     1     -25.255  17.668  12.612  0.00  0.00    +0.000 C 
BRANCH  47  49
ATOM     49  C   UNL     1     -24.661  15.862  11.014  0.00  0.00    +0.000 C 
ATOM     50  C   UNL     1     -24.901  14.789  10.538  0.00  0.00    +0.000 C 
ATOM     51  C   UNL     1     -25.215  13.473   9.820  0.00  0.00    +0.000 C 
ENDBRANCH  47  49
ENDBRANCH  45  47
ENDBRANCH  42  44
BRANCH  42  52
ATOM     52  O   UNL     1     -20.994  19.494   8.820  0.00  0.00    +0.000 OA
ATOM     53  H   UNL     1     -20.475  19.728   9.615  0.00  0.00    +0.000 HD
ENDBRANCH  42  52
ENDBRANCH   6  42
TORSDOF 12
ENDMDL
MODEL 8
REMARK VINA RESULT:      -5.0     17.112     21.224
REMARK  Name = 101808842_CandidaspongiolideB.pdbqt.pdb
REMARK  12 active torsions:
REMARK  status: ('A' for Active; 'I' for Inactive)
REMARK    1  A    between atoms: C_6  and  C_42
REMARK    2  A    between atoms: C_7  and  O_28
REMARK    3  A    between atoms: C_10  and  O_30
REMARK    4  A    between atoms: C_13  and  O_32
REMARK    5  A    between atoms: C_19  and  O_34
REMARK    6  A    between atoms: C_20  and  O_38
REMARK    7  A    between atoms: C_21  and  O_36
REMARK    8  A    between atoms: O_38  and  C_40
REMARK    9  A    between atoms: C_42  and  C_44
REMARK   10  A    between atoms: C_42  and  O_52
REMARK   11  A    between atoms: C_45  and  C_47
REMARK   12  A    between atoms: C_47  and  C_49
REMARK                            x       y       z     vdW  Elec       q    Type
REMARK                         _______ _______ _______ _____ _____    ______ ____
ROOT
ATOM      1  O   UNL     1      -9.593   1.259   0.384  0.00  0.00    +0.000 OA
ATOM      2  O   UNL     1     -15.297  -0.061  -3.212  0.00  0.00    +0.000 OA
ATOM      3  O   UNL     1     -11.065   0.023  -2.903  0.00  0.00    +0.000 OA
ATOM      4  O   UNL     1     -14.145  -1.600  -1.936  0.00  0.00    +0.000 OA
ATOM      5  O   UNL     1     -14.576  -1.412   0.987  0.00  0.00    +0.000 OA
ATOM      6  C   UNL     1     -12.922   1.299  -3.536  0.00  0.00    +0.000 C 
ATOM      7  C   UNL     1     -11.713   1.775  -1.300  0.00  0.00    +0.000 C 
ATOM      8  C   UNL     1     -11.823   0.943  -2.596  0.00  0.00    +0.000 C 
ATOM      9  C   UNL     1     -14.158   0.601  -3.424  0.00  0.00    +0.000 C 
ATOM     10  C   UNL     1     -12.589   1.167  -0.187  0.00  0.00    +0.000 C 
ATOM     11  C   UNL     1     -11.892   0.796   1.002  0.00  0.00    +0.000 C 
ATOM     12  C   UNL     1     -10.369   1.630  -0.655  0.00  0.00    +0.000 C 
ATOM     13  C   UNL     1     -10.474   0.776   1.479  0.00  0.00    +0.000 C 
ATOM     14  C   UNL     1     -10.046  -0.642   1.886  0.00  0.00    +0.000 C 
ATOM     15  C   UNL     1     -10.832  -1.779   1.531  0.00  0.00    +0.000 C 
ATOM     16  C   UNL     1      -8.858  -1.003   2.771  0.00  0.00    +0.000 C 
ATOM     17  C   UNL     1     -15.185  -1.115  -2.357  0.00  0.00    +0.000 C 
ATOM     18  C   UNL     1     -11.609  -2.762   1.197  0.00  0.00    +0.000 C 
ATOM     19  C   UNL     1     -16.525  -1.567  -1.914  0.00  0.00    +0.000 C 
ATOM     20  C   UNL     1     -12.607  -3.281   2.104  0.00  0.00    +0.000 C 
ATOM     21  C   UNL     1     -16.691  -2.374  -0.721  0.00  0.00    +0.000 C 
ATOM     22  C   UNL     1     -14.000  -3.583   1.777  0.00  0.00    +0.000 C 
ATOM     23  C   UNL     1     -15.693  -3.234  -0.102  0.00  0.00    +0.000 C 
ATOM     24  C   UNL     1     -14.742  -2.632   0.885  0.00  0.00    +0.000 C 
ATOM     25  C   UNL     1     -11.559  -3.201  -0.239  0.00  0.00    +0.000 C 
ATOM     26  C   UNL     1     -14.802  -4.517   2.681  0.00  0.00    +0.000 C 
ATOM     27  C   UNL     1     -15.491  -4.638  -0.663  0.00  0.00    +0.000 C 
ENDROOT
BRANCH   7  28
ATOM     28  O   UNL     1     -12.014   3.151  -1.418  0.00  0.00    +0.000 OA
ATOM     29  H   UNL     1     -12.705   3.339  -0.756  0.00  0.00    +0.000 HD
ENDBRANCH   7  28
BRANCH  10  30
ATOM     30  O   UNL     1     -13.944   1.006  -0.315  0.00  0.00    +0.000 OA
ATOM     31  H   UNL     1     -14.346   1.753  -0.805  0.00  0.00    +0.000 HD
ENDBRANCH  10  30
BRANCH  13  32
ATOM     32  O   UNL     1     -10.371   1.678   2.577  0.00  0.00    +0.000 OA
ATOM     33  H   UNL     1     -10.614   1.164   3.364  0.00  0.00    +0.000 HD
ENDBRANCH  13  32
BRANCH  19  34
ATOM     34  O   UNL     1     -17.686  -1.128  -2.522  0.00  0.00    +0.000 OA
ATOM     35  H   UNL     1     -18.473  -1.194  -1.944  0.00  0.00    +0.000 HD
ENDBRANCH  19  34
BRANCH  21  36
ATOM     36  O   UNL     1     -18.007  -2.615  -0.364  0.00  0.00    +0.000 OA
ATOM     37  C   UNL     1     -18.318  -1.992   0.858  0.00  0.00    +0.000 C 
ENDBRANCH  21  36
BRANCH  20  38
ATOM     38  O   UNL     1     -12.096  -3.795   3.319  0.00  0.00    +0.000 OA
BRANCH  38  40
ATOM     39  O   UNL     1     -12.211  -1.773   4.472  0.00  0.00    +0.000 OA
ATOM     40  C   UNL     1     -12.397  -2.971   4.356  0.00  0.00    +0.000 C 
ATOM     41  C   UNL     1     -12.972  -3.642   5.547  0.00  0.00    +0.000 C 
ENDBRANCH  38  40
ENDBRANCH  20  38
BRANCH   6  42
ATOM     42  C   UNL     1     -12.621   2.170  -4.651  0.00  0.00    +0.000 C 
BRANCH  42  44
ATOM     43  O   UNL     1     -13.758   4.241  -5.550  0.00  0.00    +0.000 OA
ATOM     44  C   UNL     1     -12.856   3.637  -4.592  0.00  0.00    +0.000 C 
ATOM     45  C   UNL     1     -14.244   3.979  -4.299  0.00  0.00    +0.000 C 
ATOM     46  C   UNL     1     -11.631   4.587  -4.379  0.00  0.00    +0.000 C 
BRANCH  45  47
ATOM     47  C   UNL     1     -14.652   5.100  -3.508  0.00  0.00    +0.000 C 
ATOM     48  C   UNL     1     -14.599   6.494  -4.081  0.00  0.00    +0.000 C 
BRANCH  47  49
ATOM     49  C   UNL     1     -15.510   4.916  -2.394  0.00  0.00    +0.000 C 
ATOM     50  C   UNL     1     -16.270   4.814  -1.473  0.00  0.00    +0.000 C 
ATOM     51  C   UNL     1     -17.289   4.793  -0.330  0.00  0.00    +0.000 C 
ENDBRANCH  47  49
ENDBRANCH  45  47
ENDBRANCH  42  44
BRANCH  42  52
ATOM     52  O   UNL     1     -12.071   1.545  -5.762  0.00  0.00    +0.000 OA
ATOM     53  H   UNL     1     -12.619   0.796  -6.073  0.00  0.00    +0.000 HD
ENDBRANCH  42  52
ENDBRANCH   6  42
TORSDOF 12
ENDMDL
MODEL 9
REMARK VINA RESULT:      -4.9     15.868     20.682
REMARK  Name = 101808842_CandidaspongiolideB.pdbqt.pdb
REMARK  12 active torsions:
REMARK  status: ('A' for Active; 'I' for Inactive)
REMARK    1  A    between atoms: C_6  and  C_42
REMARK    2  A    between atoms: C_7  and  O_28
REMARK    3  A    between atoms: C_10  and  O_30
REMARK    4  A    between atoms: C_13  and  O_32
REMARK    5  A    between atoms: C_19  and  O_34
REMARK    6  A    between atoms: C_20  and  O_38
REMARK    7  A    between atoms: C_21  and  O_36
REMARK    8  A    between atoms: O_38  and  C_40
REMARK    9  A    between atoms: C_42  and  C_44
REMARK   10  A    between atoms: C_42  and  O_52
REMARK   11  A    between atoms: C_45  and  C_47
REMARK   12  A    between atoms: C_47  and  C_49
REMARK                            x       y       z     vdW  Elec       q    Type
REMARK                         _______ _______ _______ _____ _____    ______ ____
ROOT
ATOM      1  O   UNL     1     -10.594   2.981  -3.173  0.00  0.00    +0.000 OA
ATOM      2  O   UNL     1     -17.402   3.288  -2.290  0.00  0.00    +0.000 OA
ATOM      3  O   UNL     1     -13.958   3.924  -4.689  0.00  0.00    +0.000 OA
ATOM      4  O   UNL     1     -16.267   1.534  -3.269  0.00  0.00    +0.000 OA
ATOM      5  O   UNL     1     -14.886  -0.297  -1.396  0.00  0.00    +0.000 OA
ATOM      6  C   UNL     1     -15.350   4.939  -3.104  0.00  0.00    +0.000 C 
ATOM      7  C   UNL     1     -13.014   4.065  -2.420  0.00  0.00    +0.000 C 
ATOM      8  C   UNL     1     -14.085   4.267  -3.513  0.00  0.00    +0.000 C 
ATOM      9  C   UNL     1     -16.446   4.124  -2.703  0.00  0.00    +0.000 C 
ATOM     10  C   UNL     1     -13.241   2.734  -1.676  0.00  0.00    +0.000 C 
ATOM     11  C   UNL     1     -12.148   1.818  -1.719  0.00  0.00    +0.000 C 
ATOM     12  C   UNL     1     -11.663   3.786  -3.005  0.00  0.00    +0.000 C 
ATOM     13  C   UNL     1     -10.798   1.753  -2.361  0.00  0.00    +0.000 C 
ATOM     14  C   UNL     1     -10.673   0.519  -3.266  0.00  0.00    +0.000 C 
ATOM     15  C   UNL     1     -11.822  -0.236  -3.645  0.00  0.00    +0.000 C 
ATOM     16  C   UNL     1      -9.372  -0.105  -3.762  0.00  0.00    +0.000 C 
ATOM     17  C   UNL     1     -17.154   1.976  -2.554  0.00  0.00    +0.000 C 
ATOM     18  C   UNL     1     -12.907  -0.890  -3.926  0.00  0.00    +0.000 C 
ATOM     19  C   UNL     1     -18.067   1.109  -1.772  0.00  0.00    +0.000 C 
ATOM     20  C   UNL     1     -13.317  -2.043  -3.159  0.00  0.00    +0.000 C 
ATOM     21  C   UNL     1     -17.767  -0.291  -1.544  0.00  0.00    +0.000 C 
ATOM     22  C   UNL     1     -14.661  -2.309  -2.649  0.00  0.00    +0.000 C 
ATOM     23  C   UNL     1     -16.915  -1.145  -2.358  0.00  0.00    +0.000 C 
ATOM     24  C   UNL     1     -15.444  -1.164  -2.077  0.00  0.00    +0.000 C 
ATOM     25  C   UNL     1     -13.814  -0.276  -4.954  0.00  0.00    +0.000 C 
ATOM     26  C   UNL     1     -15.050  -3.733  -2.252  0.00  0.00    +0.000 C 
ATOM     27  C   UNL     1     -17.505  -1.784  -3.610  0.00  0.00    +0.000 C 
ENDROOT
BRANCH   7  28
ATOM     28  O   UNL     1     -12.891   5.105  -1.470  0.00  0.00    +0.000 OA
ATOM     29  H   UNL     1     -13.663   5.030  -0.879  0.00  0.00    +0.000 HD
ENDBRANCH   7  28
BRANCH  10  30
ATOM     30  O   UNL     1     -14.401   2.450  -1.003  0.00  0.00    +0.000 OA
ATOM     31  H   UNL     1     -14.831   3.268  -0.675  0.00  0.00    +0.000 HD
ENDBRANCH  10  30
BRANCH  13  32
ATOM     32  O   UNL     1      -9.822   1.729  -1.322  0.00  0.00    +0.000 OA
ATOM     33  H   UNL     1      -9.382   2.594  -1.355  0.00  0.00    +0.000 HD
ENDBRANCH  13  32
BRANCH  19  34
ATOM     34  O   UNL     1     -19.167   1.616  -1.105  0.00  0.00    +0.000 OA
ATOM     35  H   UNL     1     -20.019   1.288  -1.461  0.00  0.00    +0.000 HD
ENDBRANCH  19  34
BRANCH  21  36
ATOM     36  O   UNL     1     -18.647  -0.940  -0.695  0.00  0.00    +0.000 OA
ATOM     37  C   UNL     1     -18.024  -1.265   0.523  0.00  0.00    +0.000 C 
ENDBRANCH  21  36
BRANCH  20  38
ATOM     38  O   UNL     1     -12.396  -3.117  -3.160  0.00  0.00    +0.000 OA
BRANCH  38  40
ATOM     39  O   UNL     1     -11.768  -2.590  -0.978  0.00  0.00    +0.000 OA
ATOM     40  C   UNL     1     -11.561  -3.038  -2.091  0.00  0.00    +0.000 C 
ATOM     41  C   UNL     1     -10.174  -3.502  -2.340  0.00  0.00    +0.000 C 
ENDBRANCH  38  40
ENDBRANCH  20  38
BRANCH   6  42
ATOM     42  C   UNL     1     -15.484   6.360  -3.337  0.00  0.00    +0.000 C 
BRANCH  42  44
ATOM     43  O   UNL     1     -15.977   6.964  -0.932  0.00  0.00    +0.000 OA
ATOM     44  C   UNL     1     -16.113   7.267  -2.342  0.00  0.00    +0.000 C 
ATOM     45  C   UNL     1     -15.141   7.908  -1.462  0.00  0.00    +0.000 C 
ATOM     46  C   UNL     1     -17.564   7.789  -2.611  0.00  0.00    +0.000 C 
BRANCH  45  47
ATOM     47  C   UNL     1     -15.260   9.243  -0.959  0.00  0.00    +0.000 C 
ATOM     48  C   UNL     1     -15.174   9.506   0.523  0.00  0.00    +0.000 C 
BRANCH  47  49
ATOM     49  C   UNL     1     -15.008  10.352  -1.806  0.00  0.00    +0.000 C 
ATOM     50  C   UNL     1     -14.766  11.247  -2.565  0.00  0.00    +0.000 C 
ATOM     51  C   UNL     1     -14.388  12.310  -3.601  0.00  0.00    +0.000 C 
ENDBRANCH  47  49
ENDBRANCH  45  47
ENDBRANCH  42  44
BRANCH  42  52
ATOM     52  O   UNL     1     -14.956   6.818  -4.538  0.00  0.00    +0.000 OA
ATOM     53  H   UNL     1     -15.510   7.517  -4.941  0.00  0.00    +0.000 HD
ENDBRANCH  42  52
ENDBRANCH   6  42
TORSDOF 12
ENDMDL
