MODEL 1
REMARK VINA RESULT:      -5.0      0.000      0.000
REMARK  Name = 101808841_CandidaspongiolideA.pdbqt.pdb
REMARK  13 active torsions:
REMARK  status: ('A' for Active; 'I' for Inactive)
REMARK    1  A    between atoms: C_6  and  C_39
REMARK    2  A    between atoms: C_9  and  O_27
REMARK    3  A    between atoms: C_9  and  C_51
REMARK    4  A    between atoms: C_10  and  O_29
REMARK    5  A    between atoms: C_14  and  O_31
REMARK    6  A    between atoms: C_15  and  O_33
REMARK    7  A    between atoms: C_20  and  O_35
REMARK    8  A    between atoms: O_35  and  C_37
REMARK    9  A    between atoms: C_39  and  C_41
REMARK   10  A    between atoms: C_39  and  O_49
REMARK   11  A    between atoms: C_42  and  C_44
REMARK   12  A    between atoms: C_44  and  C_46
REMARK   13  A    between atoms: C_51  and  O_52
REMARK                            x       y       z     vdW  Elec       q    Type
REMARK                         _______ _______ _______ _____ _____    ______ ____
ROOT
ATOM      1  O   UNL     1     -12.241  19.472  22.257  0.00  0.00    +0.000 OA
ATOM      2  O   UNL     1     -15.552  17.848  24.178  0.00  0.00    +0.000 OA
ATOM      3  O   UNL     1     -12.470  18.132  20.393  0.00  0.00    +0.000 OA
ATOM      4  O   UNL     1     -11.866  20.134  29.147  0.00  0.00    +0.000 OA
ATOM      5  O   UNL     1     -11.761  21.878  23.697  0.00  0.00    +0.000 OA
ATOM      6  C   UNL     1     -13.229  17.536  23.945  0.00  0.00    +0.000 C 
ATOM      7  C   UNL     1     -14.449  17.918  24.724  0.00  0.00    +0.000 C 
ATOM      8  C   UNL     1     -12.688  18.507  23.057  0.00  0.00    +0.000 C 
ATOM      9  C   UNL     1     -14.203  18.472  26.153  0.00  0.00    +0.000 C 
ATOM     10  C   UNL     1     -13.667  19.892  26.090  0.00  0.00    +0.000 C 
ATOM     11  C   UNL     1     -12.781  20.427  27.072  0.00  0.00    +0.000 C 
ATOM     12  C   UNL     1     -12.266  19.213  20.928  0.00  0.00    +0.000 C 
ATOM     13  C   UNL     1     -11.890  20.839  28.144  0.00  0.00    +0.000 C 
ATOM     14  C   UNL     1     -12.059  20.450  20.139  0.00  0.00    +0.000 C 
ATOM     15  C   UNL     1     -11.718  21.740  20.701  0.00  0.00    +0.000 C 
ATOM     16  C   UNL     1     -11.055  22.075  27.995  0.00  0.00    +0.000 C 
ATOM     17  C   UNL     1     -10.619  22.025  21.616  0.00  0.00    +0.000 C 
ATOM     18  C   UNL     1     -10.213  23.695  23.503  0.00  0.00    +0.000 C 
ATOM     19  C   UNL     1     -10.956  22.493  22.996  0.00  0.00    +0.000 C 
ATOM     20  C   UNL     1     -10.224  23.983  24.939  0.00  0.00    +0.000 C 
ATOM     21  C   UNL     1     -11.175  22.935  26.875  0.00  0.00    +0.000 C 
ATOM     22  C   UNL     1     -11.313  23.715  25.850  0.00  0.00    +0.000 C 
ATOM     23  C   UNL     1     -10.033  22.512  29.023  0.00  0.00    +0.000 C 
ATOM     24  C   UNL     1      -9.309  21.252  21.453  0.00  0.00    +0.000 C 
ATOM     25  C   UNL     1      -9.542  24.663  22.535  0.00  0.00    +0.000 C 
ATOM     26  C   UNL     1     -12.719  24.181  25.569  0.00  0.00    +0.000 C 
ENDROOT
BRANCH   9  27
ATOM     27  O   UNL     1     -13.234  17.655  26.812  0.00  0.00    +0.000 OA
ATOM     28  H   UNL     1     -13.460  17.650  27.760  0.00  0.00    +0.000 HD
ENDBRANCH   9  27
BRANCH  10  29
ATOM     29  O   UNL     1     -14.081  20.702  25.051  0.00  0.00    +0.000 OA
ATOM     30  H   UNL     1     -13.463  21.429  24.846  0.00  0.00    +0.000 HD
ENDBRANCH  10  29
BRANCH  14  31
ATOM     31  O   UNL     1     -12.252  20.404  18.769  0.00  0.00    +0.000 OA
ATOM     32  H   UNL     1     -12.714  19.578  18.513  0.00  0.00    +0.000 HD
ENDBRANCH  14  31
BRANCH  15  33
ATOM     33  O   UNL     1     -12.146  22.817  19.941  0.00  0.00    +0.000 OA
ATOM     34  C   UNL     1     -13.396  23.266  20.394  0.00  0.00    +0.000 C 
ENDBRANCH  15  33
BRANCH  20  35
ATOM     35  O   UNL     1      -9.274  24.905  25.457  0.00  0.00    +0.000 OA
BRANCH  35  37
ATOM     36  O   UNL     1     -10.391  26.925  25.118  0.00  0.00    +0.000 OA
ATOM     37  C   UNL     1      -9.795  26.111  25.798  0.00  0.00    +0.000 C 
ATOM     38  C   UNL     1      -9.551  26.514  27.205  0.00  0.00    +0.000 C 
ENDBRANCH  35  37
ENDBRANCH  20  35
BRANCH   6  39
ATOM     39  C   UNL     1     -12.697  16.191  24.025  0.00  0.00    +0.000 C 
BRANCH  39  41
ATOM     40  O   UNL     1     -10.716  14.587  23.935  0.00  0.00    +0.000 OA
ATOM     41  C   UNL     1     -11.229  15.934  24.083  0.00  0.00    +0.000 C 
ATOM     42  C   UNL     1     -10.661  15.407  22.845  0.00  0.00    +0.000 C 
ATOM     43  C   UNL     1     -10.401  16.661  25.198  0.00  0.00    +0.000 C 
BRANCH  42  44
ATOM     44  C   UNL     1      -9.378  15.822  22.355  0.00  0.00    +0.000 C 
ATOM     45  C   UNL     1      -8.147  15.014  22.679  0.00  0.00    +0.000 C 
BRANCH  44  46
ATOM     46  C   UNL     1      -9.318  16.601  21.168  0.00  0.00    +0.000 C 
ATOM     47  C   UNL     1      -9.203  17.324  20.218  0.00  0.00    +0.000 C 
ATOM     48  C   UNL     1      -8.994  18.344  19.090  0.00  0.00    +0.000 C 
ENDBRANCH  44  46
ENDBRANCH  42  44
ENDBRANCH  39  41
BRANCH  39  49
ATOM     49  O   UNL     1     -13.617  15.217  24.385  0.00  0.00    +0.000 OA
ATOM     50  H   UNL     1     -13.197  14.353  24.565  0.00  0.00    +0.000 HD
ENDBRANCH  39  49
ENDBRANCH   6  39
BRANCH   9  51
ATOM     51  C   UNL     1     -15.457  18.465  26.943  0.00  0.00    +0.000 C 
BRANCH  51  52
ATOM     52  O   UNL     1     -16.585  18.486  27.653  0.00  0.00    +0.000 OA
ATOM     53  H   UNL     1     -16.763  17.609  28.042  0.00  0.00    +0.000 HD
ENDBRANCH  51  52
ENDBRANCH   9  51
TORSDOF 13
ENDMDL
MODEL 2
REMARK VINA RESULT:      -5.0     16.558     21.259
REMARK  Name = 101808841_CandidaspongiolideA.pdbqt.pdb
REMARK  13 active torsions:
REMARK  status: ('A' for Active; 'I' for Inactive)
REMARK    1  A    between atoms: C_6  and  C_39
REMARK    2  A    between atoms: C_9  and  O_27
REMARK    3  A    between atoms: C_9  and  C_51
REMARK    4  A    between atoms: C_10  and  O_29
REMARK    5  A    between atoms: C_14  and  O_31
REMARK    6  A    between atoms: C_15  and  O_33
REMARK    7  A    between atoms: C_20  and  O_35
REMARK    8  A    between atoms: O_35  and  C_37
REMARK    9  A    between atoms: C_39  and  C_41
REMARK   10  A    between atoms: C_39  and  O_49
REMARK   11  A    between atoms: C_42  and  C_44
REMARK   12  A    between atoms: C_44  and  C_46
REMARK   13  A    between atoms: C_51  and  O_52
REMARK                            x       y       z     vdW  Elec       q    Type
REMARK                         _______ _______ _______ _____ _____    ______ ____
ROOT
ATOM      1  O   UNL     1     -21.759  19.659   8.879  0.00  0.00    +0.000 OA
ATOM      2  O   UNL     1     -22.859  21.933   5.577  0.00  0.00    +0.000 OA
ATOM      3  O   UNL     1     -20.772  21.435   9.970  0.00  0.00    +0.000 OA
ATOM      4  O   UNL     1     -22.500  15.805   3.165  0.00  0.00    +0.000 OA
ATOM      5  O   UNL     1     -23.349  17.314   8.620  0.00  0.00    +0.000 OA
ATOM      6  C   UNL     1     -21.079  20.625   6.393  0.00  0.00    +0.000 C 
ATOM      7  C   UNL     1     -22.224  20.883   5.464  0.00  0.00    +0.000 C 
ATOM      8  C   UNL     1     -21.387  20.128   7.690  0.00  0.00    +0.000 C 
ATOM      9  C   UNL     1     -22.580  19.736   4.480  0.00  0.00    +0.000 C 
ATOM     10  C   UNL     1     -23.286  18.606   5.210  0.00  0.00    +0.000 C 
ATOM     11  C   UNL     1     -23.174  17.241   4.812  0.00  0.00    +0.000 C 
ATOM     12  C   UNL     1     -21.486  20.442   9.949  0.00  0.00    +0.000 C 
ATOM     13  C   UNL     1     -22.972  15.898   4.293  0.00  0.00    +0.000 C 
ATOM     14  C   UNL     1     -22.220  19.981  11.150  0.00  0.00    +0.000 C 
ATOM     15  C   UNL     1     -23.003  18.764  11.223  0.00  0.00    +0.000 C 
ATOM     16  C   UNL     1     -23.338  14.707   5.125  0.00  0.00    +0.000 C 
ATOM     17  C   UNL     1     -22.558  17.424  10.861  0.00  0.00    +0.000 C 
ATOM     18  C   UNL     1     -23.677  15.331   9.922  0.00  0.00    +0.000 C 
ATOM     19  C   UNL     1     -23.229  16.747   9.708  0.00  0.00    +0.000 C 
ATOM     20  C   UNL     1     -24.003  14.505   8.757  0.00  0.00    +0.000 C 
ATOM     21  C   UNL     1     -23.982  14.834   6.382  0.00  0.00    +0.000 C 
ATOM     22  C   UNL     1     -24.584  14.975   7.520  0.00  0.00    +0.000 C 
ATOM     23  C   UNL     1     -23.066  13.281   4.694  0.00  0.00    +0.000 C 
ATOM     24  C   UNL     1     -21.105  17.033  11.135  0.00  0.00    +0.000 C 
ATOM     25  C   UNL     1     -23.891  14.784  11.329  0.00  0.00    +0.000 C 
ATOM     26  C   UNL     1     -25.839  15.810   7.497  0.00  0.00    +0.000 C 
ENDROOT
BRANCH   9  27
ATOM     27  O   UNL     1     -21.376  19.219   3.910  0.00  0.00    +0.000 OA
ATOM     28  H   UNL     1     -21.273  19.636   3.035  0.00  0.00    +0.000 HD
ENDBRANCH   9  27
BRANCH  10  29
ATOM     29  O   UNL     1     -24.091  18.925   6.285  0.00  0.00    +0.000 OA
ATOM     30  H   UNL     1     -24.654  18.189   6.590  0.00  0.00    +0.000 HD
ENDBRANCH  10  29
BRANCH  14  31
ATOM     31  O   UNL     1     -22.215  20.780  12.280  0.00  0.00    +0.000 OA
ATOM     32  H   UNL     1     -22.266  20.231  13.091  0.00  0.00    +0.000 HD
ENDBRANCH  14  31
BRANCH  15  33
ATOM     33  O   UNL     1     -24.036  18.813  12.143  0.00  0.00    +0.000 OA
ATOM     34  C   UNL     1     -25.226  19.216  11.518  0.00  0.00    +0.000 C 
ENDBRANCH  15  33
BRANCH  20  35
ATOM     35  O   UNL     1     -24.105  13.097   8.926  0.00  0.00    +0.000 OA
BRANCH  35  37
ATOM     36  O   UNL     1     -21.837  12.653   9.250  0.00  0.00    +0.000 OA
ATOM     37  C   UNL     1     -22.932  12.431   8.770  0.00  0.00    +0.000 C 
ATOM     38  C   UNL     1     -22.994  11.286   7.827  0.00  0.00    +0.000 C 
ENDBRANCH  35  37
ENDBRANCH  20  35
BRANCH   6  39
ATOM     39  C   UNL     1     -19.726  20.972   6.008  0.00  0.00    +0.000 C 
BRANCH  39  41
ATOM     40  O   UNL     1     -18.352  22.033   7.877  0.00  0.00    +0.000 OA
ATOM     41  C   UNL     1     -19.024  22.148   6.598  0.00  0.00    +0.000 C 
ATOM     42  C   UNL     1     -17.583  21.974   6.751  0.00  0.00    +0.000 C 
ATOM     43  C   UNL     1     -19.747  23.538   6.541  0.00  0.00    +0.000 C 
BRANCH  42  44
ATOM     44  C   UNL     1     -16.652  23.035   6.492  0.00  0.00    +0.000 C 
ATOM     45  C   UNL     1     -15.814  23.596   7.613  0.00  0.00    +0.000 C 
BRANCH  44  46
ATOM     46  C   UNL     1     -16.116  23.171   5.184  0.00  0.00    +0.000 C 
ATOM     47  C   UNL     1     -15.752  23.332   4.053  0.00  0.00    +0.000 C 
ATOM     48  C   UNL     1     -15.423  23.574   2.572  0.00  0.00    +0.000 C 
ENDBRANCH  44  46
ENDBRANCH  42  44
ENDBRANCH  39  41
BRANCH  39  49
ATOM     49  O   UNL     1     -19.031  19.972   5.344  0.00  0.00    +0.000 OA
ATOM     50  H   UNL     1     -19.621  19.282   4.983  0.00  0.00    +0.000 HD
ENDBRANCH  39  49
ENDBRANCH   6  39
BRANCH   9  51
ATOM     51  C   UNL     1     -23.456  20.229   3.392  0.00  0.00    +0.000 C 
BRANCH  51  52
ATOM     52  O   UNL     1     -24.258  20.649   2.413  0.00  0.00    +0.000 OA
ATOM     53  H   UNL     1     -24.424  21.607   2.491  0.00  0.00    +0.000 HD
ENDBRANCH  51  52
ENDBRANCH   9  51
TORSDOF 13
ENDMDL
MODEL 3
REMARK VINA RESULT:      -4.9     20.903     26.202
REMARK  Name = 101808841_CandidaspongiolideA.pdbqt.pdb
REMARK  13 active torsions:
REMARK  status: ('A' for Active; 'I' for Inactive)
REMARK    1  A    between atoms: C_6  and  C_39
REMARK    2  A    between atoms: C_9  and  O_27
REMARK    3  A    between atoms: C_9  and  C_51
REMARK    4  A    between atoms: C_10  and  O_29
REMARK    5  A    between atoms: C_14  and  O_31
REMARK    6  A    between atoms: C_15  and  O_33
REMARK    7  A    between atoms: C_20  and  O_35
REMARK    8  A    between atoms: O_35  and  C_37
REMARK    9  A    between atoms: C_39  and  C_41
REMARK   10  A    between atoms: C_39  and  O_49
REMARK   11  A    between atoms: C_42  and  C_44
REMARK   12  A    between atoms: C_44  and  C_46
REMARK   13  A    between atoms: C_51  and  O_52
REMARK                            x       y       z     vdW  Elec       q    Type
REMARK                         _______ _______ _______ _____ _____    ______ ____
ROOT
ATOM      1  O   UNL     1      -1.877  13.954   0.264  0.00  0.00    +0.000 OA
ATOM      2  O   UNL     1      -2.120  13.616   4.400  0.00  0.00    +0.000 OA
ATOM      3  O   UNL     1      -0.337  12.249   0.057  0.00  0.00    +0.000 OA
ATOM      4  O   UNL     1      -3.903  19.864   3.268  0.00  0.00    +0.000 OA
ATOM      5  O   UNL     1      -4.181  15.484  -0.406  0.00  0.00    +0.000 OA
ATOM      6  C   UNL     1      -0.903  14.729   2.718  0.00  0.00    +0.000 C 
ATOM      7  C   UNL     1      -1.887  14.692   3.845  0.00  0.00    +0.000 C 
ATOM      8  C   UNL     1      -1.365  14.332   1.432  0.00  0.00    +0.000 C 
ATOM      9  C   UNL     1      -2.618  16.025   4.161  0.00  0.00    +0.000 C 
ATOM     10  C   UNL     1      -3.672  16.319   3.108  0.00  0.00    +0.000 C 
ATOM     11  C   UNL     1      -4.040  17.644   2.732  0.00  0.00    +0.000 C 
ATOM     12  C   UNL     1      -1.351  12.838  -0.293  0.00  0.00    +0.000 C 
ATOM     13  C   UNL     1      -4.315  19.045   2.453  0.00  0.00    +0.000 C 
ATOM     14  C   UNL     1      -2.200  12.341  -1.401  0.00  0.00    +0.000 C 
ATOM     15  C   UNL     1      -3.356  13.036  -1.930  0.00  0.00    +0.000 C 
ATOM     16  C   UNL     1      -5.071  19.431   1.218  0.00  0.00    +0.000 C 
ATOM     17  C   UNL     1      -3.402  14.420  -2.386  0.00  0.00    +0.000 C 
ATOM     18  C   UNL     1      -5.176  16.254  -2.444  0.00  0.00    +0.000 C 
ATOM     19  C   UNL     1      -4.266  15.381  -1.631  0.00  0.00    +0.000 C 
ATOM     20  C   UNL     1      -5.767  17.440  -1.819  0.00  0.00    +0.000 C 
ATOM     21  C   UNL     1      -5.632  18.466   0.345  0.00  0.00    +0.000 C 
ATOM     22  C   UNL     1      -6.149  17.566  -0.431  0.00  0.00    +0.000 C 
ATOM     23  C   UNL     1      -5.310  20.869   0.810  0.00  0.00    +0.000 C 
ATOM     24  C   UNL     1      -2.174  15.004  -3.086  0.00  0.00    +0.000 C 
ATOM     25  C   UNL     1      -5.567  15.865  -3.865  0.00  0.00    +0.000 C 
ATOM     26  C   UNL     1      -7.037  16.552   0.246  0.00  0.00    +0.000 C 
ENDROOT
BRANCH   9  27
ATOM     27  O   UNL     1      -1.667  17.091   4.156  0.00  0.00    +0.000 OA
ATOM     28  H   UNL     1      -1.409  17.239   3.227  0.00  0.00    +0.000 HD
ENDBRANCH   9  27
BRANCH  10  29
ATOM     29  O   UNL     1      -4.318  15.252   2.514  0.00  0.00    +0.000 OA
ATOM     30  H   UNL     1      -4.021  14.381   2.838  0.00  0.00    +0.000 HD
ENDBRANCH  10  29
BRANCH  14  31
ATOM     31  O   UNL     1      -1.919  11.103  -1.950  0.00  0.00    +0.000 OA
ATOM     32  H   UNL     1      -2.558  10.888  -2.662  0.00  0.00    +0.000 HD
ENDBRANCH  14  31
BRANCH  15  33
ATOM     33  O   UNL     1      -4.309  12.200  -2.487  0.00  0.00    +0.000 OA
ATOM     34  C   UNL     1      -4.358  12.375  -3.879  0.00  0.00    +0.000 C 
ENDBRANCH  15  33
BRANCH  20  35
ATOM     35  O   UNL     1      -6.350  18.431  -2.653  0.00  0.00    +0.000 OA
BRANCH  35  37
ATOM     36  O   UNL     1      -8.520  17.601  -2.862  0.00  0.00    +0.000 OA
ATOM     37  C   UNL     1      -7.707  18.469  -2.611  0.00  0.00    +0.000 C 
ATOM     38  C   UNL     1      -8.277  19.791  -2.251  0.00  0.00    +0.000 C 
ENDBRANCH  35  37
ENDBRANCH  20  35
BRANCH   6  39
ATOM     39  C   UNL     1       0.486  15.056   2.965  0.00  0.00    +0.000 C 
BRANCH  39  41
ATOM     40  O   UNL     1       2.680  16.091   2.178  0.00  0.00    +0.000 OA
ATOM     41  C   UNL     1       1.237  15.991   2.080  0.00  0.00    +0.000 C 
ATOM     42  C   UNL     1       2.167  15.336   1.164  0.00  0.00    +0.000 C 
ATOM     43  C   UNL     1       0.654  17.430   1.870  0.00  0.00    +0.000 C 
BRANCH  42  44
ATOM     44  C   UNL     1       2.348  15.780  -0.189  0.00  0.00    +0.000 C 
ATOM     45  C   UNL     1       3.511  16.671  -0.543  0.00  0.00    +0.000 C 
BRANCH  44  46
ATOM     46  C   UNL     1       1.825  14.986  -1.245  0.00  0.00    +0.000 C 
ATOM     47  C   UNL     1       1.459  14.248  -2.116  0.00  0.00    +0.000 C 
ATOM     48  C   UNL     1       1.114  13.230  -3.213  0.00  0.00    +0.000 C 
ENDBRANCH  44  46
ENDBRANCH  42  44
ENDBRANCH  39  41
BRANCH  39  49
ATOM     49  O   UNL     1       0.949  14.728   4.232  0.00  0.00    +0.000 OA
ATOM     50  H   UNL     1       0.599  13.873   4.548  0.00  0.00    +0.000 HD
ENDBRANCH  39  49
ENDBRANCH   6  39
BRANCH   9  51
ATOM     51  C   UNL     1      -3.269  15.966   5.491  0.00  0.00    +0.000 C 
BRANCH  51  52
ATOM     52  O   UNL     1      -3.832  15.925   6.699  0.00  0.00    +0.000 OA
ATOM     53  H   UNL     1      -4.773  15.677   6.631  0.00  0.00    +0.000 HD
ENDBRANCH  51  52
ENDBRANCH   9  51
TORSDOF 13
ENDMDL
MODEL 4
REMARK VINA RESULT:      -4.7      2.446      6.035
REMARK  Name = 101808841_CandidaspongiolideA.pdbqt.pdb
REMARK  13 active torsions:
REMARK  status: ('A' for Active; 'I' for Inactive)
REMARK    1  A    between atoms: C_6  and  C_39
REMARK    2  A    between atoms: C_9  and  O_27
REMARK    3  A    between atoms: C_9  and  C_51
REMARK    4  A    between atoms: C_10  and  O_29
REMARK    5  A    between atoms: C_14  and  O_31
REMARK    6  A    between atoms: C_15  and  O_33
REMARK    7  A    between atoms: C_20  and  O_35
REMARK    8  A    between atoms: O_35  and  C_37
REMARK    9  A    between atoms: C_39  and  C_41
REMARK   10  A    between atoms: C_39  and  O_49
REMARK   11  A    between atoms: C_42  and  C_44
REMARK   12  A    between atoms: C_44  and  C_46
REMARK   13  A    between atoms: C_51  and  O_52
REMARK                            x       y       z     vdW  Elec       q    Type
REMARK                         _______ _______ _______ _____ _____    ______ ____
ROOT
ATOM      1  O   UNL     1     -11.661  17.175  23.170  0.00  0.00    +0.000 OA
ATOM      2  O   UNL     1     -14.774  18.937  21.050  0.00  0.00    +0.000 OA
ATOM      3  O   UNL     1     -12.808  15.206  23.525  0.00  0.00    +0.000 OA
ATOM      4  O   UNL     1     -11.424  24.098  23.424  0.00  0.00    +0.000 OA
ATOM      5  O   UNL     1      -9.423  18.811  22.530  0.00  0.00    +0.000 OA
ATOM      6  C   UNL     1     -13.956  18.692  23.245  0.00  0.00    +0.000 C 
ATOM      7  C   UNL     1     -14.243  19.493  22.014  0.00  0.00    +0.000 C 
ATOM      8  C   UNL     1     -12.781  17.891  23.246  0.00  0.00    +0.000 C 
ATOM      9  C   UNL     1     -13.748  20.964  22.022  0.00  0.00    +0.000 C 
ATOM     10  C   UNL     1     -12.241  21.022  21.839  0.00  0.00    +0.000 C 
ATOM     11  C   UNL     1     -11.432  22.049  22.409  0.00  0.00    +0.000 C 
ATOM     12  C   UNL     1     -11.800  15.830  23.223  0.00  0.00    +0.000 C 
ATOM     13  C   UNL     1     -10.737  23.157  23.044  0.00  0.00    +0.000 C 
ATOM     14  C   UNL     1     -10.553  15.146  22.809  0.00  0.00    +0.000 C 
ATOM     15  C   UNL     1      -9.298  15.814  22.533  0.00  0.00    +0.000 C 
ATOM     16  C   UNL     1      -9.248  23.115  23.208  0.00  0.00    +0.000 C 
ATOM     17  C   UNL     1      -8.606  16.756  23.405  0.00  0.00    +0.000 C 
ATOM     18  C   UNL     1      -7.087  18.777  23.055  0.00  0.00    +0.000 C 
ATOM     19  C   UNL     1      -8.454  18.168  22.936  0.00  0.00    +0.000 C 
ATOM     20  C   UNL     1      -6.946  20.232  22.960  0.00  0.00    +0.000 C 
ATOM     21  C   UNL     1      -8.459  22.069  22.666  0.00  0.00    +0.000 C 
ATOM     22  C   UNL     1      -7.757  21.111  22.149  0.00  0.00    +0.000 C 
ATOM     23  C   UNL     1      -8.466  24.181  23.945  0.00  0.00    +0.000 C 
ATOM     24  C   UNL     1      -8.670  16.538  24.918  0.00  0.00    +0.000 C 
ATOM     25  C   UNL     1      -5.848  17.896  23.171  0.00  0.00    +0.000 C 
ATOM     26  C   UNL     1      -7.975  20.861  20.678  0.00  0.00    +0.000 C 
ENDROOT
BRANCH   9  27
ATOM     27  O   UNL     1     -14.070  21.559  23.281  0.00  0.00    +0.000 OA
ATOM     28  H   UNL     1     -14.943  21.213  23.544  0.00  0.00    +0.000 HD
ENDBRANCH   9  27
BRANCH  10  29
ATOM     29  O   UNL     1     -11.639  20.051  21.063  0.00  0.00    +0.000 OA
ATOM     30  H   UNL     1     -11.892  20.085  20.121  0.00  0.00    +0.000 HD
ENDBRANCH  10  29
BRANCH  14  31
ATOM     31  O   UNL     1     -10.579  13.776  22.614  0.00  0.00    +0.000 OA
ATOM     32  H   UNL     1     -10.033  13.527  21.839  0.00  0.00    +0.000 HD
ENDBRANCH  14  31
BRANCH  15  33
ATOM     33  O   UNL     1      -8.488  15.144  21.631  0.00  0.00    +0.000 OA
ATOM     34  C   UNL     1      -7.339  14.660  22.274  0.00  0.00    +0.000 C 
ENDBRANCH  15  33
BRANCH  20  35
ATOM     35  O   UNL     1      -5.732  20.829  23.393  0.00  0.00    +0.000 OA
BRANCH  35  37
ATOM     36  O   UNL     1      -6.294  20.880  25.657  0.00  0.00    +0.000 OA
ATOM     37  C   UNL     1      -5.776  21.332  24.654  0.00  0.00    +0.000 C 
ATOM     38  C   UNL     1      -5.136  22.661  24.811  0.00  0.00    +0.000 C 
ENDBRANCH  35  37
ENDBRANCH  20  35
BRANCH   6  39
ATOM     39  C   UNL     1     -14.903  18.664  24.342  0.00  0.00    +0.000 C 
BRANCH  39  41
ATOM     40  O   UNL     1     -15.346  18.453  26.844  0.00  0.00    +0.000 OA
ATOM     41  C   UNL     1     -14.463  18.827  25.757  0.00  0.00    +0.000 C 
ATOM     42  C   UNL     1     -14.359  17.576  26.503  0.00  0.00    +0.000 C 
ATOM     43  C   UNL     1     -13.729  20.155  26.148  0.00  0.00    +0.000 C 
BRANCH  42  44
ATOM     44  C   UNL     1     -13.298  17.328  27.437  0.00  0.00    +0.000 C 
ATOM     45  C   UNL     1     -13.471  17.690  28.890  0.00  0.00    +0.000 C 
BRANCH  44  46
ATOM     46  C   UNL     1     -12.369  16.290  27.159  0.00  0.00    +0.000 C 
ATOM     47  C   UNL     1     -11.657  15.372  26.863  0.00  0.00    +0.000 C 
ATOM     48  C   UNL     1     -10.862  14.132  26.428  0.00  0.00    +0.000 C 
ENDBRANCH  44  46
ENDBRANCH  42  44
ENDBRANCH  39  41
BRANCH  39  49
ATOM     49  O   UNL     1     -16.231  18.822  23.973  0.00  0.00    +0.000 OA
ATOM     50  H   UNL     1     -16.509  18.181  23.290  0.00  0.00    +0.000 HD
ENDBRANCH  39  49
ENDBRANCH   6  39
BRANCH   9  51
ATOM     51  C   UNL     1     -14.395  21.744  20.941  0.00  0.00    +0.000 C 
BRANCH  51  52
ATOM     52  O   UNL     1     -14.989  22.422  19.959  0.00  0.00    +0.000 OA
ATOM     53  H   UNL     1     -14.872  21.965  19.105  0.00  0.00    +0.000 HD
ENDBRANCH  51  52
ENDBRANCH   9  51
TORSDOF 13
ENDMDL
MODEL 5
REMARK VINA RESULT:      -4.7     18.006     21.917
REMARK  Name = 101808841_CandidaspongiolideA.pdbqt.pdb
REMARK  13 active torsions:
REMARK  status: ('A' for Active; 'I' for Inactive)
REMARK    1  A    between atoms: C_6  and  C_39
REMARK    2  A    between atoms: C_9  and  O_27
REMARK    3  A    between atoms: C_9  and  C_51
REMARK    4  A    between atoms: C_10  and  O_29
REMARK    5  A    between atoms: C_14  and  O_31
REMARK    6  A    between atoms: C_15  and  O_33
REMARK    7  A    between atoms: C_20  and  O_35
REMARK    8  A    between atoms: O_35  and  C_37
REMARK    9  A    between atoms: C_39  and  C_41
REMARK   10  A    between atoms: C_39  and  O_49
REMARK   11  A    between atoms: C_42  and  C_44
REMARK   12  A    between atoms: C_44  and  C_46
REMARK   13  A    between atoms: C_51  and  O_52
REMARK                            x       y       z     vdW  Elec       q    Type
REMARK                         _______ _______ _______ _____ _____    ______ ____
ROOT
ATOM      1  O   UNL     1     -22.651   5.720  18.603  0.00  0.00    +0.000 OA
ATOM      2  O   UNL     1     -25.246   8.953  18.904  0.00  0.00    +0.000 OA
ATOM      3  O   UNL     1     -21.093   6.884  17.364  0.00  0.00    +0.000 OA
ATOM      4  O   UNL     1     -29.211   3.734  19.637  0.00  0.00    +0.000 OA
ATOM      5  O   UNL     1     -23.577   3.944  20.623  0.00  0.00    +0.000 OA
ATOM      6  C   UNL     1     -24.763   7.111  17.519  0.00  0.00    +0.000 C 
ATOM      7  C   UNL     1     -25.620   7.852  18.498  0.00  0.00    +0.000 C 
ATOM      8  C   UNL     1     -23.657   6.381  18.038  0.00  0.00    +0.000 C 
ATOM      9  C   UNL     1     -26.887   7.107  19.000  0.00  0.00    +0.000 C 
ATOM     10  C   UNL     1     -26.509   6.019  19.990  0.00  0.00    +0.000 C 
ATOM     11  C   UNL     1     -27.257   4.813  20.135  0.00  0.00    +0.000 C 
ATOM     12  C   UNL     1     -21.402   6.119  18.266  0.00  0.00    +0.000 C 
ATOM     13  C   UNL     1     -28.114   3.639  20.176  0.00  0.00    +0.000 C 
ATOM     14  C   UNL     1     -20.391   5.544  19.184  0.00  0.00    +0.000 C 
ATOM     15  C   UNL     1     -20.671   4.560  20.209  0.00  0.00    +0.000 C 
ATOM     16  C   UNL     1     -27.644   2.389  20.856  0.00  0.00    +0.000 C 
ATOM     17  C   UNL     1     -21.369   3.292  20.027  0.00  0.00    +0.000 C 
ATOM     18  C   UNL     1     -22.869   1.821  21.476  0.00  0.00    +0.000 C 
ATOM     19  C   UNL     1     -22.680   3.105  20.722  0.00  0.00    +0.000 C 
ATOM     20  C   UNL     1     -24.222   1.418  21.865  0.00  0.00    +0.000 C 
ATOM     21  C   UNL     1     -26.419   2.332  21.567  0.00  0.00    +0.000 C 
ATOM     22  C   UNL     1     -25.302   2.309  22.223  0.00  0.00    +0.000 C 
ATOM     23  C   UNL     1     -28.436   1.099  20.855  0.00  0.00    +0.000 C 
ATOM     24  C   UNL     1     -21.169   2.525  18.719  0.00  0.00    +0.000 C 
ATOM     25  C   UNL     1     -21.668   0.995  21.923  0.00  0.00    +0.000 C 
ATOM     26  C   UNL     1     -25.135   3.384  23.267  0.00  0.00    +0.000 C 
ENDROOT
BRANCH   9  27
ATOM     27  O   UNL     1     -27.541   6.495  17.887  0.00  0.00    +0.000 OA
ATOM     28  H   UNL     1     -27.846   5.618  18.182  0.00  0.00    +0.000 HD
ENDBRANCH   9  27
BRANCH  10  29
ATOM     29  O   UNL     1     -25.411   6.226  20.801  0.00  0.00    +0.000 OA
ATOM     30  H   UNL     1     -25.163   5.449  21.337  0.00  0.00    +0.000 HD
ENDBRANCH  10  29
BRANCH  14  31
ATOM     31  O   UNL     1     -19.087   6.003  19.109  0.00  0.00    +0.000 OA
ATOM     32  H   UNL     1     -19.070   6.978  19.007  0.00  0.00    +0.000 HD
ENDBRANCH  14  31
BRANCH  15  33
ATOM     33  O   UNL     1     -19.801   4.604  21.286  0.00  0.00    +0.000 OA
ATOM     34  C   UNL     1     -20.517   4.563  22.492  0.00  0.00    +0.000 C 
ENDBRANCH  15  33
BRANCH  20  35
ATOM     35  O   UNL     1     -24.442   0.076  22.276  0.00  0.00    +0.000 OA
BRANCH  35  37
ATOM     36  O   UNL     1     -23.884   0.212  24.538  0.00  0.00    +0.000 OA
ATOM     37  C   UNL     1     -24.621  -0.076  23.614  0.00  0.00    +0.000 C 
ATOM     38  C   UNL     1     -25.890  -0.743  23.995  0.00  0.00    +0.000 C 
ENDBRANCH  35  37
ENDBRANCH  20  35
BRANCH   6  39
ATOM     39  C   UNL     1     -25.002   7.229  16.095  0.00  0.00    +0.000 C 
BRANCH  39  41
ATOM     40  O   UNL     1     -24.305   5.919  14.021  0.00  0.00    +0.000 OA
ATOM     41  C   UNL     1     -25.113   6.028  15.219  0.00  0.00    +0.000 C 
ATOM     42  C   UNL     1     -23.889   5.236  15.127  0.00  0.00    +0.000 C 
ATOM     43  C   UNL     1     -26.547   5.482  14.901  0.00  0.00    +0.000 C 
BRANCH  42  44
ATOM     44  C   UNL     1     -23.907   3.801  15.101  0.00  0.00    +0.000 C 
ATOM     45  C   UNL     1     -23.075   3.053  14.091  0.00  0.00    +0.000 C 
BRANCH  44  46
ATOM     46  C   UNL     1     -24.219   3.099  16.296  0.00  0.00    +0.000 C 
ATOM     47  C   UNL     1     -24.539   2.442  17.247  0.00  0.00    +0.000 C 
ATOM     48  C   UNL     1     -25.047   1.537  18.379  0.00  0.00    +0.000 C 
ENDBRANCH  44  46
ENDBRANCH  42  44
ENDBRANCH  39  41
BRANCH  39  49
ATOM     49  O   UNL     1     -25.453   8.473  15.679  0.00  0.00    +0.000 OA
ATOM     50  H   UNL     1     -26.070   8.881  16.317  0.00  0.00    +0.000 HD
ENDBRANCH  39  49
ENDBRANCH   6  39
BRANCH   9  51
ATOM     51  C   UNL     1     -27.826   8.049  19.654  0.00  0.00    +0.000 C 
BRANCH  51  52
ATOM     52  O   UNL     1     -28.660   8.889  20.266  0.00  0.00    +0.000 OA
ATOM     53  H   UNL     1     -29.567   8.530  20.271  0.00  0.00    +0.000 HD
ENDBRANCH  51  52
ENDBRANCH   9  51
TORSDOF 13
ENDMDL
MODEL 6
REMARK VINA RESULT:      -4.6     19.098     23.752
REMARK  Name = 101808841_CandidaspongiolideA.pdbqt.pdb
REMARK  13 active torsions:
REMARK  status: ('A' for Active; 'I' for Inactive)
REMARK    1  A    between atoms: C_6  and  C_39
REMARK    2  A    between atoms: C_9  and  O_27
REMARK    3  A    between atoms: C_9  and  C_51
REMARK    4  A    between atoms: C_10  and  O_29
REMARK    5  A    between atoms: C_14  and  O_31
REMARK    6  A    between atoms: C_15  and  O_33
REMARK    7  A    between atoms: C_20  and  O_35
REMARK    8  A    between atoms: O_35  and  C_37
REMARK    9  A    between atoms: C_39  and  C_41
REMARK   10  A    between atoms: C_39  and  O_49
REMARK   11  A    between atoms: C_42  and  C_44
REMARK   12  A    between atoms: C_44  and  C_46
REMARK   13  A    between atoms: C_51  and  O_52
REMARK                            x       y       z     vdW  Elec       q    Type
REMARK                         _______ _______ _______ _____ _____    ______ ____
ROOT
ATOM      1  O   UNL     1     -23.174   3.048  15.771  0.00  0.00    +0.000 OA
ATOM      2  O   UNL     1     -20.381   5.601  17.492  0.00  0.00    +0.000 OA
ATOM      3  O   UNL     1     -23.794   4.565  14.148  0.00  0.00    +0.000 OA
ATOM      4  O   UNL     1     -22.005   1.552  22.438  0.00  0.00    +0.000 OA
ATOM      5  O   UNL     1     -22.477   0.501  16.832  0.00  0.00    +0.000 OA
ATOM      6  C   UNL     1     -22.659   5.020  17.620  0.00  0.00    +0.000 C 
ATOM      7  C   UNL     1     -21.263   5.054  18.157  0.00  0.00    +0.000 C 
ATOM      8  C   UNL     1     -22.966   4.017  16.658  0.00  0.00    +0.000 C 
ATOM      9  C   UNL     1     -21.023   4.297  19.491  0.00  0.00    +0.000 C 
ATOM     10  C   UNL     1     -21.012   2.796  19.258  0.00  0.00    +0.000 C 
ATOM     11  C   UNL     1     -21.446   1.859  20.242  0.00  0.00    +0.000 C 
ATOM     12  C   UNL     1     -23.491   3.437  14.514  0.00  0.00    +0.000 C 
ATOM     13  C   UNL     1     -21.914   1.023  21.335  0.00  0.00    +0.000 C 
ATOM     14  C   UNL     1     -23.378   2.310  13.560  0.00  0.00    +0.000 C 
ATOM     15  C   UNL     1     -23.120   0.935  13.934  0.00  0.00    +0.000 C 
ATOM     16  C   UNL     1     -22.258  -0.415  21.089  0.00  0.00    +0.000 C 
ATOM     17  C   UNL     1     -23.852   0.152  14.922  0.00  0.00    +0.000 C 
ATOM     18  C   UNL     1     -23.271  -1.739  16.535  0.00  0.00    +0.000 C 
ATOM     19  C   UNL     1     -23.120  -0.297  16.147  0.00  0.00    +0.000 C 
ATOM     20  C   UNL     1     -22.892  -2.154  17.888  0.00  0.00    +0.000 C 
ATOM     21  C   UNL     1     -22.044  -1.037  19.833  0.00  0.00    +0.000 C 
ATOM     22  C   UNL     1     -21.825  -1.587  18.681  0.00  0.00    +0.000 C 
ATOM     23  C   UNL     1     -22.844  -1.320  22.152  0.00  0.00    +0.000 C 
ATOM     24  C   UNL     1     -25.359   0.375  15.066  0.00  0.00    +0.000 C 
ATOM     25  C   UNL     1     -23.714  -2.779  15.513  0.00  0.00    +0.000 C 
ATOM     26  C   UNL     1     -20.423  -1.444  18.144  0.00  0.00    +0.000 C 
ENDROOT
BRANCH   9  27
ATOM     27  O   UNL     1     -22.082   4.603  20.399  0.00  0.00    +0.000 OA
ATOM     28  H   UNL     1     -21.990   5.543  20.639  0.00  0.00    +0.000 HD
ENDBRANCH   9  27
BRANCH  10  29
ATOM     29  O   UNL     1     -20.532   2.325  18.052  0.00  0.00    +0.000 OA
ATOM     30  H   UNL     1     -21.225   1.971  17.463  0.00  0.00    +0.000 HD
ENDBRANCH  10  29
BRANCH  14  31
ATOM     31  O   UNL     1     -23.472   2.574  12.205  0.00  0.00    +0.000 OA
ATOM     32  H   UNL     1     -23.296   1.763  11.682  0.00  0.00    +0.000 HD
ENDBRANCH  14  31
BRANCH  15  33
ATOM     33  O   UNL     1     -22.480   0.194  12.954  0.00  0.00    +0.000 OA
ATOM     34  C   UNL     1     -23.342  -0.790  12.446  0.00  0.00    +0.000 C 
ENDBRANCH  15  33
BRANCH  20  35
ATOM     35  O   UNL     1     -23.332  -3.420  18.361  0.00  0.00    +0.000 OA
BRANCH  35  37
ATOM     36  O   UNL     1     -21.653  -4.806  17.522  0.00  0.00    +0.000 OA
ATOM     37  C   UNL     1     -22.359  -4.366  18.409  0.00  0.00    +0.000 C 
ATOM     38  C   UNL     1     -22.171  -4.991  19.741  0.00  0.00    +0.000 C 
ENDBRANCH  35  37
ENDBRANCH  20  35
BRANCH   6  39
ATOM     39  C   UNL     1     -23.617   6.040  17.995  0.00  0.00    +0.000 C 
BRANCH  39  41
ATOM     40  O   UNL     1     -26.150   6.292  17.836  0.00  0.00    +0.000 OA
ATOM     41  C   UNL     1     -24.990   5.688  18.460  0.00  0.00    +0.000 C 
ATOM     42  C   UNL     1     -25.815   5.026  17.454  0.00  0.00    +0.000 C 
ATOM     43  C   UNL     1     -25.243   5.608  20.005  0.00  0.00    +0.000 C 
BRANCH  42  44
ATOM     44  C   UNL     1     -26.701   3.946  17.781  0.00  0.00    +0.000 C 
ATOM     45  C   UNL     1     -28.081   3.890  17.175  0.00  0.00    +0.000 C 
BRANCH  44  46
ATOM     46  C   UNL     1     -26.146   2.702  18.185  0.00  0.00    +0.000 C 
ATOM     47  C   UNL     1     -25.773   1.615  18.526  0.00  0.00    +0.000 C 
ATOM     48  C   UNL     1     -25.435   0.191  18.990  0.00  0.00    +0.000 C 
ENDBRANCH  44  46
ENDBRANCH  42  44
ENDBRANCH  39  41
BRANCH  39  49
ATOM     49  O   UNL     1     -23.076   7.297  18.221  0.00  0.00    +0.000 OA
ATOM     50  H   UNL     1     -23.381   7.691  19.061  0.00  0.00    +0.000 HD
ENDBRANCH  39  49
ENDBRANCH   6  39
BRANCH   9  51
ATOM     51  C   UNL     1     -19.734   4.700  20.101  0.00  0.00    +0.000 C 
BRANCH  51  52
ATOM     52  O   UNL     1     -18.562   5.060  20.624  0.00  0.00    +0.000 OA
ATOM     53  H   UNL     1     -18.009   5.506  19.956  0.00  0.00    +0.000 HD
ENDBRANCH  51  52
ENDBRANCH   9  51
TORSDOF 13
ENDMDL
MODEL 7
REMARK VINA RESULT:      -4.6     27.736     31.856
REMARK  Name = 101808841_CandidaspongiolideA.pdbqt.pdb
REMARK  13 active torsions:
REMARK  status: ('A' for Active; 'I' for Inactive)
REMARK    1  A    between atoms: C_6  and  C_39
REMARK    2  A    between atoms: C_9  and  O_27
REMARK    3  A    between atoms: C_9  and  C_51
REMARK    4  A    between atoms: C_10  and  O_29
REMARK    5  A    between atoms: C_14  and  O_31
REMARK    6  A    between atoms: C_15  and  O_33
REMARK    7  A    between atoms: C_20  and  O_35
REMARK    8  A    between atoms: O_35  and  C_37
REMARK    9  A    between atoms: C_39  and  C_41
REMARK   10  A    between atoms: C_39  and  O_49
REMARK   11  A    between atoms: C_42  and  C_44
REMARK   12  A    between atoms: C_44  and  C_46
REMARK   13  A    between atoms: C_51  and  O_52
REMARK                            x       y       z     vdW  Elec       q    Type
REMARK                         _______ _______ _______ _____ _____    ______ ____
ROOT
ATOM      1  O   UNL     1      -2.875   3.270  -2.402  0.00  0.00    +0.000 OA
ATOM      2  O   UNL     1      -0.372   2.415   0.805  0.00  0.00    +0.000 OA
ATOM      3  O   UNL     1      -1.281   4.508  -3.519  0.00  0.00    +0.000 OA
ATOM      4  O   UNL     1      -6.414   1.898   3.398  0.00  0.00    +0.000 OA
ATOM      5  O   UNL     1      -4.978   1.375  -2.118  0.00  0.00    +0.000 OA
ATOM      6  C   UNL     1      -1.931   4.020   0.071  0.00  0.00    +0.000 C 
ATOM      7  C   UNL     1      -1.494   2.901   0.963  0.00  0.00    +0.000 C 
ATOM      8  C   UNL     1      -2.423   3.676  -1.219  0.00  0.00    +0.000 C 
ATOM      9  C   UNL     1      -2.552   2.374   1.970  0.00  0.00    +0.000 C 
ATOM     10  C   UNL     1      -3.600   1.538   1.255  0.00  0.00    +0.000 C 
ATOM     11  C   UNL     1      -4.954   1.457   1.694  0.00  0.00    +0.000 C 
ATOM     12  C   UNL     1      -2.169   3.668  -3.487  0.00  0.00    +0.000 C 
ATOM     13  C   UNL     1      -6.295   1.466   2.256  0.00  0.00    +0.000 C 
ATOM     14  C   UNL     1      -2.566   2.904  -4.693  0.00  0.00    +0.000 C 
ATOM     15  C   UNL     1      -3.669   1.967  -4.751  0.00  0.00    +0.000 C 
ATOM     16  C   UNL     1      -7.452   0.962   1.449  0.00  0.00    +0.000 C 
ATOM     17  C   UNL     1      -5.045   2.220  -4.340  0.00  0.00    +0.000 C 
ATOM     18  C   UNL     1      -6.940   0.811  -3.371  0.00  0.00    +0.000 C 
ATOM     19  C   UNL     1      -5.589   1.440  -3.186  0.00  0.00    +0.000 C 
ATOM     20  C   UNL     1      -7.678   0.353  -2.192  0.00  0.00    +0.000 C 
ATOM     21  C   UNL     1      -7.280   0.368   0.173  0.00  0.00    +0.000 C 
ATOM     22  C   UNL     1      -7.096  -0.186  -0.984  0.00  0.00    +0.000 C 
ATOM     23  C   UNL     1      -8.887   1.031   1.926  0.00  0.00    +0.000 C 
ATOM     24  C   UNL     1      -5.634   3.614  -4.566  0.00  0.00    +0.000 C 
ATOM     25  C   UNL     1      -7.496   0.556  -4.767  0.00  0.00    +0.000 C 
ATOM     26  C   UNL     1      -6.100  -1.318  -1.016  0.00  0.00    +0.000 C 
ENDROOT
BRANCH   9  27
ATOM     27  O   UNL     1      -3.206   3.485   2.585  0.00  0.00    +0.000 OA
ATOM     28  H   UNL     1      -3.482   3.197   3.474  0.00  0.00    +0.000 HD
ENDBRANCH   9  27
BRANCH  10  29
ATOM     29  O   UNL     1      -3.209   0.806   0.151  0.00  0.00    +0.000 OA
ATOM     30  H   UNL     1      -2.688   1.316  -0.498  0.00  0.00    +0.000 HD
ENDBRANCH  10  29
BRANCH  14  31
ATOM     31  O   UNL     1      -1.811   3.041  -5.844  0.00  0.00    +0.000 OA
ATOM     32  H   UNL     1      -1.934   2.265  -6.432  0.00  0.00    +0.000 HD
ENDBRANCH  14  31
BRANCH  15  33
ATOM     33  O   UNL     1      -3.512   0.969  -5.698  0.00  0.00    +0.000 OA
ATOM     34  C   UNL     1      -2.964  -0.180  -5.108  0.00  0.00    +0.000 C 
ENDBRANCH  15  33
BRANCH  20  35
ATOM     35  O   UNL     1      -9.063   0.067  -2.323  0.00  0.00    +0.000 OA
BRANCH  35  37
ATOM     36  O   UNL     1      -9.872   2.232  -2.645  0.00  0.00    +0.000 OA
ATOM     37  C   UNL     1      -9.876   1.136  -2.118  0.00  0.00    +0.000 C 
ATOM     38  C   UNL     1     -10.887   0.947  -1.050  0.00  0.00    +0.000 C 
ENDBRANCH  35  37
ENDBRANCH  20  35
BRANCH   6  39
ATOM     39  C   UNL     1      -1.755   5.399   0.480  0.00  0.00    +0.000 C 
BRANCH  39  41
ATOM     40  O   UNL     1      -0.524   7.176   1.833  0.00  0.00    +0.000 OA
ATOM     41  C   UNL     1      -0.600   5.822   1.322  0.00  0.00    +0.000 C 
ATOM     42  C   UNL     1      -0.957   6.203   2.686  0.00  0.00    +0.000 C 
ATOM     43  C   UNL     1       0.836   5.381   0.873  0.00  0.00    +0.000 C 
BRANCH  42  44
ATOM     44  C   UNL     1      -0.140   5.859   3.815  0.00  0.00    +0.000 C 
ATOM     45  C   UNL     1      -0.291   4.511   4.474  0.00  0.00    +0.000 C 
BRANCH  44  46
ATOM     46  C   UNL     1       1.125   6.488   3.962  0.00  0.00    +0.000 C 
ATOM     47  C   UNL     1       2.194   6.985   4.184  0.00  0.00    +0.000 C 
ATOM     48  C   UNL     1       3.537   7.595   4.608  0.00  0.00    +0.000 C 
ENDBRANCH  44  46
ENDBRANCH  42  44
ENDBRANCH  39  41
BRANCH  39  49
ATOM     49  O   UNL     1      -2.510   6.321  -0.230  0.00  0.00    +0.000 OA
ATOM     50  H   UNL     1      -3.086   5.899  -0.897  0.00  0.00    +0.000 HD
ENDBRANCH  39  49
ENDBRANCH   6  39
BRANCH   9  51
ATOM     51  C   UNL     1      -1.912   1.548   3.021  0.00  0.00    +0.000 C 
BRANCH  51  52
ATOM     52  O   UNL     1      -1.322   0.793   3.948  0.00  0.00    +0.000 OA
ATOM     53  H   UNL     1      -1.425   1.190   4.833  0.00  0.00    +0.000 HD
ENDBRANCH  51  52
ENDBRANCH   9  51
TORSDOF 13
ENDMDL
MODEL 8
REMARK VINA RESULT:      -4.5     10.385     16.300
REMARK  Name = 101808841_CandidaspongiolideA.pdbqt.pdb
REMARK  13 active torsions:
REMARK  status: ('A' for Active; 'I' for Inactive)
REMARK    1  A    between atoms: C_6  and  C_39
REMARK    2  A    between atoms: C_9  and  O_27
REMARK    3  A    between atoms: C_9  and  C_51
REMARK    4  A    between atoms: C_10  and  O_29
REMARK    5  A    between atoms: C_14  and  O_31
REMARK    6  A    between atoms: C_15  and  O_33
REMARK    7  A    between atoms: C_20  and  O_35
REMARK    8  A    between atoms: O_35  and  C_37
REMARK    9  A    between atoms: C_39  and  C_41
REMARK   10  A    between atoms: C_39  and  O_49
REMARK   11  A    between atoms: C_42  and  C_44
REMARK   12  A    between atoms: C_44  and  C_46
REMARK   13  A    between atoms: C_51  and  O_52
REMARK                            x       y       z     vdW  Elec       q    Type
REMARK                         _______ _______ _______ _____ _____    ______ ____
ROOT
ATOM      1  O   UNL     1      -4.749  15.426  14.261  0.00  0.00    +0.000 OA
ATOM      2  O   UNL     1      -6.279  16.375  10.514  0.00  0.00    +0.000 OA
ATOM      3  O   UNL     1      -6.763  15.749  15.338  0.00  0.00    +0.000 OA
ATOM      4  O   UNL     1       0.155  17.698   9.921  0.00  0.00    +0.000 OA
ATOM      5  O   UNL     1      -2.294  14.120  13.657  0.00  0.00    +0.000 OA
ATOM      6  C   UNL     1      -5.272  17.377  12.392  0.00  0.00    +0.000 C 
ATOM      7  C   UNL     1      -5.272  16.923  10.966  0.00  0.00    +0.000 C 
ATOM      8  C   UNL     1      -5.010  16.398  13.391  0.00  0.00    +0.000 C 
ATOM      9  C   UNL     1      -3.938  17.100  10.191  0.00  0.00    +0.000 C 
ATOM     10  C   UNL     1      -2.921  16.063  10.634  0.00  0.00    +0.000 C 
ATOM     11  C   UNL     1      -1.516  16.310  10.634  0.00  0.00    +0.000 C 
ATOM     12  C   UNL     1      -5.737  15.115  15.133  0.00  0.00    +0.000 C 
ATOM     13  C   UNL     1      -0.117  16.699  10.578  0.00  0.00    +0.000 C 
ATOM     14  C   UNL     1      -5.462  13.831  15.818  0.00  0.00    +0.000 C 
ATOM     15  C   UNL     1      -4.230  13.078  15.698  0.00  0.00    +0.000 C 
ATOM     16  C   UNL     1       0.919  15.890  11.300  0.00  0.00    +0.000 C 
ATOM     17  C   UNL     1      -2.879  13.587  15.900  0.00  0.00    +0.000 C 
ATOM     18  C   UNL     1      -0.575  13.055  14.940  0.00  0.00    +0.000 C 
ATOM     19  C   UNL     1      -1.953  13.611  14.726  0.00  0.00    +0.000 C 
ATOM     20  C   UNL     1       0.477  13.370  13.969  0.00  0.00    +0.000 C 
ATOM     21  C   UNL     1       0.601  14.679  11.964  0.00  0.00    +0.000 C 
ATOM     22  C   UNL     1       0.289  13.566  12.550  0.00  0.00    +0.000 C 
ATOM     23  C   UNL     1       2.378  16.287  11.369  0.00  0.00    +0.000 C 
ATOM     24  C   UNL     1      -2.647  14.647  16.979  0.00  0.00    +0.000 C 
ATOM     25  C   UNL     1      -0.290  12.095  16.088  0.00  0.00    +0.000 C 
ATOM     26  C   UNL     1      -0.439  12.559  11.696  0.00  0.00    +0.000 C 
ENDROOT
BRANCH   9  27
ATOM     27  O   UNL     1      -3.407  18.397  10.467  0.00  0.00    +0.000 OA
ATOM     28  H   UNL     1      -3.509  18.927   9.655  0.00  0.00    +0.000 HD
ENDBRANCH   9  27
BRANCH  10  29
ATOM     29  O   UNL     1      -3.382  14.821  11.025  0.00  0.00    +0.000 OA
ATOM     30  H   UNL     1      -3.834  14.326  10.316  0.00  0.00    +0.000 HD
ENDBRANCH  10  29
BRANCH  14  31
ATOM     31  O   UNL     1      -6.458  13.264  16.594  0.00  0.00    +0.000 OA
ATOM     32  H   UNL     1      -6.172  12.393  16.942  0.00  0.00    +0.000 HD
ENDBRANCH  14  31
BRANCH  15  33
ATOM     33  O   UNL     1      -4.381  11.715  15.892  0.00  0.00    +0.000 OA
ATOM     34  C   UNL     1      -3.743  11.318  17.077  0.00  0.00    +0.000 C 
ENDBRANCH  15  33
BRANCH  20  35
ATOM     35  O   UNL     1       1.830  13.131  14.329  0.00  0.00    +0.000 OA
BRANCH  35  37
ATOM     36  O   UNL     1       2.133  15.178  15.406  0.00  0.00    +0.000 OA
ATOM     37  C   UNL     1       2.505  14.239  14.730  0.00  0.00    +0.000 C 
ATOM     38  C   UNL     1       3.894  14.334  14.216  0.00  0.00    +0.000 C 
ENDBRANCH  35  37
ENDBRANCH  20  35
BRANCH   6  39
ATOM     39  C   UNL     1      -5.633  18.738  12.731  0.00  0.00    +0.000 C 
BRANCH  39  41
ATOM     40  O   UNL     1      -5.428  20.735  14.304  0.00  0.00    +0.000 OA
ATOM     41  C   UNL     1      -4.873  19.516  13.751  0.00  0.00    +0.000 C 
ATOM     42  C   UNL     1      -5.527  19.600  15.054  0.00  0.00    +0.000 C 
ATOM     43  C   UNL     1      -3.339  19.732  13.516  0.00  0.00    +0.000 C 
BRANCH  42  44
ATOM     44  C   UNL     1      -4.794  19.517  16.285  0.00  0.00    +0.000 C 
ATOM     45  C   UNL     1      -4.389  20.776  17.009  0.00  0.00    +0.000 C 
BRANCH  44  46
ATOM     46  C   UNL     1      -4.932  18.352  17.087  0.00  0.00    +0.000 C 
ATOM     47  C   UNL     1      -5.122  17.419  17.815  0.00  0.00    +0.000 C 
ATOM     48  C   UNL     1      -5.445  16.313  18.831  0.00  0.00    +0.000 C 
ENDBRANCH  44  46
ENDBRANCH  42  44
ENDBRANCH  39  41
BRANCH  39  49
ATOM     49  O   UNL     1      -6.477  19.363  11.825  0.00  0.00    +0.000 OA
ATOM     50  H   UNL     1      -6.007  20.000  11.253  0.00  0.00    +0.000 HD
ENDBRANCH  39  49
ENDBRANCH   6  39
BRANCH   9  51
ATOM     51  C   UNL     1      -4.156  16.969   8.731  0.00  0.00    +0.000 C 
BRANCH  51  52
ATOM     52  O   UNL     1      -4.354  16.878   7.416  0.00  0.00    +0.000 OA
ATOM     53  H   UNL     1      -4.203  17.739   6.985  0.00  0.00    +0.000 HD
ENDBRANCH  51  52
ENDBRANCH   9  51
TORSDOF 13
ENDMDL
MODEL 9
REMARK VINA RESULT:      -4.4     16.816     21.151
REMARK  Name = 101808841_CandidaspongiolideA.pdbqt.pdb
REMARK  13 active torsions:
REMARK  status: ('A' for Active; 'I' for Inactive)
REMARK    1  A    between atoms: C_6  and  C_39
REMARK    2  A    between atoms: C_9  and  O_27
REMARK    3  A    between atoms: C_9  and  C_51
REMARK    4  A    between atoms: C_10  and  O_29
REMARK    5  A    between atoms: C_14  and  O_31
REMARK    6  A    between atoms: C_15  and  O_33
REMARK    7  A    between atoms: C_20  and  O_35
REMARK    8  A    between atoms: O_35  and  C_37
REMARK    9  A    between atoms: C_39  and  C_41
REMARK   10  A    between atoms: C_39  and  O_49
REMARK   11  A    between atoms: C_42  and  C_44
REMARK   12  A    between atoms: C_44  and  C_46
REMARK   13  A    between atoms: C_51  and  O_52
REMARK                            x       y       z     vdW  Elec       q    Type
REMARK                         _______ _______ _______ _____ _____    ______ ____
ROOT
ATOM      1  O   UNL     1     -26.563   6.191  20.594  0.00  0.00    +0.000 OA
ATOM      2  O   UNL     1     -26.834   6.893  16.506  0.00  0.00    +0.000 OA
ATOM      3  O   UNL     1     -28.675   7.007  21.034  0.00  0.00    +0.000 OA
ATOM      4  O   UNL     1     -20.338   6.962  17.643  0.00  0.00    +0.000 OA
ATOM      5  O   UNL     1     -24.361   4.402  20.809  0.00  0.00    +0.000 OA
ATOM      6  C   UNL     1     -26.166   7.940  18.507  0.00  0.00    +0.000 C 
ATOM      7  C   UNL     1     -25.889   7.309  17.178  0.00  0.00    +0.000 C 
ATOM      8  C   UNL     1     -26.381   7.070  19.612  0.00  0.00    +0.000 C 
ATOM      9  C   UNL     1     -24.392   7.142  16.798  0.00  0.00    +0.000 C 
ATOM     10  C   UNL     1     -23.763   6.008  17.589  0.00  0.00    +0.000 C 
ATOM     11  C   UNL     1     -22.388   5.999  17.964  0.00  0.00    +0.000 C 
ATOM     12  C   UNL     1     -27.785   6.179  21.175  0.00  0.00    +0.000 C 
ATOM     13  C   UNL     1     -20.972   6.122  18.273  0.00  0.00    +0.000 C 
ATOM     14  C   UNL     1     -27.970   4.968  22.009  0.00  0.00    +0.000 C 
ATOM     15  C   UNL     1     -26.933   4.000  22.298  0.00  0.00    +0.000 C 
ATOM     16  C   UNL     1     -20.351   5.245  19.318  0.00  0.00    +0.000 C 
ATOM     17  C   UNL     1     -25.606   4.282  22.832  0.00  0.00    +0.000 C 
ATOM     18  C   UNL     1     -23.293   3.227  22.602  0.00  0.00    +0.000 C 
ATOM     19  C   UNL     1     -24.422   3.986  21.967  0.00  0.00    +0.000 C 
ATOM     20  C   UNL     1     -21.984   3.219  21.945  0.00  0.00    +0.000 C 
ATOM     21  C   UNL     1     -21.075   4.208  19.959  0.00  0.00    +0.000 C 
ATOM     22  C   UNL     1     -21.751   3.256  20.519  0.00  0.00    +0.000 C 
ATOM     23  C   UNL     1     -18.911   5.382  19.764  0.00  0.00    +0.000 C 
ATOM     24  C   UNL     1     -25.449   5.417  23.846  0.00  0.00    +0.000 C 
ATOM     25  C   UNL     1     -23.523   2.392  23.856  0.00  0.00    +0.000 C 
ATOM     26  C   UNL     1     -22.425   2.290  19.577  0.00  0.00    +0.000 C 
ENDROOT
BRANCH   9  27
ATOM     27  O   UNL     1     -23.694   8.349  17.109  0.00  0.00    +0.000 OA
ATOM     28  H   UNL     1     -23.820   8.514  18.062  0.00  0.00    +0.000 HD
ENDBRANCH   9  27
BRANCH  10  29
ATOM     29  O   UNL     1     -24.557   4.931  17.931  0.00  0.00    +0.000 OA
ATOM     30  H   UNL     1     -24.466   4.653  18.862  0.00  0.00    +0.000 HD
ENDBRANCH  10  29
BRANCH  14  31
ATOM     31  O   UNL     1     -29.229   4.695  22.515  0.00  0.00    +0.000 OA
ATOM     32  H   UNL     1     -29.619   5.497  22.923  0.00  0.00    +0.000 HD
ENDBRANCH  14  31
BRANCH  15  33
ATOM     33  O   UNL     1     -27.408   2.723  22.549  0.00  0.00    +0.000 OA
ATOM     34  C   UNL     1     -27.214   2.386  23.897  0.00  0.00    +0.000 C 
ENDBRANCH  15  33
BRANCH  20  35
ATOM     35  O   UNL     1     -20.851   2.792  22.688  0.00  0.00    +0.000 OA
BRANCH  35  37
ATOM     36  O   UNL     1     -20.017   4.919  23.163  0.00  0.00    +0.000 OA
ATOM     37  C   UNL     1     -20.281   3.766  23.444  0.00  0.00    +0.000 C 
ATOM     38  C   UNL     1     -19.876   3.333  24.804  0.00  0.00    +0.000 C 
ENDBRANCH  35  37
ENDBRANCH  20  35
BRANCH   6  39
ATOM     39  C   UNL     1     -26.312   9.376  18.623  0.00  0.00    +0.000 C 
BRANCH  39  41
ATOM     40  O   UNL     1     -28.853   9.407  18.840  0.00  0.00    +0.000 OA
ATOM     41  C   UNL     1     -27.626  10.047  18.409  0.00  0.00    +0.000 C 
ATOM     42  C   UNL     1     -28.337  10.384  19.640  0.00  0.00    +0.000 C 
ATOM     43  C   UNL     1     -27.884  10.731  17.023  0.00  0.00    +0.000 C 
BRANCH  42  44
ATOM     44  C   UNL     1     -29.065  11.612  19.791  0.00  0.00    +0.000 C 
ATOM     45  C   UNL     1     -30.573  11.601  19.788  0.00  0.00    +0.000 C 
BRANCH  44  46
ATOM     46  C   UNL     1     -28.449  12.693  20.477  0.00  0.00    +0.000 C 
ATOM     47  C   UNL     1     -27.888  13.535  21.120  0.00  0.00    +0.000 C 
ATOM     48  C   UNL     1     -27.141  14.511  22.040  0.00  0.00    +0.000 C 
ENDBRANCH  44  46
ENDBRANCH  42  44
ENDBRANCH  39  41
BRANCH  39  49
ATOM     49  O   UNL     1     -25.266  10.021  19.267  0.00  0.00    +0.000 OA
ATOM     50  H   UNL     1     -24.665   9.398  19.720  0.00  0.00    +0.000 HD
ENDBRANCH  39  49
ENDBRANCH   6  39
BRANCH   9  51
ATOM     51  C   UNL     1     -24.246   6.860  15.351  0.00  0.00    +0.000 C 
BRANCH  51  52
ATOM     52  O   UNL     1     -24.141   6.605  14.046  0.00  0.00    +0.000 OA
ATOM     53  H   UNL     1     -23.381   6.020  13.870  0.00  0.00    +0.000 HD
ENDBRANCH  51  52
ENDBRANCH   9  51
TORSDOF 13
ENDMDL
