MODEL 1
REMARK VINA RESULT:      -6.1      0.000      0.000
REMARK  Name = 102471178_CandidaspongiolideCore.pdbqt.pdb
REMARK  13 active torsions:
REMARK  status: ('A' for Active; 'I' for Inactive)
REMARK    1  A    between atoms: C_6  and  C_39
REMARK    2  A    between atoms: C_8  and  O_27
REMARK    3  A    between atoms: C_8  and  C_51
REMARK    4  A    between atoms: C_10  and  O_29
REMARK    5  A    between atoms: C_15  and  O_31
REMARK    6  A    between atoms: C_16  and  O_33
REMARK    7  A    between atoms: C_21  and  O_35
REMARK    8  A    between atoms: O_35  and  C_37
REMARK    9  A    between atoms: C_39  and  C_41
REMARK   10  A    between atoms: C_39  and  O_49
REMARK   11  A    between atoms: C_42  and  C_44
REMARK   12  A    between atoms: C_44  and  C_46
REMARK   13  A    between atoms: C_51  and  O_52
REMARK                            x       y       z     vdW  Elec       q    Type
REMARK                         _______ _______ _______ _____ _____    ______ ____
ROOT
ATOM      1  O   UNL     1     -25.092  13.487   8.220  0.00  0.00    +0.000 OA
ATOM      2  O   UNL     1     -24.794  15.754   8.434  0.00  0.00    +0.000 OA
ATOM      3  O   UNL     1     -25.001  20.500   7.063  0.00  0.00    +0.000 OA
ATOM      4  O   UNL     1     -26.016  12.979  10.217  0.00  0.00    +0.000 OA
ATOM      5  O   UNL     1     -24.516  15.716  11.844  0.00  0.00    +0.000 OA
ATOM      6  C   UNL     1     -25.261  14.770   6.297  0.00  0.00    +0.000 C 
ATOM      7  C   UNL     1     -24.672  15.757   5.459  0.00  0.00    +0.000 C 
ATOM      8  C   UNL     1     -24.037  16.651   4.487  0.00  0.00    +0.000 C 
ATOM      9  C   UNL     1     -25.029  14.755   7.765  0.00  0.00    +0.000 C 
ATOM     10  C   UNL     1     -24.689  18.016   4.454  0.00  0.00    +0.000 C 
ATOM     11  C   UNL     1     -25.109  18.734   5.606  0.00  0.00    +0.000 C 
ATOM     12  C   UNL     1     -25.494  19.401   6.832  0.00  0.00    +0.000 C 
ATOM     13  C   UNL     1     -25.050  13.348   9.558  0.00  0.00    +0.000 C 
ATOM     14  C   UNL     1     -26.426  18.739   7.795  0.00  0.00    +0.000 C 
ATOM     15  C   UNL     1     -23.699  13.354  10.172  0.00  0.00    +0.000 C 
ATOM     16  C   UNL     1     -22.671  14.335   9.887  0.00  0.00    +0.000 C 
ATOM     17  C   UNL     1     -22.496  15.605  10.580  0.00  0.00    +0.000 C 
ATOM     18  C   UNL     1     -26.296  18.995   9.181  0.00  0.00    +0.000 C 
ATOM     19  C   UNL     1     -23.934  17.723  10.718  0.00  0.00    +0.000 C 
ATOM     20  C   UNL     1     -27.323  17.577   7.391  0.00  0.00    +0.000 C 
ATOM     21  C   UNL     1     -25.143  18.378  11.205  0.00  0.00    +0.000 C 
ATOM     22  C   UNL     1     -23.700  16.301  11.129  0.00  0.00    +0.000 C 
ATOM     23  C   UNL     1     -26.068  19.204  10.442  0.00  0.00    +0.000 C 
ATOM     24  C   UNL     1     -21.117  16.081  11.025  0.00  0.00    +0.000 C 
ATOM     25  C   UNL     1     -23.133  18.383   9.604  0.00  0.00    +0.000 C 
ATOM     26  C   UNL     1     -26.855  20.320  11.078  0.00  0.00    +0.000 C 
ENDROOT
BRANCH   8  27
ATOM     27  O   UNL     1     -24.218  16.029   3.213  0.00  0.00    +0.000 OA
ATOM     28  H   UNL     1     -23.455  16.336   2.683  0.00  0.00    +0.000 HD
ENDBRANCH   8  27
BRANCH  10  29
ATOM     29  O   UNL     1     -24.833  18.614   3.212  0.00  0.00    +0.000 OA
ATOM     30  H   UNL     1     -24.068  18.447   2.631  0.00  0.00    +0.000 HD
ENDBRANCH  10  29
BRANCH  15  31
ATOM     31  O   UNL     1     -23.545  12.727  11.398  0.00  0.00    +0.000 OA
ATOM     32  H   UNL     1     -23.005  11.914  11.301  0.00  0.00    +0.000 HD
ENDBRANCH  15  31
BRANCH  16  33
ATOM     33  O   UNL     1     -21.528  13.834   9.291  0.00  0.00    +0.000 OA
ATOM     34  C   UNL     1     -21.891  12.971   8.242  0.00  0.00    +0.000 C 
ENDBRANCH  16  33
BRANCH  21  35
ATOM     35  O   UNL     1     -25.314  18.321  12.612  0.00  0.00    +0.000 OA
BRANCH  35  37
ATOM     36  O   UNL     1     -23.740  20.034  12.864  0.00  0.00    +0.000 OA
ATOM     37  C   UNL     1     -24.471  19.154  13.283  0.00  0.00    +0.000 C 
ATOM     38  C   UNL     1     -24.475  18.980  14.759  0.00  0.00    +0.000 C 
ENDBRANCH  35  37
ENDBRANCH  21  35
BRANCH   6  39
ATOM     39  C   UNL     1     -26.169  13.830   5.681  0.00  0.00    +0.000 C 
BRANCH  39  41
ATOM     40  O   UNL     1     -24.409  13.192   3.950  0.00  0.00    +0.000 OA
ATOM     41  C   UNL     1     -25.755  13.073   4.467  0.00  0.00    +0.000 C 
ATOM     42  C   UNL     1     -24.686  12.119   4.749  0.00  0.00    +0.000 C 
ATOM     43  C   UNL     1     -26.764  12.936   3.271  0.00  0.00    +0.000 C 
BRANCH  42  44
ATOM     44  C   UNL     1     -24.587  10.817   4.162  0.00  0.00    +0.000 C 
ATOM     45  C   UNL     1     -24.062  10.657   2.754  0.00  0.00    +0.000 C 
BRANCH  44  46
ATOM     46  C   UNL     1     -24.522   9.661   4.981  0.00  0.00    +0.000 C 
ATOM     47  C   UNL     1     -24.515   8.677   5.667  0.00  0.00    +0.000 C 
ATOM     48  C   UNL     1     -24.575   7.406   6.523  0.00  0.00    +0.000 C 
ENDBRANCH  44  46
ENDBRANCH  42  44
ENDBRANCH  39  41
BRANCH  39  49
ATOM     49  O   UNL     1     -27.436  13.729   6.232  0.00  0.00    +0.000 OA
ATOM     50  H   UNL     1     -27.623  14.378   6.937  0.00  0.00    +0.000 HD
ENDBRANCH  39  49
ENDBRANCH   6  39
BRANCH   8  51
ATOM     51  C   UNL     1     -22.589  16.781   4.720  0.00  0.00    +0.000 C 
BRANCH  51  52
ATOM     52  O   UNL     1     -21.272  16.903   4.887  0.00  0.00    +0.000 OA
ATOM     53  H   UNL     1     -20.862  16.035   5.081  0.00  0.00    +0.000 HD
ENDBRANCH  51  52
ENDBRANCH   8  51
TORSDOF 13
ENDMDL
MODEL 2
REMARK VINA RESULT:      -6.1      2.043      3.571
REMARK  Name = 102471178_CandidaspongiolideCore.pdbqt.pdb
REMARK  13 active torsions:
REMARK  status: ('A' for Active; 'I' for Inactive)
REMARK    1  A    between atoms: C_6  and  C_39
REMARK    2  A    between atoms: C_8  and  O_27
REMARK    3  A    between atoms: C_8  and  C_51
REMARK    4  A    between atoms: C_10  and  O_29
REMARK    5  A    between atoms: C_15  and  O_31
REMARK    6  A    between atoms: C_16  and  O_33
REMARK    7  A    between atoms: C_21  and  O_35
REMARK    8  A    between atoms: O_35  and  C_37
REMARK    9  A    between atoms: C_39  and  C_41
REMARK   10  A    between atoms: C_39  and  O_49
REMARK   11  A    between atoms: C_42  and  C_44
REMARK   12  A    between atoms: C_44  and  C_46
REMARK   13  A    between atoms: C_51  and  O_52
REMARK                            x       y       z     vdW  Elec       q    Type
REMARK                         _______ _______ _______ _____ _____    ______ ____
ROOT
ATOM      1  O   UNL     1     -25.457  13.683   7.990  0.00  0.00    +0.000 OA
ATOM      2  O   UNL     1     -24.441  15.741   7.929  0.00  0.00    +0.000 OA
ATOM      3  O   UNL     1     -23.356  20.206   6.104  0.00  0.00    +0.000 OA
ATOM      4  O   UNL     1     -26.191  13.624  10.125  0.00  0.00    +0.000 OA
ATOM      5  O   UNL     1     -23.692  15.823  11.267  0.00  0.00    +0.000 OA
ATOM      6  C   UNL     1     -25.498  14.832   5.978  0.00  0.00    +0.000 C 
ATOM      7  C   UNL     1     -24.760  15.523   4.977  0.00  0.00    +0.000 C 
ATOM      8  C   UNL     1     -24.027  16.103   3.848  0.00  0.00    +0.000 C 
ATOM      9  C   UNL     1     -25.070  14.833   7.401  0.00  0.00    +0.000 C 
ATOM     10  C   UNL     1     -24.220  17.601   3.751  0.00  0.00    +0.000 C 
ATOM     11  C   UNL     1     -24.221  18.485   4.863  0.00  0.00    +0.000 C 
ATOM     12  C   UNL     1     -24.196  19.314   6.050  0.00  0.00    +0.000 C 
ATOM     13  C   UNL     1     -25.266  13.620   9.321  0.00  0.00    +0.000 C 
ATOM     14  C   UNL     1     -25.136  19.048   7.180  0.00  0.00    +0.000 C 
ATOM     15  C   UNL     1     -23.905  13.227   9.765  0.00  0.00    +0.000 C 
ATOM     16  C   UNL     1     -22.677  13.804   9.259  0.00  0.00    +0.000 C 
ATOM     17  C   UNL     1     -22.015  14.989   9.789  0.00  0.00    +0.000 C 
ATOM     18  C   UNL     1     -24.732  19.333   8.507  0.00  0.00    +0.000 C 
ATOM     19  C   UNL     1     -22.685  17.462   9.876  0.00  0.00    +0.000 C 
ATOM     20  C   UNL     1     -26.399  18.216   7.011  0.00  0.00    +0.000 C 
ATOM     21  C   UNL     1     -23.545  18.501  10.433  0.00  0.00    +0.000 C 
ATOM     22  C   UNL     1     -22.848  16.069  10.402  0.00  0.00    +0.000 C 
ATOM     23  C   UNL     1     -24.268  19.533   9.703  0.00  0.00    +0.000 C 
ATOM     24  C   UNL     1     -20.507  15.021  10.014  0.00  0.00    +0.000 C 
ATOM     25  C   UNL     1     -21.891  17.759   8.612  0.00  0.00    +0.000 C 
ATOM     26  C   UNL     1     -24.566  20.881  10.308  0.00  0.00    +0.000 C 
ENDROOT
BRANCH   8  27
ATOM     27  O   UNL     1     -24.578  15.496   2.676  0.00  0.00    +0.000 OA
ATOM     28  H   UNL     1     -24.149  14.617   2.636  0.00  0.00    +0.000 HD
ENDBRANCH   8  27
BRANCH  10  29
ATOM     29  O   UNL     1     -24.350  18.136   2.479  0.00  0.00    +0.000 OA
ATOM     30  H   UNL     1     -24.235  17.464   1.782  0.00  0.00    +0.000 HD
ENDBRANCH  10  29
BRANCH  15  31
ATOM     31  O   UNL     1     -23.777  12.660  11.023  0.00  0.00    +0.000 OA
ATOM     32  H   UNL     1     -23.171  13.194  11.580  0.00  0.00    +0.000 HD
ENDBRANCH  15  31
BRANCH  16  33
ATOM     33  O   UNL     1     -21.846  12.925   8.587  0.00  0.00    +0.000 OA
ATOM     34  C   UNL     1     -22.620  11.895   8.023  0.00  0.00    +0.000 C 
ENDBRANCH  16  33
BRANCH  21  35
ATOM     35  O   UNL     1     -23.517  18.588  11.848  0.00  0.00    +0.000 OA
BRANCH  35  37
ATOM     36  O   UNL     1     -21.433  19.644  11.719  0.00  0.00    +0.000 OA
ATOM     37  C   UNL     1     -22.392  19.192  12.320  0.00  0.00    +0.000 C 
ATOM     38  C   UNL     1     -22.351  19.354  13.797  0.00  0.00    +0.000 C 
ENDBRANCH  35  37
ENDBRANCH  21  35
BRANCH   6  39
ATOM     39  C   UNL     1     -26.734  14.200   5.576  0.00  0.00    +0.000 C 
BRANCH  39  41
ATOM     40  O   UNL     1     -29.220  14.074   6.125  0.00  0.00    +0.000 OA
ATOM     41  C   UNL     1     -28.039  14.862   5.852  0.00  0.00    +0.000 C 
ATOM     42  C   UNL     1     -28.532  14.572   7.195  0.00  0.00    +0.000 C 
ATOM     43  C   UNL     1     -28.440  16.134   5.023  0.00  0.00    +0.000 C 
BRANCH  42  44
ATOM     44  C   UNL     1     -29.208  15.516   8.032  0.00  0.00    +0.000 C 
ATOM     45  C   UNL     1     -30.715  15.495   8.138  0.00  0.00    +0.000 C 
BRANCH  44  46
ATOM     46  C   UNL     1     -28.524  16.155   9.097  0.00  0.00    +0.000 C 
ATOM     47  C   UNL     1     -27.916  16.718   9.964  0.00  0.00    +0.000 C 
ATOM     48  C   UNL     1     -27.109  17.479  11.023  0.00  0.00    +0.000 C 
ENDBRANCH  44  46
ENDBRANCH  42  44
ENDBRANCH  39  41
BRANCH  39  49
ATOM     49  O   UNL     1     -26.637  12.944   4.999  0.00  0.00    +0.000 OA
ATOM     50  H   UNL     1     -27.365  12.336   5.231  0.00  0.00    +0.000 HD
ENDBRANCH  39  49
ENDBRANCH   6  39
BRANCH   8  51
ATOM     51  C   UNL     1     -22.594  15.772   3.892  0.00  0.00    +0.000 C 
BRANCH  51  52
ATOM     52  O   UNL     1     -21.288  15.500   3.898  0.00  0.00    +0.000 OA
ATOM     53  H   UNL     1     -21.038  15.004   4.704  0.00  0.00    +0.000 HD
ENDBRANCH  51  52
ENDBRANCH   8  51
TORSDOF 13
ENDMDL
MODEL 3
REMARK VINA RESULT:      -5.8     20.730     25.506
REMARK  Name = 102471178_CandidaspongiolideCore.pdbqt.pdb
REMARK  13 active torsions:
REMARK  status: ('A' for Active; 'I' for Inactive)
REMARK    1  A    between atoms: C_6  and  C_39
REMARK    2  A    between atoms: C_8  and  O_27
REMARK    3  A    between atoms: C_8  and  C_51
REMARK    4  A    between atoms: C_10  and  O_29
REMARK    5  A    between atoms: C_15  and  O_31
REMARK    6  A    between atoms: C_16  and  O_33
REMARK    7  A    between atoms: C_21  and  O_35
REMARK    8  A    between atoms: O_35  and  C_37
REMARK    9  A    between atoms: C_39  and  C_41
REMARK   10  A    between atoms: C_39  and  O_49
REMARK   11  A    between atoms: C_42  and  C_44
REMARK   12  A    between atoms: C_44  and  C_46
REMARK   13  A    between atoms: C_51  and  O_52
REMARK                            x       y       z     vdW  Elec       q    Type
REMARK                         _______ _______ _______ _____ _____    ______ ____
ROOT
ATOM      1  O   UNL     1      -8.336   1.129   2.808  0.00  0.00    +0.000 OA
ATOM      2  O   UNL     1      -8.642  -1.012   2.034  0.00  0.00    +0.000 OA
ATOM      3  O   UNL     1      -7.368  -5.278  -0.116  0.00  0.00    +0.000 OA
ATOM      4  O   UNL     1      -9.243   0.979   4.870  0.00  0.00    +0.000 OA
ATOM      5  O   UNL     1     -11.394  -1.655   3.964  0.00  0.00    +0.000 OA
ATOM      6  C   UNL     1      -6.749   0.287   1.343  0.00  0.00    +0.000 C 
ATOM      7  C   UNL     1      -6.483  -0.344   0.096  0.00  0.00    +0.000 C 
ATOM      8  C   UNL     1      -6.149  -0.847  -1.239  0.00  0.00    +0.000 C 
ATOM      9  C   UNL     1      -8.007   0.033   2.093  0.00  0.00    +0.000 C 
ATOM     10  C   UNL     1      -5.664  -2.280  -1.204  0.00  0.00    +0.000 C 
ATOM     11  C   UNL     1      -6.239  -3.304  -0.404  0.00  0.00    +0.000 C 
ATOM     12  C   UNL     1      -6.894  -4.288   0.432  0.00  0.00    +0.000 C 
ATOM     13  C   UNL     1      -9.374   0.979   3.652  0.00  0.00    +0.000 C 
ATOM     14  C   UNL     1      -7.021  -4.067   1.904  0.00  0.00    +0.000 C 
ATOM     15  C   UNL     1     -10.725   1.132   3.056  0.00  0.00    +0.000 C 
ATOM     16  C   UNL     1     -11.165   0.482   1.838  0.00  0.00    +0.000 C 
ATOM     17  C   UNL     1     -11.772  -0.840   1.755  0.00  0.00    +0.000 C 
ATOM     18  C   UNL     1      -8.144  -4.584   2.594  0.00  0.00    +0.000 C 
ATOM     19  C   UNL     1     -10.883  -3.196   2.233  0.00  0.00    +0.000 C 
ATOM     20  C   UNL     1      -6.153  -3.067   2.655  0.00  0.00    +0.000 C 
ATOM     21  C   UNL     1     -10.440  -4.186   3.209  0.00  0.00    +0.000 C 
ATOM     22  C   UNL     1     -11.379  -1.881   2.753  0.00  0.00    +0.000 C 
ATOM     23  C   UNL     1      -9.239  -5.007   3.149  0.00  0.00    +0.000 C 
ATOM     24  C   UNL     1     -13.004  -1.092   0.891  0.00  0.00    +0.000 C 
ATOM     25  C   UNL     1     -10.557  -3.410   0.761  0.00  0.00    +0.000 C 
ATOM     26  C   UNL     1      -9.175  -6.377   3.772  0.00  0.00    +0.000 C 
ENDROOT
BRANCH   8  27
ATOM     27  O   UNL     1      -5.084  -0.017  -1.710  0.00  0.00    +0.000 OA
ATOM     28  H   UNL     1      -4.452   0.012  -0.963  0.00  0.00    +0.000 HD
ENDBRANCH   8  27
BRANCH  10  29
ATOM     29  O   UNL     1      -4.621  -2.611  -2.055  0.00  0.00    +0.000 OA
ATOM     30  H   UNL     1      -4.230  -3.478  -1.839  0.00  0.00    +0.000 HD
ENDBRANCH  10  29
BRANCH  15  31
ATOM     31  O   UNL     1     -11.763   1.497   3.898  0.00  0.00    +0.000 OA
ATOM     32  H   UNL     1     -11.470   1.473   4.834  0.00  0.00    +0.000 HD
ENDBRANCH  15  31
BRANCH  16  33
ATOM     33  O   UNL     1     -11.479   1.334   0.796  0.00  0.00    +0.000 OA
ATOM     34  C   UNL     1     -10.417   1.354  -0.125  0.00  0.00    +0.000 C 
ENDBRANCH  16  33
BRANCH  21  35
ATOM     35  O   UNL     1     -11.389  -4.474   4.223  0.00  0.00    +0.000 OA
BRANCH  35  37
ATOM     36  O   UNL     1     -12.659  -6.058   3.061  0.00  0.00    +0.000 OA
ATOM     37  C   UNL     1     -12.521  -5.057   3.741  0.00  0.00    +0.000 C 
ATOM     38  C   UNL     1     -13.782  -4.380   4.142  0.00  0.00    +0.000 C 
ENDBRANCH  35  37
ENDBRANCH  21  35
BRANCH   6  39
ATOM     39  C   UNL     1      -5.709   1.120   1.903  0.00  0.00    +0.000 C 
BRANCH  39  41
ATOM     40  O   UNL     1      -3.740  -0.464   2.242  0.00  0.00    +0.000 OA
ATOM     41  C   UNL     1      -4.656   0.523   2.771  0.00  0.00    +0.000 C 
ATOM     42  C   UNL     1      -3.309   0.832   2.296  0.00  0.00    +0.000 C 
ATOM     43  C   UNL     1      -5.003   0.169   4.260  0.00  0.00    +0.000 C 
BRANCH  42  44
ATOM     44  C   UNL     1      -2.196   1.121   3.148  0.00  0.00    +0.000 C 
ATOM     45  C   UNL     1      -1.212   0.032   3.508  0.00  0.00    +0.000 C 
BRANCH  44  46
ATOM     46  C   UNL     1      -1.726   2.451   3.291  0.00  0.00    +0.000 C 
ATOM     47  C   UNL     1      -1.352   3.579   3.455  0.00  0.00    +0.000 C 
ATOM     48  C   UNL     1      -0.902   5.019   3.731  0.00  0.00    +0.000 C 
ENDBRANCH  44  46
ENDBRANCH  42  44
ENDBRANCH  39  41
BRANCH  39  49
ATOM     49  O   UNL     1      -5.789   2.480   1.648  0.00  0.00    +0.000 OA
ATOM     50  H   UNL     1      -4.985   2.864   1.250  0.00  0.00    +0.000 HD
ENDBRANCH  39  49
ENDBRANCH   6  39
BRANCH   8  51
ATOM     51  C   UNL     1      -7.274  -0.709  -2.178  0.00  0.00    +0.000 C 
BRANCH  51  52
ATOM     52  O   UNL     1      -8.320  -0.592  -2.996  0.00  0.00    +0.000 OA
ATOM     53  H   UNL     1      -9.014  -0.029  -2.598  0.00  0.00    +0.000 HD
ENDBRANCH  51  52
ENDBRANCH   8  51
TORSDOF 13
ENDMDL
MODEL 4
REMARK VINA RESULT:      -5.8     17.995     22.250
REMARK  Name = 102471178_CandidaspongiolideCore.pdbqt.pdb
REMARK  13 active torsions:
REMARK  status: ('A' for Active; 'I' for Inactive)
REMARK    1  A    between atoms: C_6  and  C_39
REMARK    2  A    between atoms: C_8  and  O_27
REMARK    3  A    between atoms: C_8  and  C_51
REMARK    4  A    between atoms: C_10  and  O_29
REMARK    5  A    between atoms: C_15  and  O_31
REMARK    6  A    between atoms: C_16  and  O_33
REMARK    7  A    between atoms: C_21  and  O_35
REMARK    8  A    between atoms: O_35  and  C_37
REMARK    9  A    between atoms: C_39  and  C_41
REMARK   10  A    between atoms: C_39  and  O_49
REMARK   11  A    between atoms: C_42  and  C_44
REMARK   12  A    between atoms: C_44  and  C_46
REMARK   13  A    between atoms: C_51  and  O_52
REMARK                            x       y       z     vdW  Elec       q    Type
REMARK                         _______ _______ _______ _____ _____    ______ ____
ROOT
ATOM      1  O   UNL     1     -14.228  17.964  25.056  0.00  0.00    +0.000 OA
ATOM      2  O   UNL     1     -12.288  18.149  23.841  0.00  0.00    +0.000 OA
ATOM      3  O   UNL     1      -7.723  16.938  22.382  0.00  0.00    +0.000 OA
ATOM      4  O   UNL     1     -15.781  18.161  23.429  0.00  0.00    +0.000 OA
ATOM      5  O   UNL     1     -13.661  20.041  21.342  0.00  0.00    +0.000 OA
ATOM      6  C   UNL     1     -12.380  16.788  25.813  0.00  0.00    +0.000 C 
ATOM      7  C   UNL     1     -11.004  16.821  26.176  0.00  0.00    +0.000 C 
ATOM      8  C   UNL     1      -9.638  16.836  26.706  0.00  0.00    +0.000 C 
ATOM      9  C   UNL     1     -12.935  17.700  24.779  0.00  0.00    +0.000 C 
ATOM     10  C   UNL     1      -8.659  16.144  25.783  0.00  0.00    +0.000 C 
ATOM     11  C   UNL     1      -8.656  16.278  24.369  0.00  0.00    +0.000 C 
ATOM     12  C   UNL     1      -8.717  16.482  22.936  0.00  0.00    +0.000 C 
ATOM     13  C   UNL     1     -14.894  18.657  24.113  0.00  0.00    +0.000 C 
ATOM     14  C   UNL     1      -9.972  16.185  22.182  0.00  0.00    +0.000 C 
ATOM     15  C   UNL     1     -14.729  20.131  24.151  0.00  0.00    +0.000 C 
ATOM     16  C   UNL     1     -13.455  20.814  24.257  0.00  0.00    +0.000 C 
ATOM     17  C   UNL     1     -12.605  21.201  23.139  0.00  0.00    +0.000 C 
ATOM     18  C   UNL     1     -10.293  16.947  21.032  0.00  0.00    +0.000 C 
ATOM     19  C   UNL     1     -11.296  19.848  21.399  0.00  0.00    +0.000 C 
ATOM     20  C   UNL     1     -11.072  15.298  22.747  0.00  0.00    +0.000 C 
ATOM     21  C   UNL     1     -11.312  18.978  20.229  0.00  0.00    +0.000 C 
ATOM     22  C   UNL     1     -12.611  20.362  21.902  0.00  0.00    +0.000 C 
ATOM     23  C   UNL     1     -10.571  17.738  20.041  0.00  0.00    +0.000 C 
ATOM     24  C   UNL     1     -11.960  22.583  23.076  0.00  0.00    +0.000 C 
ATOM     25  C   UNL     1     -10.020  19.958  22.222  0.00  0.00    +0.000 C 
ATOM     26  C   UNL     1     -10.125  17.271  18.680  0.00  0.00    +0.000 C 
ENDROOT
BRANCH   8  27
ATOM     27  O   UNL     1      -9.693  16.111  27.937  0.00  0.00    +0.000 OA
ATOM     28  H   UNL     1      -8.863  16.352  28.396  0.00  0.00    +0.000 HD
ENDBRANCH   8  27
BRANCH  10  29
ATOM     29  O   UNL     1      -7.673  15.373  26.378  0.00  0.00    +0.000 OA
ATOM     30  H   UNL     1      -7.759  15.349  27.349  0.00  0.00    +0.000 HD
ENDBRANCH  10  29
BRANCH  15  31
ATOM     31  O   UNL     1     -15.730  20.906  23.587  0.00  0.00    +0.000 OA
ATOM     32  H   UNL     1     -15.699  21.819  23.946  0.00  0.00    +0.000 HD
ENDBRANCH  15  31
BRANCH  16  33
ATOM     33  O   UNL     1     -13.283  21.563  25.407  0.00  0.00    +0.000 OA
ATOM     34  C   UNL     1     -12.668  20.768  26.391  0.00  0.00    +0.000 C 
ENDBRANCH  16  33
BRANCH  21  35
ATOM     35  O   UNL     1     -12.001  19.512  19.110  0.00  0.00    +0.000 OA
BRANCH  35  37
ATOM     36  O   UNL     1     -10.274  20.619  17.984  0.00  0.00    +0.000 OA
ATOM     37  C   UNL     1     -11.355  20.569  18.544  0.00  0.00    +0.000 C 
ATOM     38  C   UNL     1     -12.108  21.849  18.589  0.00  0.00    +0.000 C 
ENDBRANCH  35  37
ENDBRANCH  21  35
BRANCH   6  39
ATOM     39  C   UNL     1     -13.205  15.772  26.425  0.00  0.00    +0.000 C 
BRANCH  39  41
ATOM     40  O   UNL     1     -12.632  16.619  28.761  0.00  0.00    +0.000 OA
ATOM     41  C   UNL     1     -13.426  15.772  27.898  0.00  0.00    +0.000 C 
ATOM     42  C   UNL     1     -13.866  17.074  28.391  0.00  0.00    +0.000 C 
ATOM     43  C   UNL     1     -13.716  14.411  28.627  0.00  0.00    +0.000 C 
BRANCH  42  44
ATOM     44  C   UNL     1     -14.836  17.263  29.426  0.00  0.00    +0.000 C 
ATOM     45  C   UNL     1     -14.402  17.320  30.872  0.00  0.00    +0.000 C 
BRANCH  44  46
ATOM     46  C   UNL     1     -16.095  17.848  29.136  0.00  0.00    +0.000 C 
ATOM     47  C   UNL     1     -17.163  18.356  28.938  0.00  0.00    +0.000 C 
ATOM     48  C   UNL     1     -18.525  19.036  28.750  0.00  0.00    +0.000 C 
ENDBRANCH  44  46
ENDBRANCH  42  44
ENDBRANCH  39  41
BRANCH  39  49
ATOM     49  O   UNL     1     -13.708  14.787  25.591  0.00  0.00    +0.000 OA
ATOM     50  H   UNL     1     -14.632  14.532  25.778  0.00  0.00    +0.000 HD
ENDBRANCH  39  49
ENDBRANCH   6  39
BRANCH   8  51
ATOM     51  C   UNL     1      -9.180  18.201  27.010  0.00  0.00    +0.000 C 
BRANCH  51  52
ATOM     52  O   UNL     1      -8.771  19.449  27.243  0.00  0.00    +0.000 OA
ATOM     53  H   UNL     1      -8.278  19.805  26.476  0.00  0.00    +0.000 HD
ENDBRANCH  51  52
ENDBRANCH   8  51
TORSDOF 13
ENDMDL
MODEL 5
REMARK VINA RESULT:      -5.6     19.750     23.057
REMARK  Name = 102471178_CandidaspongiolideCore.pdbqt.pdb
REMARK  13 active torsions:
REMARK  status: ('A' for Active; 'I' for Inactive)
REMARK    1  A    between atoms: C_6  and  C_39
REMARK    2  A    between atoms: C_8  and  O_27
REMARK    3  A    between atoms: C_8  and  C_51
REMARK    4  A    between atoms: C_10  and  O_29
REMARK    5  A    between atoms: C_15  and  O_31
REMARK    6  A    between atoms: C_16  and  O_33
REMARK    7  A    between atoms: C_21  and  O_35
REMARK    8  A    between atoms: O_35  and  C_37
REMARK    9  A    between atoms: C_39  and  C_41
REMARK   10  A    between atoms: C_39  and  O_49
REMARK   11  A    between atoms: C_42  and  C_44
REMARK   12  A    between atoms: C_44  and  C_46
REMARK   13  A    between atoms: C_51  and  O_52
REMARK                            x       y       z     vdW  Elec       q    Type
REMARK                         _______ _______ _______ _____ _____    ______ ____
ROOT
ATOM      1  O   UNL     1      -7.088   5.422  16.951  0.00  0.00    +0.000 OA
ATOM      2  O   UNL     1      -8.503   5.032  18.718  0.00  0.00    +0.000 OA
ATOM      3  O   UNL     1     -11.764   6.184  22.250  0.00  0.00    +0.000 OA
ATOM      4  O   UNL     1      -7.681   3.758  15.544  0.00  0.00    +0.000 OA
ATOM      5  O   UNL     1      -8.801   1.671  18.148  0.00  0.00    +0.000 OA
ATOM      6  C   UNL     1      -7.813   7.260  18.162  0.00  0.00    +0.000 C 
ATOM      7  C   UNL     1      -7.967   7.871  19.438  0.00  0.00    +0.000 C 
ATOM      8  C   UNL     1      -8.003   8.603  20.707  0.00  0.00    +0.000 C 
ATOM      9  C   UNL     1      -7.864   5.784  17.993  0.00  0.00    +0.000 C 
ATOM     10  C   UNL     1      -9.409   8.738  21.248  0.00  0.00    +0.000 C 
ATOM     11  C   UNL     1     -10.380   7.701  21.232  0.00  0.00    +0.000 C 
ATOM     12  C   UNL     1     -11.303   6.586  21.188  0.00  0.00    +0.000 C 
ATOM     13  C   UNL     1      -7.166   4.126  16.594  0.00  0.00    +0.000 C 
ATOM     14  C   UNL     1     -11.634   5.929  19.887  0.00  0.00    +0.000 C 
ATOM     15  C   UNL     1      -6.322   3.185  17.371  0.00  0.00    +0.000 C 
ATOM     16  C   UNL     1      -6.250   3.148  18.818  0.00  0.00    +0.000 C 
ATOM     17  C   UNL     1      -7.124   2.375  19.691  0.00  0.00    +0.000 C 
ATOM     18  C   UNL     1     -11.935   4.546  19.859  0.00  0.00    +0.000 C 
ATOM     19  C   UNL     1      -9.631   2.513  20.206  0.00  0.00    +0.000 C 
ATOM     20  C   UNL     1     -11.384   6.605  18.546  0.00  0.00    +0.000 C 
ATOM     21  C   UNL     1     -11.007   2.324  19.759  0.00  0.00    +0.000 C 
ATOM     22  C   UNL     1      -8.534   2.123  19.263  0.00  0.00    +0.000 C 
ATOM     23  C   UNL     1     -12.114   3.261  19.891  0.00  0.00    +0.000 C 
ATOM     24  C   UNL     1      -6.564   1.567  20.857  0.00  0.00    +0.000 C 
ATOM     25  C   UNL     1      -9.366   3.350  21.450  0.00  0.00    +0.000 C 
ATOM     26  C   UNL     1     -13.542   2.797  20.023  0.00  0.00    +0.000 C 
ENDROOT
BRANCH   8  27
ATOM     27  O   UNL     1      -7.499   9.908  20.415  0.00  0.00    +0.000 OA
ATOM     28  H   UNL     1      -7.987  10.181  19.612  0.00  0.00    +0.000 HD
ENDBRANCH   8  27
BRANCH  10  29
ATOM     29  O   UNL     1      -9.739   9.946  21.843  0.00  0.00    +0.000 OA
ATOM     30  H   UNL     1     -10.362   9.834  22.585  0.00  0.00    +0.000 HD
ENDBRANCH  10  29
BRANCH  15  31
ATOM     31  O   UNL     1      -5.962   1.992  16.766  0.00  0.00    +0.000 OA
ATOM     32  H   UNL     1      -5.377   1.470  17.357  0.00  0.00    +0.000 HD
ENDBRANCH  15  31
BRANCH  16  33
ATOM     33  O   UNL     1      -5.011   3.452  19.353  0.00  0.00    +0.000 OA
ATOM     34  C   UNL     1      -5.023   4.774  19.831  0.00  0.00    +0.000 C 
ENDBRANCH  16  33
BRANCH  21  35
ATOM     35  O   UNL     1     -11.300   1.013  19.304  0.00  0.00    +0.000 OA
BRANCH  35  37
ATOM     36  O   UNL     1     -11.733   0.048  21.390  0.00  0.00    +0.000 OA
ATOM     37  C   UNL     1     -11.213   0.077  20.289  0.00  0.00    +0.000 C 
ATOM     38  C   UNL     1     -10.382  -1.105  19.946  0.00  0.00    +0.000 C 
ENDBRANCH  35  37
ENDBRANCH  21  35
BRANCH   6  39
ATOM     39  C   UNL     1      -7.693   8.134  17.016  0.00  0.00    +0.000 C 
BRANCH  39  41
ATOM     40  O   UNL     1      -6.144   9.502  15.523  0.00  0.00    +0.000 OA
ATOM     41  C   UNL     1      -6.462   8.950  16.822  0.00  0.00    +0.000 C 
ATOM     42  C   UNL     1      -6.767  10.321  16.422  0.00  0.00    +0.000 C 
ATOM     43  C   UNL     1      -5.137   8.518  17.545  0.00  0.00    +0.000 C 
BRANCH  42  44
ATOM     44  C   UNL     1      -6.048  11.474  16.871  0.00  0.00    +0.000 C 
ATOM     45  C   UNL     1      -5.075  12.170  15.947  0.00  0.00    +0.000 C 
BRANCH  44  46
ATOM     46  C   UNL     1      -6.534  12.251  17.953  0.00  0.00    +0.000 C 
ATOM     47  C   UNL     1      -6.992  12.894  18.856  0.00  0.00    +0.000 C 
ATOM     48  C   UNL     1      -7.641  13.687  19.998  0.00  0.00    +0.000 C 
ENDBRANCH  44  46
ENDBRANCH  42  44
ENDBRANCH  39  41
BRANCH  39  49
ATOM     49  O   UNL     1      -8.789   8.216  16.173  0.00  0.00    +0.000 OA
ATOM     50  H   UNL     1      -9.432   7.488  16.274  0.00  0.00    +0.000 HD
ENDBRANCH  39  49
ENDBRANCH   6  39
BRANCH   8  51
ATOM     51  C   UNL     1      -7.120   7.998  21.718  0.00  0.00    +0.000 C 
BRANCH  51  52
ATOM     52  O   UNL     1      -6.339   7.411  22.625  0.00  0.00    +0.000 OA
ATOM     53  H   UNL     1      -6.551   6.459  22.706  0.00  0.00    +0.000 HD
ENDBRANCH  51  52
ENDBRANCH   8  51
TORSDOF 13
ENDMDL
MODEL 6
REMARK VINA RESULT:      -5.6     17.900     22.353
REMARK  Name = 102471178_CandidaspongiolideCore.pdbqt.pdb
REMARK  13 active torsions:
REMARK  status: ('A' for Active; 'I' for Inactive)
REMARK    1  A    between atoms: C_6  and  C_39
REMARK    2  A    between atoms: C_8  and  O_27
REMARK    3  A    between atoms: C_8  and  C_51
REMARK    4  A    between atoms: C_10  and  O_29
REMARK    5  A    between atoms: C_15  and  O_31
REMARK    6  A    between atoms: C_16  and  O_33
REMARK    7  A    between atoms: C_21  and  O_35
REMARK    8  A    between atoms: O_35  and  C_37
REMARK    9  A    between atoms: C_39  and  C_41
REMARK   10  A    between atoms: C_39  and  O_49
REMARK   11  A    between atoms: C_42  and  C_44
REMARK   12  A    between atoms: C_44  and  C_46
REMARK   13  A    between atoms: C_51  and  O_52
REMARK                            x       y       z     vdW  Elec       q    Type
REMARK                         _______ _______ _______ _____ _____    ______ ____
ROOT
ATOM      1  O   UNL     1     -14.408  17.887  25.043  0.00  0.00    +0.000 OA
ATOM      2  O   UNL     1     -12.478  18.124  23.820  0.00  0.00    +0.000 OA
ATOM      3  O   UNL     1      -7.882  17.044  22.354  0.00  0.00    +0.000 OA
ATOM      4  O   UNL     1     -15.971  18.025  23.420  0.00  0.00    +0.000 OA
ATOM      5  O   UNL     1     -13.916  19.957  21.314  0.00  0.00    +0.000 OA
ATOM      6  C   UNL     1     -12.521  16.774  25.801  0.00  0.00    +0.000 C 
ATOM      7  C   UNL     1     -11.146  16.851  26.159  0.00  0.00    +0.000 C 
ATOM      8  C   UNL     1      -9.780  16.911  26.685  0.00  0.00    +0.000 C 
ATOM      9  C   UNL     1     -13.108  17.662  24.763  0.00  0.00    +0.000 C 
ATOM     10  C   UNL     1      -8.783  16.244  25.763  0.00  0.00    +0.000 C 
ATOM     11  C   UNL     1      -8.788  16.369  24.348  0.00  0.00    +0.000 C 
ATOM     12  C   UNL     1      -8.860  16.561  22.914  0.00  0.00    +0.000 C 
ATOM     13  C   UNL     1     -15.097  18.553  24.098  0.00  0.00    +0.000 C 
ATOM     14  C   UNL     1     -10.108  16.221  22.166  0.00  0.00    +0.000 C 
ATOM     15  C   UNL     1     -14.977  20.031  24.126  0.00  0.00    +0.000 C 
ATOM     16  C   UNL     1     -13.726  20.754  24.223  0.00  0.00    +0.000 C 
ATOM     17  C   UNL     1     -12.891  21.160  23.100  0.00  0.00    +0.000 C 
ATOM     18  C   UNL     1     -10.455  16.966  21.012  0.00  0.00    +0.000 C 
ATOM     19  C   UNL     1     -11.546  19.837  21.364  0.00  0.00    +0.000 C 
ATOM     20  C   UNL     1     -11.178  15.305  22.741  0.00  0.00    +0.000 C 
ATOM     21  C   UNL     1     -11.539  18.959  20.200  0.00  0.00    +0.000 C 
ATOM     22  C   UNL     1     -12.875  20.313  21.868  0.00  0.00    +0.000 C 
ATOM     23  C   UNL     1     -10.761  17.742  20.017  0.00  0.00    +0.000 C 
ATOM     24  C   UNL     1     -12.289  22.560  23.026  0.00  0.00    +0.000 C 
ATOM     25  C   UNL     1     -10.271  19.991  22.183  0.00  0.00    +0.000 C 
ATOM     26  C   UNL     1     -10.305  17.280  18.657  0.00  0.00    +0.000 C 
ENDROOT
BRANCH   8  27
ATOM     27  O   UNL     1      -9.809  16.194  27.921  0.00  0.00    +0.000 OA
ATOM     28  H   UNL     1     -10.000  15.270  27.659  0.00  0.00    +0.000 HD
ENDBRANCH   8  27
BRANCH  10  29
ATOM     29  O   UNL     1      -7.772  15.507  26.359  0.00  0.00    +0.000 OA
ATOM     30  H   UNL     1      -7.969  15.296  27.290  0.00  0.00    +0.000 HD
ENDBRANCH  10  29
BRANCH  15  31
ATOM     31  O   UNL     1     -16.004  20.772  23.561  0.00  0.00    +0.000 OA
ATOM     32  H   UNL     1     -16.868  20.506  23.942  0.00  0.00    +0.000 HD
ENDBRANCH  15  31
BRANCH  16  33
ATOM     33  O   UNL     1     -13.573  21.515  25.368  0.00  0.00    +0.000 OA
ATOM     34  C   UNL     1     -12.760  20.821  26.282  0.00  0.00    +0.000 C 
ENDBRANCH  16  33
BRANCH  21  35
ATOM     35  O   UNL     1     -12.247  19.465  19.080  0.00  0.00    +0.000 OA
BRANCH  35  37
ATOM     36  O   UNL     1     -12.388  21.776  18.742  0.00  0.00    +0.000 OA
ATOM     37  C   UNL     1     -11.820  20.699  18.695  0.00  0.00    +0.000 C 
ATOM     38  C   UNL     1     -10.431  20.735  18.170  0.00  0.00    +0.000 C 
ENDBRANCH  35  37
ENDBRANCH  21  35
BRANCH   6  39
ATOM     39  C   UNL     1     -13.313  15.737  26.422  0.00  0.00    +0.000 C 
BRANCH  39  41
ATOM     40  O   UNL     1     -14.820  15.027  28.353  0.00  0.00    +0.000 OA
ATOM     41  C   UNL     1     -13.793  15.897  27.823  0.00  0.00    +0.000 C 
ATOM     42  C   UNL     1     -13.521  14.717  28.638  0.00  0.00    +0.000 C 
ATOM     43  C   UNL     1     -13.982  17.343  28.405  0.00  0.00    +0.000 C 
BRANCH  42  44
ATOM     44  C   UNL     1     -13.120  14.755  30.012  0.00  0.00    +0.000 C 
ATOM     45  C   UNL     1     -14.148  14.587  31.108  0.00  0.00    +0.000 C 
BRANCH  44  46
ATOM     46  C   UNL     1     -11.777  14.488  30.379  0.00  0.00    +0.000 C 
ATOM     47  C   UNL     1     -10.655  14.215  30.702  0.00  0.00    +0.000 C 
ATOM     48  C   UNL     1      -9.239  13.799  31.120  0.00  0.00    +0.000 C 
ENDBRANCH  44  46
ENDBRANCH  42  44
ENDBRANCH  39  41
BRANCH  39  49
ATOM     49  O   UNL     1     -13.534  14.587  25.681  0.00  0.00    +0.000 OA
ATOM     50  H   UNL     1     -12.772  13.978  25.645  0.00  0.00    +0.000 HD
ENDBRANCH  39  49
ENDBRANCH   6  39
BRANCH   8  51
ATOM     51  C   UNL     1      -9.363  18.292  26.979  0.00  0.00    +0.000 C 
BRANCH  51  52
ATOM     52  O   UNL     1      -8.951  19.527  27.269  0.00  0.00    +0.000 OA
ATOM     53  H   UNL     1      -9.565  20.195  26.903  0.00  0.00    +0.000 HD
ENDBRANCH  51  52
ENDBRANCH   8  51
TORSDOF 13
ENDMDL
MODEL 7
REMARK VINA RESULT:      -5.5      1.851      2.939
REMARK  Name = 102471178_CandidaspongiolideCore.pdbqt.pdb
REMARK  13 active torsions:
REMARK  status: ('A' for Active; 'I' for Inactive)
REMARK    1  A    between atoms: C_6  and  C_39
REMARK    2  A    between atoms: C_8  and  O_27
REMARK    3  A    between atoms: C_8  and  C_51
REMARK    4  A    between atoms: C_10  and  O_29
REMARK    5  A    between atoms: C_15  and  O_31
REMARK    6  A    between atoms: C_16  and  O_33
REMARK    7  A    between atoms: C_21  and  O_35
REMARK    8  A    between atoms: O_35  and  C_37
REMARK    9  A    between atoms: C_39  and  C_41
REMARK   10  A    between atoms: C_39  and  O_49
REMARK   11  A    between atoms: C_42  and  C_44
REMARK   12  A    between atoms: C_44  and  C_46
REMARK   13  A    between atoms: C_51  and  O_52
REMARK                            x       y       z     vdW  Elec       q    Type
REMARK                         _______ _______ _______ _____ _____    ______ ____
ROOT
ATOM      1  O   UNL     1     -25.366  13.292   7.815  0.00  0.00    +0.000 OA
ATOM      2  O   UNL     1     -24.380  15.326   7.406  0.00  0.00    +0.000 OA
ATOM      3  O   UNL     1     -23.236  19.362   4.791  0.00  0.00    +0.000 OA
ATOM      4  O   UNL     1     -26.252  13.643   9.862  0.00  0.00    +0.000 OA
ATOM      5  O   UNL     1     -23.877  16.101  10.701  0.00  0.00    +0.000 OA
ATOM      6  C   UNL     1     -25.277  14.011   5.613  0.00  0.00    +0.000 C 
ATOM      7  C   UNL     1     -24.479  14.508   4.545  0.00  0.00    +0.000 C 
ATOM      8  C   UNL     1     -23.676  14.870   3.374  0.00  0.00    +0.000 C 
ATOM      9  C   UNL     1     -24.954  14.311   7.032  0.00  0.00    +0.000 C 
ATOM     10  C   UNL     1     -23.884  16.311   2.962  0.00  0.00    +0.000 C 
ATOM     11  C   UNL     1     -23.981  17.400   3.869  0.00  0.00    +0.000 C 
ATOM     12  C   UNL     1     -24.054  18.452   4.861  0.00  0.00    +0.000 C 
ATOM     13  C   UNL     1     -25.271  13.505   9.141  0.00  0.00    +0.000 C 
ATOM     14  C   UNL     1     -25.070  18.391   5.956  0.00  0.00    +0.000 C 
ATOM     15  C   UNL     1     -23.940  13.251   9.747  0.00  0.00    +0.000 C 
ATOM     16  C   UNL     1     -22.687  13.751   9.219  0.00  0.00    +0.000 C 
ATOM     17  C   UNL     1     -22.085  15.038   9.541  0.00  0.00    +0.000 C 
ATOM     18  C   UNL     1     -24.768  18.950   7.221  0.00  0.00    +0.000 C 
ATOM     19  C   UNL     1     -22.798  17.456   9.078  0.00  0.00    +0.000 C 
ATOM     20  C   UNL     1     -26.305  17.504   5.873  0.00  0.00    +0.000 C 
ATOM     21  C   UNL     1     -23.712  18.559   9.352  0.00  0.00    +0.000 C 
ATOM     22  C   UNL     1     -22.977  16.193   9.864  0.00  0.00    +0.000 C 
ATOM     23  C   UNL     1     -24.396  19.401   8.380  0.00  0.00    +0.000 C 
ATOM     24  C   UNL     1     -20.597  15.159   9.858  0.00  0.00    +0.000 C 
ATOM     25  C   UNL     1     -21.918  17.515   7.837  0.00  0.00    +0.000 C 
ATOM     26  C   UNL     1     -24.758  20.833   8.677  0.00  0.00    +0.000 C 
ENDROOT
BRANCH   8  27
ATOM     27  O   UNL     1     -24.130  14.023   2.316  0.00  0.00    +0.000 OA
ATOM     28  H   UNL     1     -25.031  13.756   2.590  0.00  0.00    +0.000 HD
ENDBRANCH   8  27
BRANCH  10  29
ATOM     29  O   UNL     1     -23.930  16.575   1.602  0.00  0.00    +0.000 OA
ATOM     30  H   UNL     1     -24.027  15.762   1.072  0.00  0.00    +0.000 HD
ENDBRANCH  10  29
BRANCH  15  31
ATOM     31  O   UNL     1     -23.895  12.953  11.100  0.00  0.00    +0.000 OA
ATOM     32  H   UNL     1     -23.304  13.580  11.569  0.00  0.00    +0.000 HD
ENDBRANCH  15  31
BRANCH  16  33
ATOM     33  O   UNL     1     -21.796  12.780   8.798  0.00  0.00    +0.000 OA
ATOM     34  C   UNL     1     -22.510  11.714   8.220  0.00  0.00    +0.000 C 
ENDBRANCH  16  33
BRANCH  21  35
ATOM     35  O   UNL     1     -23.788  18.931  10.719  0.00  0.00    +0.000 OA
BRANCH  35  37
ATOM     36  O   UNL     1     -21.943  20.368  10.737  0.00  0.00    +0.000 OA
ATOM     37  C   UNL     1     -22.629  19.469  11.188  0.00  0.00    +0.000 C 
ATOM     38  C   UNL     1     -22.153  18.886  12.469  0.00  0.00    +0.000 C 
ENDBRANCH  35  37
ENDBRANCH  21  35
BRANCH   6  39
ATOM     39  C   UNL     1     -26.471  13.273   5.265  0.00  0.00    +0.000 C 
BRANCH  39  41
ATOM     40  O   UNL     1     -27.541  11.234   4.170  0.00  0.00    +0.000 OA
ATOM     41  C   UNL     1     -26.379  12.066   4.397  0.00  0.00    +0.000 C 
ATOM     42  C   UNL     1     -27.237  12.168   3.219  0.00  0.00    +0.000 C 
ATOM     43  C   UNL     1     -25.097  11.163   4.476  0.00  0.00    +0.000 C 
BRANCH  42  44
ATOM     44  C   UNL     1     -26.885  11.691   1.917  0.00  0.00    +0.000 C 
ATOM     45  C   UNL     1     -27.107  10.241   1.553  0.00  0.00    +0.000 C 
BRANCH  44  46
ATOM     46  C   UNL     1     -26.772  12.590   0.826  0.00  0.00    +0.000 C 
ATOM     47  C   UNL     1     -26.628  13.357  -0.085  0.00  0.00    +0.000 C 
ATOM     48  C   UNL     1     -26.374  14.334  -1.239  0.00  0.00    +0.000 C 
ENDBRANCH  44  46
ENDBRANCH  42  44
ENDBRANCH  39  41
BRANCH  39  49
ATOM     49  O   UNL     1     -27.677  13.783   5.717  0.00  0.00    +0.000 OA
ATOM     50  H   UNL     1     -27.720  13.923   6.682  0.00  0.00    +0.000 HD
ENDBRANCH  39  49
ENDBRANCH   6  39
BRANCH   8  51
ATOM     51  C   UNL     1     -22.244  14.598   3.582  0.00  0.00    +0.000 C 
BRANCH  51  52
ATOM     52  O   UNL     1     -20.944  14.390   3.793  0.00  0.00    +0.000 OA
ATOM     53  H   UNL     1     -20.552  15.120   4.313  0.00  0.00    +0.000 HD
ENDBRANCH  51  52
ENDBRANCH   8  51
TORSDOF 13
ENDMDL
MODEL 8
REMARK VINA RESULT:      -5.4     17.832     20.304
REMARK  Name = 102471178_CandidaspongiolideCore.pdbqt.pdb
REMARK  13 active torsions:
REMARK  status: ('A' for Active; 'I' for Inactive)
REMARK    1  A    between atoms: C_6  and  C_39
REMARK    2  A    between atoms: C_8  and  O_27
REMARK    3  A    between atoms: C_8  and  C_51
REMARK    4  A    between atoms: C_10  and  O_29
REMARK    5  A    between atoms: C_15  and  O_31
REMARK    6  A    between atoms: C_16  and  O_33
REMARK    7  A    between atoms: C_21  and  O_35
REMARK    8  A    between atoms: O_35  and  C_37
REMARK    9  A    between atoms: C_39  and  C_41
REMARK   10  A    between atoms: C_39  and  O_49
REMARK   11  A    between atoms: C_42  and  C_44
REMARK   12  A    between atoms: C_44  and  C_46
REMARK   13  A    between atoms: C_51  and  O_52
REMARK                            x       y       z     vdW  Elec       q    Type
REMARK                         _______ _______ _______ _____ _____    ______ ____
ROOT
ATOM      1  O   UNL     1      -8.917  14.840  22.070  0.00  0.00    +0.000 OA
ATOM      2  O   UNL     1      -9.940  16.887  21.873  0.00  0.00    +0.000 OA
ATOM      3  O   UNL     1     -11.227  21.114  19.655  0.00  0.00    +0.000 OA
ATOM      4  O   UNL     1     -10.604  13.589  22.898  0.00  0.00    +0.000 OA
ATOM      5  O   UNL     1     -12.206  16.351  24.380  0.00  0.00    +0.000 OA
ATOM      6  C   UNL     1      -8.218  16.219  20.343  0.00  0.00    +0.000 C 
ATOM      7  C   UNL     1      -7.754  17.504  19.948  0.00  0.00    +0.000 C 
ATOM      8  C   UNL     1      -7.127  18.757  19.517  0.00  0.00    +0.000 C 
ATOM      9  C   UNL     1      -9.135  16.043  21.500  0.00  0.00    +0.000 C 
ATOM     10  C   UNL     1      -8.072  19.621  18.710  0.00  0.00    +0.000 C 
ATOM     11  C   UNL     1      -9.444  19.820  19.022  0.00  0.00    +0.000 C 
ATOM     12  C   UNL     1     -10.826  19.979  19.421  0.00  0.00    +0.000 C 
ATOM     13  C   UNL     1      -9.786  14.491  23.036  0.00  0.00    +0.000 C 
ATOM     14  C   UNL     1     -11.710  18.784  19.583  0.00  0.00    +0.000 C 
ATOM     15  C   UNL     1      -9.505  15.029  24.390  0.00  0.00    +0.000 C 
ATOM     16  C   UNL     1      -9.198  16.416  24.677  0.00  0.00    +0.000 C 
ATOM     17  C   UNL     1     -10.175  17.460  24.959  0.00  0.00    +0.000 C 
ATOM     18  C   UNL     1     -12.746  18.807  20.548  0.00  0.00    +0.000 C 
ATOM     19  C   UNL     1     -12.003  18.561  23.539  0.00  0.00    +0.000 C 
ATOM     20  C   UNL     1     -11.374  17.433  18.966  0.00  0.00    +0.000 C 
ATOM     21  C   UNL     1     -13.294  18.452  22.867  0.00  0.00    +0.000 C 
ATOM     22  C   UNL     1     -11.525  17.377  24.323  0.00  0.00    +0.000 C 
ATOM     23  C   UNL     1     -13.618  18.860  21.508  0.00  0.00    +0.000 C 
ATOM     24  C   UNL     1      -9.972  18.446  26.105  0.00  0.00    +0.000 C 
ATOM     25  C   UNL     1     -11.080  19.718  23.184  0.00  0.00    +0.000 C 
ATOM     26  C   UNL     1     -14.999  19.321  21.119  0.00  0.00    +0.000 C 
ENDROOT
BRANCH   8  27
ATOM     27  O   UNL     1      -6.033  18.375  18.680  0.00  0.00    +0.000 OA
ATOM     28  H   UNL     1      -5.766  17.496  19.019  0.00  0.00    +0.000 HD
ENDBRANCH   8  27
BRANCH  10  29
ATOM     29  O   UNL     1      -7.535  20.296  17.626  0.00  0.00    +0.000 OA
ATOM     30  H   UNL     1      -6.562  20.357  17.674  0.00  0.00    +0.000 HD
ENDBRANCH  10  29
BRANCH  15  31
ATOM     31  O   UNL     1     -10.013  14.336  25.478  0.00  0.00    +0.000 OA
ATOM     32  H   UNL     1     -10.648  13.650  25.181  0.00  0.00    +0.000 HD
ENDBRANCH  15  31
BRANCH  16  33
ATOM     33  O   UNL     1      -7.935  16.646  25.192  0.00  0.00    +0.000 OA
ATOM     34  C   UNL     1      -7.106  17.157  24.177  0.00  0.00    +0.000 C 
ENDBRANCH  16  33
BRANCH  21  35
ATOM     35  O   UNL     1     -14.362  18.059  23.713  0.00  0.00    +0.000 OA
BRANCH  35  37
ATOM     36  O   UNL     1     -14.807  20.187  24.578  0.00  0.00    +0.000 OA
ATOM     37  C   UNL     1     -14.648  18.983  24.672  0.00  0.00    +0.000 C 
ATOM     38  C   UNL     1     -14.828  18.421  26.036  0.00  0.00    +0.000 C 
ENDBRANCH  35  37
ENDBRANCH  21  35
BRANCH   6  39
ATOM     39  C   UNL     1      -7.837  15.092  19.522  0.00  0.00    +0.000 C 
BRANCH  39  41
ATOM     40  O   UNL     1      -6.174  15.769  17.711  0.00  0.00    +0.000 OA
ATOM     41  C   UNL     1      -7.488  15.294  18.088  0.00  0.00    +0.000 C 
ATOM     42  C   UNL     1      -6.398  14.422  17.658  0.00  0.00    +0.000 C 
ATOM     43  C   UNL     1      -8.562  15.903  17.118  0.00  0.00    +0.000 C 
BRANCH  42  44
ATOM     44  C   UNL     1      -6.323  13.791  16.375  0.00  0.00    +0.000 C 
ATOM     45  C   UNL     1      -5.751  14.540  15.193  0.00  0.00    +0.000 C 
BRANCH  44  46
ATOM     46  C   UNL     1      -6.330  12.378  16.265  0.00  0.00    +0.000 C 
ATOM     47  C   UNL     1      -6.375  11.181  16.202  0.00  0.00    +0.000 C 
ATOM     48  C   UNL     1      -6.497   9.653  16.154  0.00  0.00    +0.000 C 
ENDBRANCH  44  46
ENDBRANCH  42  44
ENDBRANCH  39  41
BRANCH  39  49
ATOM     49  O   UNL     1      -7.884  13.841  20.114  0.00  0.00    +0.000 OA
ATOM     50  H   UNL     1      -8.054  13.106  19.493  0.00  0.00    +0.000 HD
ENDBRANCH  39  49
ENDBRANCH   6  39
BRANCH   8  51
ATOM     51  C   UNL     1      -6.579  19.518  20.651  0.00  0.00    +0.000 C 
BRANCH  51  52
ATOM     52  O   UNL     1      -6.118  20.234  21.677  0.00  0.00    +0.000 OA
ATOM     53  H   UNL     1      -5.688  19.658  22.341  0.00  0.00    +0.000 HD
ENDBRANCH  51  52
ENDBRANCH   8  51
TORSDOF 13
ENDMDL
MODEL 9
REMARK VINA RESULT:      -5.3     20.651     23.301
REMARK  Name = 102471178_CandidaspongiolideCore.pdbqt.pdb
REMARK  13 active torsions:
REMARK  status: ('A' for Active; 'I' for Inactive)
REMARK    1  A    between atoms: C_6  and  C_39
REMARK    2  A    between atoms: C_8  and  O_27
REMARK    3  A    between atoms: C_8  and  C_51
REMARK    4  A    between atoms: C_10  and  O_29
REMARK    5  A    between atoms: C_15  and  O_31
REMARK    6  A    between atoms: C_16  and  O_33
REMARK    7  A    between atoms: C_21  and  O_35
REMARK    8  A    between atoms: O_35  and  C_37
REMARK    9  A    between atoms: C_39  and  C_41
REMARK   10  A    between atoms: C_39  and  O_49
REMARK   11  A    between atoms: C_42  and  C_44
REMARK   12  A    between atoms: C_44  and  C_46
REMARK   13  A    between atoms: C_51  and  O_52
REMARK                            x       y       z     vdW  Elec       q    Type
REMARK                         _______ _______ _______ _____ _____    ______ ____
ROOT
ATOM      1  O   UNL     1      -8.221   4.161  21.548  0.00  0.00    +0.000 OA
ATOM      2  O   UNL     1      -7.244   5.858  20.349  0.00  0.00    +0.000 OA
ATOM      3  O   UNL     1      -6.140   8.511  16.325  0.00  0.00    +0.000 OA
ATOM      4  O   UNL     1      -9.081   5.303  23.296  0.00  0.00    +0.000 OA
ATOM      5  O   UNL     1      -6.699   7.882  23.053  0.00  0.00    +0.000 OA
ATOM      6  C   UNL     1      -8.163   3.940  19.241  0.00  0.00    +0.000 C 
ATOM      7  C   UNL     1      -7.380   3.966  18.054  0.00  0.00    +0.000 C 
ATOM      8  C   UNL     1      -6.592   3.828  16.826  0.00  0.00    +0.000 C 
ATOM      9  C   UNL     1      -7.822   4.781  20.419  0.00  0.00    +0.000 C 
ATOM     10  C   UNL     1      -6.808   4.986  15.875  0.00  0.00    +0.000 C 
ATOM     11  C   UNL     1      -6.894   6.347  16.273  0.00  0.00    +0.000 C 
ATOM     12  C   UNL     1      -6.956   7.708  16.764  0.00  0.00    +0.000 C 
ATOM     13  C   UNL     1      -8.109   4.885  22.677  0.00  0.00    +0.000 C 
ATOM     14  C   UNL     1      -7.958   8.093  17.804  0.00  0.00    +0.000 C 
ATOM     15  C   UNL     1      -6.771   4.888  23.317  0.00  0.00    +0.000 C 
ATOM     16  C   UNL     1      -5.525   5.131  22.619  0.00  0.00    +0.000 C 
ATOM     17  C   UNL     1      -4.921   6.437  22.392  0.00  0.00    +0.000 C 
ATOM     18  C   UNL     1      -7.640   9.109  18.738  0.00  0.00    +0.000 C 
ATOM     19  C   UNL     1      -5.643   8.472  21.011  0.00  0.00    +0.000 C 
ATOM     20  C   UNL     1      -9.192   7.251  18.098  0.00  0.00    +0.000 C 
ATOM     21  C   UNL     1      -6.556   9.597  20.834  0.00  0.00    +0.000 C 
ATOM     22  C   UNL     1      -5.810   7.629  22.238  0.00  0.00    +0.000 C 
ATOM     23  C   UNL     1      -7.253   9.983  19.615  0.00  0.00    +0.000 C 
ATOM     24  C   UNL     1      -3.429   6.669  22.615  0.00  0.00    +0.000 C 
ATOM     25  C   UNL     1      -4.780   8.028  19.839  0.00  0.00    +0.000 C 
ATOM     26  C   UNL     1      -7.613  11.417  19.321  0.00  0.00    +0.000 C 
ENDROOT
BRANCH   8  27
ATOM     27  O   UNL     1      -7.059   2.631  16.199  0.00  0.00    +0.000 OA
ATOM     28  H   UNL     1      -6.251   2.092  16.076  0.00  0.00    +0.000 HD
ENDBRANCH   8  27
BRANCH  10  29
ATOM     29  O   UNL     1      -6.872   4.685  14.524  0.00  0.00    +0.000 OA
ATOM     30  H   UNL     1      -6.723   3.737  14.349  0.00  0.00    +0.000 HD
ENDBRANCH  10  29
BRANCH  15  31
ATOM     31  O   UNL     1      -6.707   5.155  24.676  0.00  0.00    +0.000 OA
ATOM     32  H   UNL     1      -7.316   5.887  24.911  0.00  0.00    +0.000 HD
ENDBRANCH  15  31
BRANCH  16  33
ATOM     33  O   UNL     1      -4.639   4.069  22.609  0.00  0.00    +0.000 OA
ATOM     34  C   UNL     1      -4.677   3.444  21.349  0.00  0.00    +0.000 C 
ENDBRANCH  16  33
BRANCH  21  35
ATOM     35  O   UNL     1      -6.614  10.483  21.939  0.00  0.00    +0.000 OA
BRANCH  35  37
ATOM     36  O   UNL     1      -4.689  10.757  23.240  0.00  0.00    +0.000 OA
ATOM     37  C   UNL     1      -5.397  10.992  22.277  0.00  0.00    +0.000 C 
ATOM     38  C   UNL     1      -4.837  11.956  21.295  0.00  0.00    +0.000 C 
ENDBRANCH  35  37
ENDBRANCH  21  35
BRANCH   6  39
ATOM     39  C   UNL     1      -9.360   3.130  19.232  0.00  0.00    +0.000 C 
BRANCH  39  41
ATOM     40  O   UNL     1     -11.891   3.107  19.539  0.00  0.00    +0.000 OA
ATOM     41  C   UNL     1     -10.695   3.767  19.063  0.00  0.00    +0.000 C 
ATOM     42  C   UNL     1     -11.332   4.060  20.344  0.00  0.00    +0.000 C 
ATOM     43  C   UNL     1     -11.016   4.528  17.727  0.00  0.00    +0.000 C 
BRANCH  42  44
ATOM     44  C   UNL     1     -12.109   5.231  20.614  0.00  0.00    +0.000 C 
ATOM     45  C   UNL     1     -13.561   5.105  21.016  0.00  0.00    +0.000 C 
BRANCH  44  46
ATOM     46  C   UNL     1     -11.476   6.451  20.964  0.00  0.00    +0.000 C 
ATOM     47  C   UNL     1     -10.904   7.456  21.282  0.00  0.00    +0.000 C 
ATOM     48  C   UNL     1     -10.116   8.702  21.706  0.00  0.00    +0.000 C 
ENDBRANCH  44  46
ENDBRANCH  42  44
ENDBRANCH  39  41
BRANCH  39  49
ATOM     49  O   UNL     1      -9.199   1.772  19.452  0.00  0.00    +0.000 OA
ATOM     50  H   UNL     1      -8.300   1.511  19.729  0.00  0.00    +0.000 HD
ENDBRANCH  39  49
ENDBRANCH   6  39
BRANCH   8  51
ATOM     51  C   UNL     1      -5.157   3.656  17.107  0.00  0.00    +0.000 C 
BRANCH  51  52
ATOM     52  O   UNL     1      -3.866   3.459  17.375  0.00  0.00    +0.000 OA
ATOM     53  H   UNL     1      -3.304   3.764  16.634  0.00  0.00    +0.000 HD
ENDBRANCH  51  52
ENDBRANCH   8  51
TORSDOF 13
ENDMDL
