MODEL 1
REMARK VINA RESULT:      -6.2      0.000      0.000
REMARK  Name = 10288191_Binimetinib.pdbqt.pdb
REMARK  6 active torsions:
REMARK  status: ('A' for Active; 'I' for Inactive)
REMARK    1  A    between atoms: C_6  and  N_21
REMARK    2  A    between atoms: C_7  and  C_14
REMARK    3  A    between atoms: N_13  and  O_16
REMARK    4  A    between atoms: O_16  and  C_17
REMARK    5  A    between atoms: C_18  and  O_19
REMARK    6  A    between atoms: N_21  and  C_25
REMARK                            x       y       z     vdW  Elec       q    Type
REMARK                         _______ _______ _______ _____ _____    ______ ____
ROOT
ATOM      1  F   UNL     1     -14.483   6.599  -1.649  0.00  0.00    +0.000 F 
ATOM      2  N   UNL     1     -18.585   4.839  -2.362  0.00  0.00    +0.000 N 
ATOM      3  N   UNL     1     -16.404   4.516  -2.453  0.00  0.00    +0.000 NA
ATOM      4  C   UNL     1     -18.048   6.001  -1.890  0.00  0.00    +0.000 A 
ATOM      5  C   UNL     1     -16.676   5.775  -1.951  0.00  0.00    +0.000 A 
ATOM      6  C   UNL     1     -16.305   8.028  -1.039  0.00  0.00    +0.000 A 
ATOM      7  C   UNL     1     -17.712   8.213  -1.011  0.00  0.00    +0.000 A 
ATOM      8  C   UNL     1     -18.595   7.203  -1.435  0.00  0.00    +0.000 A 
ATOM      9  C   UNL     1     -15.805   6.797  -1.526  0.00  0.00    +0.000 A 
ATOM     10  C   UNL     1     -17.584   3.975  -2.689  0.00  0.00    +0.000 A 
ATOM     11  C   UNL     1     -19.977   4.557  -2.479  0.00  0.00    +0.000 C 
ENDROOT
BRANCH   7  14
ATOM     12  O   UNL     1     -18.297  10.481  -1.303  0.00  0.00    +0.000 OA
ATOM     13  N   UNL     1     -18.873   9.514   0.708  0.00  0.00    +0.000 N 
ATOM     14  C   UNL     1     -18.318   9.506  -0.556  0.00  0.00    +0.000 C 
ATOM     15  H   UNL     1     -18.580   8.863   1.425  0.00  0.00    +0.000 HD
BRANCH  13  16
ATOM     16  O   UNL     1     -19.168  10.808   1.191  0.00  0.00    +0.000 OA
BRANCH  16  17
ATOM     17  C   UNL     1     -20.440  10.778   1.582  0.00  0.00    +0.000 C 
ATOM     18  C   UNL     1     -21.906  10.757   2.027  0.00  0.00    +0.000 C 
BRANCH  18  19
ATOM     19  O   UNL     1     -23.179  10.746   2.408  0.00  0.00    +0.000 OA
ATOM     20  H   UNL     1     -23.729  10.319   1.729  0.00  0.00    +0.000 HD
ENDBRANCH  18  19
ENDBRANCH  16  17
ENDBRANCH  13  16
ENDBRANCH   7  14
BRANCH   6  21
ATOM     21  N   UNL     1     -15.438   9.045  -0.564  0.00  0.00    +0.000 N 
ATOM     22  H   UNL     1     -14.748   8.702   0.123  0.00  0.00    +0.000 HD
BRANCH  21  25
ATOM     23 BR   UNL     1     -13.554  14.233  -3.157  0.00  0.00    +0.000 Br
ATOM     24  F   UNL     1     -15.138   9.297  -3.294  0.00  0.00    +0.000 F 
ATOM     25  C   UNL     1     -15.038  10.272  -1.133  0.00  0.00    +0.000 A 
ATOM     26  C   UNL     1     -14.867  10.365  -2.525  0.00  0.00    +0.000 A 
ATOM     27  C   UNL     1     -14.725  11.400  -0.371  0.00  0.00    +0.000 A 
ATOM     28  C   UNL     1     -14.430  11.534  -3.139  0.00  0.00    +0.000 A 
ATOM     29  C   UNL     1     -14.287  12.581  -0.968  0.00  0.00    +0.000 A 
ATOM     30  C   UNL     1     -14.144  12.638  -2.349  0.00  0.00    +0.000 A 
ENDBRANCH  21  25
ENDBRANCH   6  21
TORSDOF 6
ENDMDL
MODEL 2
REMARK VINA RESULT:      -5.5     19.630     22.072
REMARK  Name = 10288191_Binimetinib.pdbqt.pdb
REMARK  6 active torsions:
REMARK  status: ('A' for Active; 'I' for Inactive)
REMARK    1  A    between atoms: C_6  and  N_21
REMARK    2  A    between atoms: C_7  and  C_14
REMARK    3  A    between atoms: N_13  and  O_16
REMARK    4  A    between atoms: O_16  and  C_17
REMARK    5  A    between atoms: C_18  and  O_19
REMARK    6  A    between atoms: N_21  and  C_25
REMARK                            x       y       z     vdW  Elec       q    Type
REMARK                         _______ _______ _______ _____ _____    ______ ____
ROOT
ATOM      1  F   UNL     1     -20.353   5.012  20.664  0.00  0.00    +0.000 F 
ATOM      2  N   UNL     1     -21.797   1.392  22.953  0.00  0.00    +0.000 N 
ATOM      3  N   UNL     1     -21.062   3.469  23.071  0.00  0.00    +0.000 NA
ATOM      4  C   UNL     1     -21.612   1.763  21.652  0.00  0.00    +0.000 A 
ATOM      5  C   UNL     1     -21.153   3.073  21.749  0.00  0.00    +0.000 A 
ATOM      6  C   UNL     1     -21.026   3.166  19.296  0.00  0.00    +0.000 A 
ATOM      7  C   UNL     1     -21.482   1.823  19.253  0.00  0.00    +0.000 A 
ATOM      8  C   UNL     1     -21.779   1.110  20.430  0.00  0.00    +0.000 A 
ATOM      9  C   UNL     1     -20.858   3.773  20.563  0.00  0.00    +0.000 A 
ATOM     10  C   UNL     1     -21.462   2.427  23.773  0.00  0.00    +0.000 A 
ATOM     11  C   UNL     1     -22.286   0.127  23.392  0.00  0.00    +0.000 C 
ENDROOT
BRANCH   7  14
ATOM     12  O   UNL     1     -22.525   1.434  17.172  0.00  0.00    +0.000 OA
ATOM     13  N   UNL     1     -20.755   0.062  17.715  0.00  0.00    +0.000 N 
ATOM     14  C   UNL     1     -21.639   1.095  17.953  0.00  0.00    +0.000 C 
ATOM     15  H   UNL     1     -20.293  -0.431  18.469  0.00  0.00    +0.000 HD
BRANCH  13  16
ATOM     16  O   UNL     1     -21.119  -0.761  16.628  0.00  0.00    +0.000 OA
BRANCH  16  17
ATOM     17  C   UNL     1     -19.986  -1.266  16.146  0.00  0.00    +0.000 C 
ATOM     18  C   UNL     1     -18.681  -1.857  15.601  0.00  0.00    +0.000 C 
BRANCH  18  19
ATOM     19  O   UNL     1     -17.550  -2.375  15.135  0.00  0.00    +0.000 OA
ATOM     20  H   UNL     1     -16.875  -2.392  15.835  0.00  0.00    +0.000 HD
ENDBRANCH  18  19
ENDBRANCH  16  17
ENDBRANCH  13  16
ENDBRANCH   7  14
BRANCH   6  21
ATOM     21  N   UNL     1     -20.777   3.878  18.094  0.00  0.00    +0.000 N 
ATOM     22  H   UNL     1     -20.267   3.322  17.391  0.00  0.00    +0.000 HD
BRANCH  21  25
ATOM     23 BR   UNL     1     -23.596   8.755  15.758  0.00  0.00    +0.000 Br
ATOM     24  F   UNL     1     -19.692   6.409  18.236  0.00  0.00    +0.000 F 
ATOM     25  C   UNL     1     -21.438   4.978  17.508  0.00  0.00    +0.000 A 
ATOM     26  C   UNL     1     -20.876   6.261  17.619  0.00  0.00    +0.000 A 
ATOM     27  C   UNL     1     -22.679   4.873  16.876  0.00  0.00    +0.000 A 
ATOM     28  C   UNL     1     -21.503   7.390  17.103  0.00  0.00    +0.000 A 
ATOM     29  C   UNL     1     -23.324   5.993  16.351  0.00  0.00    +0.000 A 
ATOM     30  C   UNL     1     -22.729   7.243  16.468  0.00  0.00    +0.000 A 
ENDBRANCH  21  25
ENDBRANCH   6  21
TORSDOF 6
ENDMDL
MODEL 3
REMARK VINA RESULT:      -5.5     20.403     21.624
REMARK  Name = 10288191_Binimetinib.pdbqt.pdb
REMARK  6 active torsions:
REMARK  status: ('A' for Active; 'I' for Inactive)
REMARK    1  A    between atoms: C_6  and  N_21
REMARK    2  A    between atoms: C_7  and  C_14
REMARK    3  A    between atoms: N_13  and  O_16
REMARK    4  A    between atoms: O_16  and  C_17
REMARK    5  A    between atoms: C_18  and  O_19
REMARK    6  A    between atoms: N_21  and  C_25
REMARK                            x       y       z     vdW  Elec       q    Type
REMARK                         _______ _______ _______ _____ _____    ______ ____
ROOT
ATOM      1  F   UNL     1     -11.230   7.411  19.945  0.00  0.00    +0.000 F 
ATOM      2  N   UNL     1     -12.134   2.982  19.986  0.00  0.00    +0.000 N 
ATOM      3  N   UNL     1     -12.436   4.930  20.978  0.00  0.00    +0.000 NA
ATOM      4  C   UNL     1     -11.455   3.872  19.205  0.00  0.00    +0.000 A 
ATOM      5  C   UNL     1     -11.661   5.091  19.844  0.00  0.00    +0.000 A 
ATOM      6  C   UNL     1     -10.316   6.186  18.103  0.00  0.00    +0.000 A 
ATOM      7  C   UNL     1     -10.124   4.916  17.498  0.00  0.00    +0.000 A 
ATOM      8  C   UNL     1     -10.691   3.749  18.043  0.00  0.00    +0.000 A 
ATOM      9  C   UNL     1     -11.085   6.249  19.289  0.00  0.00    +0.000 A 
ATOM     10  C   UNL     1     -12.707   3.640  21.032  0.00  0.00    +0.000 A 
ATOM     11  C   UNL     1     -12.249   1.583  19.739  0.00  0.00    +0.000 C 
ENDROOT
BRANCH   7  14
ATOM     12  O   UNL     1      -9.724   5.123  15.181  0.00  0.00    +0.000 OA
ATOM     13  N   UNL     1      -8.034   4.197  16.444  0.00  0.00    +0.000 N 
ATOM     14  C   UNL     1      -9.282   4.758  16.268  0.00  0.00    +0.000 C 
ATOM     15  H   UNL     1      -7.826   3.591  17.228  0.00  0.00    +0.000 HD
BRANCH  13  16
ATOM     16  O   UNL     1      -7.407   3.813  15.239  0.00  0.00    +0.000 OA
BRANCH  16  17
ATOM     17  C   UNL     1      -6.204   4.385  15.246  0.00  0.00    +0.000 C 
ATOM     18  C   UNL     1      -4.819   5.040  15.268  0.00  0.00    +0.000 C 
BRANCH  18  19
ATOM     19  O   UNL     1      -3.618   5.607  15.296  0.00  0.00    +0.000 OA
ATOM     20  H   UNL     1      -3.084   5.227  16.014  0.00  0.00    +0.000 HD
ENDBRANCH  18  19
ENDBRANCH  16  17
ENDBRANCH  13  16
ENDBRANCH   7  14
BRANCH   6  21
ATOM     21  N   UNL     1      -9.771   7.353  17.508  0.00  0.00    +0.000 N 
ATOM     22  H   UNL     1     -10.476   8.085  17.328  0.00  0.00    +0.000 HD
BRANCH  21  25
ATOM     23 BR   UNL     1      -4.205   9.840  17.672  0.00  0.00    +0.000 Br
ATOM     24  F   UNL     1      -8.736   8.485  19.800  0.00  0.00    +0.000 F 
ATOM     25  C   UNL     1      -8.464   7.884  17.521  0.00  0.00    +0.000 A 
ATOM     26  C   UNL     1      -7.972   8.479  18.695  0.00  0.00    +0.000 A 
ATOM     27  C   UNL     1      -7.645   7.919  16.391  0.00  0.00    +0.000 A 
ATOM     28  C   UNL     1      -6.710   9.061  18.755  0.00  0.00    +0.000 A 
ATOM     29  C   UNL     1      -6.376   8.496  16.431  0.00  0.00    +0.000 A 
ATOM     30  C   UNL     1      -5.919   9.062  17.615  0.00  0.00    +0.000 A 
ENDBRANCH  21  25
ENDBRANCH   6  21
TORSDOF 6
ENDMDL
MODEL 4
REMARK VINA RESULT:      -5.4     24.874     26.997
REMARK  Name = 10288191_Binimetinib.pdbqt.pdb
REMARK  6 active torsions:
REMARK  status: ('A' for Active; 'I' for Inactive)
REMARK    1  A    between atoms: C_6  and  N_21
REMARK    2  A    between atoms: C_7  and  C_14
REMARK    3  A    between atoms: N_13  and  O_16
REMARK    4  A    between atoms: O_16  and  C_17
REMARK    5  A    between atoms: C_18  and  O_19
REMARK    6  A    between atoms: N_21  and  C_25
REMARK                            x       y       z     vdW  Elec       q    Type
REMARK                         _______ _______ _______ _____ _____    ______ ____
ROOT
ATOM      1  F   UNL     1     -11.619  14.937  24.220  0.00  0.00    +0.000 F 
ATOM      2  N   UNL     1      -9.252  16.730  20.813  0.00  0.00    +0.000 N 
ATOM      3  N   UNL     1      -9.428  15.070  22.257  0.00  0.00    +0.000 NA
ATOM      4  C   UNL     1     -10.388  17.008  21.515  0.00  0.00    +0.000 A 
ATOM      5  C   UNL     1     -10.483  15.950  22.415  0.00  0.00    +0.000 A 
ATOM      6  C   UNL     1     -12.550  16.942  23.302  0.00  0.00    +0.000 A 
ATOM      7  C   UNL     1     -12.398  18.006  22.374  0.00  0.00    +0.000 A 
ATOM      8  C   UNL     1     -11.318  18.049  21.474  0.00  0.00    +0.000 A 
ATOM      9  C   UNL     1     -11.568  15.923  23.312  0.00  0.00    +0.000 A 
ATOM     10  C   UNL     1      -8.702  15.573  21.275  0.00  0.00    +0.000 A 
ATOM     11  C   UNL     1      -8.725  17.513  19.744  0.00  0.00    +0.000 C 
ENDROOT
BRANCH   7  14
ATOM     12  O   UNL     1     -13.312  20.020  23.197  0.00  0.00    +0.000 OA
ATOM     13  N   UNL     1     -14.286  19.140  21.304  0.00  0.00    +0.000 N 
ATOM     14  C   UNL     1     -13.368  19.148  22.335  0.00  0.00    +0.000 C 
ATOM     15  H   UNL     1     -14.559  18.284  20.838  0.00  0.00    +0.000 HD
BRANCH  13  16
ATOM     16  O   UNL     1     -15.340  20.064  21.473  0.00  0.00    +0.000 OA
BRANCH  16  17
ATOM     17  C   UNL     1     -16.469  19.364  21.380  0.00  0.00    +0.000 C 
ATOM     18  C   UNL     1     -17.766  18.557  21.259  0.00  0.00    +0.000 C 
BRANCH  18  19
ATOM     19  O   UNL     1     -18.888  17.855  21.146  0.00  0.00    +0.000 OA
ATOM     20  H   UNL     1     -18.948  17.460  20.260  0.00  0.00    +0.000 HD
ENDBRANCH  18  19
ENDBRANCH  16  17
ENDBRANCH  13  16
ENDBRANCH   7  14
BRANCH   6  21
ATOM     21  N   UNL     1     -13.672  16.899  24.168  0.00  0.00    +0.000 N 
ATOM     22  H   UNL     1     -14.345  16.155  23.925  0.00  0.00    +0.000 HD
BRANCH  21  25
ATOM     23 BR   UNL     1     -14.434  19.024  29.833  0.00  0.00    +0.000 Br
ATOM     24  F   UNL     1     -15.736  18.604  24.831  0.00  0.00    +0.000 F 
ATOM     25  C   UNL     1     -13.843  17.339  25.497  0.00  0.00    +0.000 A 
ATOM     26  C   UNL     1     -14.886  18.230  25.801  0.00  0.00    +0.000 A 
ATOM     27  C   UNL     1     -12.971  16.993  26.532  0.00  0.00    +0.000 A 
ATOM     28  C   UNL     1     -15.075  18.735  27.083  0.00  0.00    +0.000 A 
ATOM     29  C   UNL     1     -13.144  17.489  27.824  0.00  0.00    +0.000 A 
ATOM     30  C   UNL     1     -14.197  18.356  28.089  0.00  0.00    +0.000 A 
ENDBRANCH  21  25
ENDBRANCH   6  21
TORSDOF 6
ENDMDL
MODEL 5
REMARK VINA RESULT:      -5.3     15.605     17.850
REMARK  Name = 10288191_Binimetinib.pdbqt.pdb
REMARK  6 active torsions:
REMARK  status: ('A' for Active; 'I' for Inactive)
REMARK    1  A    between atoms: C_6  and  N_21
REMARK    2  A    between atoms: C_7  and  C_14
REMARK    3  A    between atoms: N_13  and  O_16
REMARK    4  A    between atoms: O_16  and  C_17
REMARK    5  A    between atoms: C_18  and  O_19
REMARK    6  A    between atoms: N_21  and  C_25
REMARK                            x       y       z     vdW  Elec       q    Type
REMARK                         _______ _______ _______ _____ _____    ______ ____
ROOT
ATOM      1  F   UNL     1      -3.301  15.370   5.939  0.00  0.00    +0.000 F 
ATOM      2  N   UNL     1      -4.956  16.944   2.038  0.00  0.00    +0.000 N 
ATOM      3  N   UNL     1      -4.304  15.169   3.176  0.00  0.00    +0.000 NA
ATOM      4  C   UNL     1      -4.596  17.435   3.260  0.00  0.00    +0.000 A 
ATOM      5  C   UNL     1      -4.193  16.303   3.961  0.00  0.00    +0.000 A 
ATOM      6  C   UNL     1      -3.718  17.727   5.907  0.00  0.00    +0.000 A 
ATOM      7  C   UNL     1      -4.125  18.852   5.143  0.00  0.00    +0.000 A 
ATOM      8  C   UNL     1      -4.567  18.716   3.814  0.00  0.00    +0.000 A 
ATOM      9  C   UNL     1      -3.751  16.455   5.289  0.00  0.00    +0.000 A 
ATOM     10  C   UNL     1      -4.771  15.595   2.018  0.00  0.00    +0.000 A 
ATOM     11  C   UNL     1      -5.467  17.715   0.953  0.00  0.00    +0.000 C 
ENDROOT
BRANCH   7  14
ATOM     12  O   UNL     1      -3.103  20.582   6.379  0.00  0.00    +0.000 OA
ATOM     13  N   UNL     1      -5.150  21.056   5.435  0.00  0.00    +0.000 N 
ATOM     14  C   UNL     1      -4.073  20.238   5.710  0.00  0.00    +0.000 C 
ATOM     15  H   UNL     1      -6.064  20.681   5.213  0.00  0.00    +0.000 HD
BRANCH  13  16
ATOM     16  O   UNL     1      -5.186  22.232   6.216  0.00  0.00    +0.000 OA
BRANCH  16  17
ATOM     17  C   UNL     1      -6.460  22.416   6.555  0.00  0.00    +0.000 C 
ATOM     18  C   UNL     1      -7.931  22.621   6.934  0.00  0.00    +0.000 C 
BRANCH  18  19
ATOM     19  O   UNL     1      -9.208  22.793   7.257  0.00  0.00    +0.000 OA
ATOM     20  H   UNL     1      -9.767  22.182   6.748  0.00  0.00    +0.000 HD
ENDBRANCH  18  19
ENDBRANCH  16  17
ENDBRANCH  13  16
ENDBRANCH   7  14
BRANCH   6  21
ATOM     21  N   UNL     1      -3.319  17.884   7.260  0.00  0.00    +0.000 N 
ATOM     22  H   UNL     1      -2.810  18.765   7.433  0.00  0.00    +0.000 HD
BRANCH  21  25
ATOM     23 BR   UNL     1      -5.565  15.739  12.508  0.00  0.00    +0.000 Br
ATOM     24  F   UNL     1      -5.581  18.942   8.430  0.00  0.00    +0.000 F 
ATOM     25  C   UNL     1      -3.834  17.338   8.454  0.00  0.00    +0.000 A 
ATOM     26  C   UNL     1      -4.972  17.914   9.043  0.00  0.00    +0.000 A 
ATOM     27  C   UNL     1      -3.222  16.284   9.135  0.00  0.00    +0.000 A 
ATOM     28  C   UNL     1      -5.498  17.448  10.244  0.00  0.00    +0.000 A 
ATOM     29  C   UNL     1      -3.734  15.802  10.340  0.00  0.00    +0.000 A 
ATOM     30  C   UNL     1      -4.870  16.389  10.884  0.00  0.00    +0.000 A 
ENDBRANCH  21  25
ENDBRANCH   6  21
TORSDOF 6
ENDMDL
MODEL 6
REMARK VINA RESULT:      -5.2     19.338     22.114
REMARK  Name = 10288191_Binimetinib.pdbqt.pdb
REMARK  6 active torsions:
REMARK  status: ('A' for Active; 'I' for Inactive)
REMARK    1  A    between atoms: C_6  and  N_21
REMARK    2  A    between atoms: C_7  and  C_14
REMARK    3  A    between atoms: N_13  and  O_16
REMARK    4  A    between atoms: O_16  and  C_17
REMARK    5  A    between atoms: C_18  and  O_19
REMARK    6  A    between atoms: N_21  and  C_25
REMARK                            x       y       z     vdW  Elec       q    Type
REMARK                         _______ _______ _______ _____ _____    ______ ____
ROOT
ATOM      1  F   UNL     1     -24.232   4.930  17.632  0.00  0.00    +0.000 F 
ATOM      2  N   UNL     1     -21.659   8.505  16.617  0.00  0.00    +0.000 N 
ATOM      3  N   UNL     1     -23.633   7.541  16.407  0.00  0.00    +0.000 NA
ATOM      4  C   UNL     1     -21.553   7.349  17.336  0.00  0.00    +0.000 A 
ATOM      5  C   UNL     1     -22.806   6.760  17.194  0.00  0.00    +0.000 A 
ATOM      6  C   UNL     1     -22.042   4.892  18.596  0.00  0.00    +0.000 A 
ATOM      7  C   UNL     1     -20.776   5.527  18.697  0.00  0.00    +0.000 A 
ATOM      8  C   UNL     1     -20.521   6.760  18.068  0.00  0.00    +0.000 A 
ATOM      9  C   UNL     1     -23.046   5.525  17.826  0.00  0.00    +0.000 A 
ATOM     10  C   UNL     1     -22.906   8.591  16.077  0.00  0.00    +0.000 A 
ATOM     11  C   UNL     1     -20.635   9.485  16.468  0.00  0.00    +0.000 C 
ENDROOT
BRANCH   7  14
ATOM     12  O   UNL     1     -18.926   4.075  18.891  0.00  0.00    +0.000 OA
ATOM     13  N   UNL     1     -19.489   5.291  20.766  0.00  0.00    +0.000 N 
ATOM     14  C   UNL     1     -19.647   4.897  19.453  0.00  0.00    +0.000 C 
ATOM     15  H   UNL     1     -20.259   5.663  21.308  0.00  0.00    +0.000 HD
BRANCH  13  16
ATOM     16  O   UNL     1     -18.608   4.471  21.505  0.00  0.00    +0.000 OA
BRANCH  16  17
ATOM     17  C   UNL     1     -18.494   5.035  22.706  0.00  0.00    +0.000 C 
ATOM     18  C   UNL     1     -18.373   5.691  24.085  0.00  0.00    +0.000 C 
BRANCH  18  19
ATOM     19  O   UNL     1     -18.276   6.264  25.280  0.00  0.00    +0.000 OA
ATOM     20  H   UNL     1     -17.871   5.648  25.915  0.00  0.00    +0.000 HD
ENDBRANCH  18  19
ENDBRANCH  16  17
ENDBRANCH  13  16
ENDBRANCH   7  14
BRANCH   6  21
ATOM     21  N   UNL     1     -22.288   3.671  19.276  0.00  0.00    +0.000 N 
ATOM     22  H   UNL     1     -22.806   3.796  20.160  0.00  0.00    +0.000 HD
BRANCH  21  25
ATOM     23 BR   UNL     1     -22.781  -2.123  17.441  0.00  0.00    +0.000 Br
ATOM     24  F   UNL     1     -24.719   2.374  19.146  0.00  0.00    +0.000 F 
ATOM     25  C   UNL     1     -22.371   2.343  18.809  0.00  0.00    +0.000 A 
ATOM     26  C   UNL     1     -23.618   1.697  18.779  0.00  0.00    +0.000 A 
ATOM     27  C   UNL     1     -21.251   1.595  18.439  0.00  0.00    +0.000 A 
ATOM     28  C   UNL     1     -23.755   0.374  18.373  0.00  0.00    +0.000 A 
ATOM     29  C   UNL     1     -21.368   0.267  18.028  0.00  0.00    +0.000 A 
ATOM     30  C   UNL     1     -22.621  -0.332  17.998  0.00  0.00    +0.000 A 
ENDBRANCH  21  25
ENDBRANCH   6  21
TORSDOF 6
ENDMDL
MODEL 7
REMARK VINA RESULT:      -5.2     10.812     12.581
REMARK  Name = 10288191_Binimetinib.pdbqt.pdb
REMARK  6 active torsions:
REMARK  status: ('A' for Active; 'I' for Inactive)
REMARK    1  A    between atoms: C_6  and  N_21
REMARK    2  A    between atoms: C_7  and  C_14
REMARK    3  A    between atoms: N_13  and  O_16
REMARK    4  A    between atoms: O_16  and  C_17
REMARK    5  A    between atoms: C_18  and  O_19
REMARK    6  A    between atoms: N_21  and  C_25
REMARK                            x       y       z     vdW  Elec       q    Type
REMARK                         _______ _______ _______ _____ _____    ______ ____
ROOT
ATOM      1  F   UNL     1      -7.987   0.947  -0.573  0.00  0.00    +0.000 F 
ATOM      2  N   UNL     1     -12.320   2.018  -1.292  0.00  0.00    +0.000 N 
ATOM      3  N   UNL     1     -10.264   2.033  -2.094  0.00  0.00    +0.000 NA
ATOM      4  C   UNL     1     -11.571   1.414  -0.324  0.00  0.00    +0.000 A 
ATOM      5  C   UNL     1     -10.282   1.430  -0.850  0.00  0.00    +0.000 A 
ATOM      6  C   UNL     1      -9.483   0.296   1.179  0.00  0.00    +0.000 A 
ATOM      7  C   UNL     1     -10.813   0.319   1.677  0.00  0.00    +0.000 A 
ATOM      8  C   UNL     1     -11.867   0.877   0.931  0.00  0.00    +0.000 A 
ATOM      9  C   UNL     1      -9.237   0.870  -0.090  0.00  0.00    +0.000 A 
ATOM     10  C   UNL     1     -11.516   2.375  -2.332  0.00  0.00    +0.000 A 
ATOM     11  C   UNL     1     -13.729   2.228  -1.240  0.00  0.00    +0.000 C 
ENDROOT
BRANCH   7  14
ATOM     12  O   UNL     1     -10.820   0.407   4.035  0.00  0.00    +0.000 OA
ATOM     13  N   UNL     1     -11.813  -1.432   3.065  0.00  0.00    +0.000 N 
ATOM     14  C   UNL     1     -11.146  -0.224   3.033  0.00  0.00    +0.000 C 
ATOM     15  H   UNL     1     -11.756  -2.095   2.302  0.00  0.00    +0.000 HD
BRANCH  13  16
ATOM     16  O   UNL     1     -11.848  -2.029   4.344  0.00  0.00    +0.000 OA
BRANCH  16  17
ATOM     17  C   UNL     1     -12.908  -2.834   4.351  0.00  0.00    +0.000 C 
ATOM     18  C   UNL     1     -14.124  -3.767   4.348  0.00  0.00    +0.000 C 
BRANCH  18  19
ATOM     19  O   UNL     1     -15.174  -4.581   4.340  0.00  0.00    +0.000 OA
ATOM     20  H   UNL     1     -14.890  -5.493   4.156  0.00  0.00    +0.000 HD
ENDBRANCH  18  19
ENDBRANCH  16  17
ENDBRANCH  13  16
ENDBRANCH   7  14
BRANCH   6  21
ATOM     21  N   UNL     1      -8.446  -0.313   1.931  0.00  0.00    +0.000 N 
ATOM     22  H   UNL     1      -8.563  -1.333   2.033  0.00  0.00    +0.000 HD
BRANCH  21  25
ATOM     23 BR   UNL     1      -2.755   1.627   2.949  0.00  0.00    +0.000 Br
ATOM     24  F   UNL     1      -7.901   1.859   3.541  0.00  0.00    +0.000 F 
ATOM     25  C   UNL     1      -7.115   0.084   2.178  0.00  0.00    +0.000 A 
ATOM     26  C   UNL     1      -6.868   1.211   2.979  0.00  0.00    +0.000 A 
ATOM     27  C   UNL     1      -6.012  -0.546   1.597  0.00  0.00    +0.000 A 
ATOM     28  C   UNL     1      -5.580   1.678   3.219  0.00  0.00    +0.000 A 
ATOM     29  C   UNL     1      -4.713  -0.094   1.826  0.00  0.00    +0.000 A 
ATOM     30  C   UNL     1      -4.508   1.016   2.637  0.00  0.00    +0.000 A 
ENDBRANCH  21  25
ENDBRANCH   6  21
TORSDOF 6
ENDMDL
MODEL 8
REMARK VINA RESULT:      -5.1     19.906     22.383
REMARK  Name = 10288191_Binimetinib.pdbqt.pdb
REMARK  6 active torsions:
REMARK  status: ('A' for Active; 'I' for Inactive)
REMARK    1  A    between atoms: C_6  and  N_21
REMARK    2  A    between atoms: C_7  and  C_14
REMARK    3  A    between atoms: N_13  and  O_16
REMARK    4  A    between atoms: O_16  and  C_17
REMARK    5  A    between atoms: C_18  and  O_19
REMARK    6  A    between atoms: N_21  and  C_25
REMARK                            x       y       z     vdW  Elec       q    Type
REMARK                         _______ _______ _______ _____ _____    ______ ____
ROOT
ATOM      1  F   UNL     1     -20.097   4.951  21.579  0.00  0.00    +0.000 F 
ATOM      2  N   UNL     1     -21.783   1.287  23.621  0.00  0.00    +0.000 N 
ATOM      3  N   UNL     1     -20.869   3.279  23.879  0.00  0.00    +0.000 NA
ATOM      4  C   UNL     1     -21.602   1.746  22.348  0.00  0.00    +0.000 A 
ATOM      5  C   UNL     1     -21.030   3.002  22.533  0.00  0.00    +0.000 A 
ATOM      6  C   UNL     1     -20.962   3.286  20.093  0.00  0.00    +0.000 A 
ATOM      7  C   UNL     1     -21.533   1.993  19.959  0.00  0.00    +0.000 A 
ATOM      8  C   UNL     1     -21.857   1.212  21.084  0.00  0.00    +0.000 A 
ATOM      9  C   UNL     1     -20.708   3.770  21.398  0.00  0.00    +0.000 A 
ATOM     10  C   UNL     1     -21.338   2.219  24.509  0.00  0.00    +0.000 A 
ATOM     11  C   UNL     1     -22.366   0.035  23.974  0.00  0.00    +0.000 C 
ENDROOT
BRANCH   7  14
ATOM     12  O   UNL     1     -20.857   0.879  17.991  0.00  0.00    +0.000 OA
ATOM     13  N   UNL     1     -23.083   1.452  18.143  0.00  0.00    +0.000 N 
ATOM     14  C   UNL     1     -21.786   1.390  18.611  0.00  0.00    +0.000 C 
ATOM     15  H   UNL     1     -23.734   2.157  18.465  0.00  0.00    +0.000 HD
BRANCH  13  16
ATOM     16  O   UNL     1     -23.210   1.134  16.773  0.00  0.00    +0.000 OA
BRANCH  16  17
ATOM     17  C   UNL     1     -23.217   2.294  16.120  0.00  0.00    +0.000 C 
ATOM     18  C   UNL     1     -23.236   3.633  15.374  0.00  0.00    +0.000 C 
BRANCH  18  19
ATOM     19  O   UNL     1     -23.260   4.795  14.731  0.00  0.00    +0.000 OA
ATOM     20  H   UNL     1     -22.371   5.016  14.406  0.00  0.00    +0.000 HD
ENDBRANCH  18  19
ENDBRANCH  16  17
ENDBRANCH  13  16
ENDBRANCH   7  14
BRANCH   6  21
ATOM     21  N   UNL     1     -20.686   4.071  18.944  0.00  0.00    +0.000 N 
ATOM     22  H   UNL     1     -20.335   3.516  18.147  0.00  0.00    +0.000 HD
BRANCH  21  25
ATOM     23 BR   UNL     1     -23.010   9.360  16.992  0.00  0.00    +0.000 Br
ATOM     24  F   UNL     1     -23.403   4.527  18.829  0.00  0.00    +0.000 F 
ATOM     25  C   UNL     1     -21.189   5.320  18.525  0.00  0.00    +0.000 A 
ATOM     26  C   UNL     1     -22.578   5.516  18.450  0.00  0.00    +0.000 A 
ATOM     27  C   UNL     1     -20.369   6.368  18.101  0.00  0.00    +0.000 A 
ATOM     28  C   UNL     1     -23.132   6.710  18.000  0.00  0.00    +0.000 A 
ATOM     29  C   UNL     1     -20.905   7.573  17.648  0.00  0.00    +0.000 A 
ATOM     30  C   UNL     1     -22.284   7.734  17.602  0.00  0.00    +0.000 A 
ENDBRANCH  21  25
ENDBRANCH   6  21
TORSDOF 6
ENDMDL
MODEL 9
REMARK VINA RESULT:      -5.1     16.981     18.999
REMARK  Name = 10288191_Binimetinib.pdbqt.pdb
REMARK  6 active torsions:
REMARK  status: ('A' for Active; 'I' for Inactive)
REMARK    1  A    between atoms: C_6  and  N_21
REMARK    2  A    between atoms: C_7  and  C_14
REMARK    3  A    between atoms: N_13  and  O_16
REMARK    4  A    between atoms: O_16  and  C_17
REMARK    5  A    between atoms: C_18  and  O_19
REMARK    6  A    between atoms: N_21  and  C_25
REMARK                            x       y       z     vdW  Elec       q    Type
REMARK                         _______ _______ _______ _____ _____    ______ ____
ROOT
ATOM      1  F   UNL     1      -6.436  20.852   8.853  0.00  0.00    +0.000 F 
ATOM      2  N   UNL     1      -6.718  21.128   4.350  0.00  0.00    +0.000 N 
ATOM      3  N   UNL     1      -7.535  21.796   6.288  0.00  0.00    +0.000 NA
ATOM      4  C   UNL     1      -5.939  20.505   5.282  0.00  0.00    +0.000 A 
ATOM      5  C   UNL     1      -6.467  20.942   6.493  0.00  0.00    +0.000 A 
ATOM      6  C   UNL     1      -4.778  19.596   7.668  0.00  0.00    +0.000 A 
ATOM      7  C   UNL     1      -4.288  19.169   6.406  0.00  0.00    +0.000 A 
ATOM      8  C   UNL     1      -4.862  19.619   5.203  0.00  0.00    +0.000 A 
ATOM      9  C   UNL     1      -5.882  20.480   7.688  0.00  0.00    +0.000 A 
ATOM     10  C   UNL     1      -7.658  21.888   4.977  0.00  0.00    +0.000 A 
ATOM     11  C   UNL     1      -6.565  21.020   2.937  0.00  0.00    +0.000 C 
ENDROOT
BRANCH   7  14
ATOM     12  O   UNL     1      -1.998  18.597   6.408  0.00  0.00    +0.000 OA
ATOM     13  N   UNL     1      -3.494  16.875   6.083  0.00  0.00    +0.000 N 
ATOM     14  C   UNL     1      -3.154  18.195   6.301  0.00  0.00    +0.000 C 
ATOM     15  H   UNL     1      -4.371  16.613   5.650  0.00  0.00    +0.000 HD
BRANCH  13  16
ATOM     16  O   UNL     1      -2.403  16.059   5.712  0.00  0.00    +0.000 OA
BRANCH  16  17
ATOM     17  C   UNL     1      -2.703  15.556   4.517  0.00  0.00    +0.000 C 
ATOM     18  C   UNL     1      -3.061  14.983   3.141  0.00  0.00    +0.000 C 
BRANCH  18  19
ATOM     19  O   UNL     1      -3.378  14.492   1.949  0.00  0.00    +0.000 OA
ATOM     20  H   UNL     1      -3.683  15.205   1.362  0.00  0.00    +0.000 HD
ENDBRANCH  18  19
ENDBRANCH  16  17
ENDBRANCH  13  16
ENDBRANCH   7  14
BRANCH   6  21
ATOM     21  N   UNL     1      -4.152  19.163   8.865  0.00  0.00    +0.000 N 
ATOM     22  H   UNL     1      -3.640  19.916   9.351  0.00  0.00    +0.000 HD
BRANCH  21  25
ATOM     23 BR   UNL     1      -5.311  14.360  12.440  0.00  0.00    +0.000 Br
ATOM     24  F   UNL     1      -2.319  17.137   9.242  0.00  0.00    +0.000 F 
ATOM     25  C   UNL     1      -4.438  18.087   9.731  0.00  0.00    +0.000 A 
ATOM     26  C   UNL     1      -3.497  17.054   9.883  0.00  0.00    +0.000 A 
ATOM     27  C   UNL     1      -5.656  17.949  10.399  0.00  0.00    +0.000 A 
ATOM     28  C   UNL     1      -3.741  15.945  10.685  0.00  0.00    +0.000 A 
ATOM     29  C   UNL     1      -5.920  16.844  11.209  0.00  0.00    +0.000 A 
ATOM     30  C   UNL     1      -4.958  15.851  11.346  0.00  0.00    +0.000 A 
ENDBRANCH  21  25
ENDBRANCH   6  21
TORSDOF 6
ENDMDL
