MODEL 1
REMARK VINA RESULT:      -4.9      0.000      0.000
REMARK  Name = 10281_Thymoquinone.pdbqt.pdb
REMARK  1 active torsions:
REMARK  status: ('A' for Active; 'I' for Inactive)
REMARK    1  A    between atoms: C_3  and  C_10
REMARK                            x       y       z     vdW  Elec       q    Type
REMARK                         _______ _______ _______ _____ _____    ______ ____
ROOT
ATOM      1  O   UNL     1     -14.971   8.464  -4.060  0.00  0.00    +0.000 OA
ATOM      2  O   UNL     1     -15.246   9.690   1.171  0.00  0.00    +0.000 OA
ATOM      3  C   UNL     1     -15.321   7.648  -1.810  0.00  0.00    +0.000 C 
ATOM      4  C   UNL     1     -15.045   8.679  -2.867  0.00  0.00    +0.000 C 
ATOM      5  C   UNL     1     -15.339   8.188  -0.617  0.00  0.00    +0.000 C 
ATOM      6  C   UNL     1     -14.883  10.557  -1.120  0.00  0.00    +0.000 C 
ATOM      7  C   UNL     1     -15.163   9.518  -0.030  0.00  0.00    +0.000 C 
ATOM      8  C   UNL     1     -14.868  10.013  -2.306  0.00  0.00    +0.000 C 
ATOM      9  C   UNL     1     -14.653  12.019  -0.909  0.00  0.00    +0.000 C 
ENDROOT
BRANCH   3  10
ATOM     10  C   UNL     1     -15.521   6.282  -2.163  0.00  0.00    +0.000 C 
ATOM     11  C   UNL     1     -14.351   5.332  -2.244  0.00  0.00    +0.000 C 
ATOM     12  C   UNL     1     -16.887   5.652  -2.051  0.00  0.00    +0.000 C 
ENDBRANCH   3  10
TORSDOF 1
ENDMDL
MODEL 2
REMARK VINA RESULT:      -4.4      2.303      4.091
REMARK  Name = 10281_Thymoquinone.pdbqt.pdb
REMARK  1 active torsions:
REMARK  status: ('A' for Active; 'I' for Inactive)
REMARK    1  A    between atoms: C_3  and  C_10
REMARK                            x       y       z     vdW  Elec       q    Type
REMARK                         _______ _______ _______ _____ _____    ______ ____
ROOT
ATOM      1  O   UNL     1     -14.917   8.086  -4.385  0.00  0.00    +0.000 OA
ATOM      2  O   UNL     1     -14.867  12.106  -0.810  0.00  0.00    +0.000 OA
ATOM      3  C   UNL     1     -14.750  10.473  -4.032  0.00  0.00    +0.000 C 
ATOM      4  C   UNL     1     -14.899   9.035  -3.627  0.00  0.00    +0.000 C 
ATOM      5  C   UNL     1     -14.767  11.262  -2.987  0.00  0.00    +0.000 C 
ATOM      6  C   UNL     1     -15.041   9.658  -1.137  0.00  0.00    +0.000 C 
ATOM      7  C   UNL     1     -14.891  11.129  -1.534  0.00  0.00    +0.000 C 
ATOM      8  C   UNL     1     -15.023   8.877  -2.182  0.00  0.00    +0.000 C 
ATOM      9  C   UNL     1     -15.190   9.128   0.252  0.00  0.00    +0.000 C 
ENDROOT
BRANCH   3  10
ATOM     10  C   UNL     1     -14.618  10.830  -5.406  0.00  0.00    +0.000 C 
ATOM     11  C   UNL     1     -15.717  11.588  -6.110  0.00  0.00    +0.000 C 
ATOM     12  C   UNL     1     -13.261  10.851  -6.066  0.00  0.00    +0.000 C 
ENDBRANCH   3  10
TORSDOF 1
ENDMDL
MODEL 3
REMARK VINA RESULT:      -4.4      1.830      2.500
REMARK  Name = 10281_Thymoquinone.pdbqt.pdb
REMARK  1 active torsions:
REMARK  status: ('A' for Active; 'I' for Inactive)
REMARK    1  A    between atoms: C_3  and  C_10
REMARK                            x       y       z     vdW  Elec       q    Type
REMARK                         _______ _______ _______ _____ _____    ______ ____
ROOT
ATOM      1  O   UNL     1     -15.053   6.449  -2.525  0.00  0.00    +0.000 OA
ATOM      2  O   UNL     1     -17.543   8.718   1.670  0.00  0.00    +0.000 OA
ATOM      3  C   UNL     1     -16.932   6.364  -1.004  0.00  0.00    +0.000 C 
ATOM      4  C   UNL     1     -15.661   6.915  -1.581  0.00  0.00    +0.000 C 
ATOM      5  C   UNL     1     -17.343   7.087   0.008  0.00  0.00    +0.000 C 
ATOM      6  C   UNL     1     -15.609   8.833   0.129  0.00  0.00    +0.000 C 
ATOM      7  C   UNL     1     -16.905   8.283   0.730  0.00  0.00    +0.000 C 
ATOM      8  C   UNL     1     -15.205   8.108  -0.879  0.00  0.00    +0.000 C 
ATOM      9  C   UNL     1     -14.861  10.041   0.594  0.00  0.00    +0.000 C 
ENDROOT
BRANCH   3  10
ATOM     10  C   UNL     1     -17.534   5.195  -1.555  0.00  0.00    +0.000 C 
ATOM     11  C   UNL     1     -17.752   3.969  -0.702  0.00  0.00    +0.000 C 
ATOM     12  C   UNL     1     -18.336   5.274  -2.830  0.00  0.00    +0.000 C 
ENDBRANCH   3  10
TORSDOF 1
ENDMDL
MODEL 4
REMARK VINA RESULT:      -4.3     14.139     14.868
REMARK  Name = 10281_Thymoquinone.pdbqt.pdb
REMARK  1 active torsions:
REMARK  status: ('A' for Active; 'I' for Inactive)
REMARK    1  A    between atoms: C_3  and  C_10
REMARK                            x       y       z     vdW  Elec       q    Type
REMARK                         _______ _______ _______ _____ _____    ______ ____
ROOT
ATOM      1  O   UNL     1       1.078   6.042   0.939  0.00  0.00    +0.000 OA
ATOM      2  O   UNL     1      -4.070   7.415   1.685  0.00  0.00    +0.000 OA
ATOM      3  C   UNL     1      -0.745   6.265   2.513  0.00  0.00    +0.000 C 
ATOM      4  C   UNL     1      -0.077   6.337   1.170  0.00  0.00    +0.000 C 
ATOM      5  C   UNL     1      -1.995   6.650   2.440  0.00  0.00    +0.000 C 
ATOM      6  C   UNL     1      -2.225   7.197   0.048  0.00  0.00    +0.000 C 
ATOM      7  C   UNL     1      -2.920   7.130   1.411  0.00  0.00    +0.000 C 
ATOM      8  C   UNL     1      -0.980   6.812   0.128  0.00  0.00    +0.000 C 
ATOM      9  C   UNL     1      -2.843   7.636  -1.239  0.00  0.00    +0.000 C 
ENDROOT
BRANCH   3  10
ATOM     10  C   UNL     1      -0.023   5.825   3.660  0.00  0.00    +0.000 C 
ATOM     11  C   UNL     1       1.146   6.623   4.183  0.00  0.00    +0.000 C 
ATOM     12  C   UNL     1      -0.632   4.827   4.614  0.00  0.00    +0.000 C 
ENDBRANCH   3  10
TORSDOF 1
ENDMDL
MODEL 5
REMARK VINA RESULT:      -4.3     19.042     20.594
REMARK  Name = 10281_Thymoquinone.pdbqt.pdb
REMARK  1 active torsions:
REMARK  status: ('A' for Active; 'I' for Inactive)
REMARK    1  A    between atoms: C_3  and  C_10
REMARK                            x       y       z     vdW  Elec       q    Type
REMARK                         _______ _______ _______ _____ _____    ______ ____
ROOT
ATOM      1  O   UNL     1     -10.203   7.412  17.312  0.00  0.00    +0.000 OA
ATOM      2  O   UNL     1     -11.775   2.865  19.721  0.00  0.00    +0.000 OA
ATOM      3  C   UNL     1     -10.313   4.998  17.196  0.00  0.00    +0.000 C 
ATOM      4  C   UNL     1     -10.535   6.352  17.806  0.00  0.00    +0.000 C 
ATOM      5  C   UNL     1     -10.781   4.050  17.969  0.00  0.00    +0.000 C 
ATOM      6  C   UNL     1     -11.679   5.334  19.870  0.00  0.00    +0.000 C 
ATOM      7  C   UNL     1     -11.460   3.946  19.262  0.00  0.00    +0.000 C 
ATOM      8  C   UNL     1     -11.211   6.274  19.095  0.00  0.00    +0.000 C 
ATOM      9  C   UNL     1     -12.339   5.633  21.177  0.00  0.00    +0.000 C 
ENDROOT
BRANCH   3  10
ATOM     10  C   UNL     1      -9.663   4.867  15.934  0.00  0.00    +0.000 C 
ATOM     11  C   UNL     1     -10.419   5.114  14.651  0.00  0.00    +0.000 C 
ATOM     12  C   UNL     1      -8.157   4.901  15.840  0.00  0.00    +0.000 C 
ENDBRANCH   3  10
TORSDOF 1
ENDMDL
MODEL 6
REMARK VINA RESULT:      -4.2     18.363     19.682
REMARK  Name = 10281_Thymoquinone.pdbqt.pdb
REMARK  1 active torsions:
REMARK  status: ('A' for Active; 'I' for Inactive)
REMARK    1  A    between atoms: C_3  and  C_10
REMARK                            x       y       z     vdW  Elec       q    Type
REMARK                         _______ _______ _______ _____ _____    ______ ____
ROOT
ATOM      1  O   UNL     1      -6.183   5.541  17.654  0.00  0.00    +0.000 OA
ATOM      2  O   UNL     1     -10.778   4.915  14.926  0.00  0.00    +0.000 OA
ATOM      3  C   UNL     1      -7.234   4.769  15.616  0.00  0.00    +0.000 C 
ATOM      4  C   UNL     1      -7.187   5.374  16.989  0.00  0.00    +0.000 C 
ATOM      5  C   UNL     1      -8.461   4.723  15.162  0.00  0.00    +0.000 C 
ATOM      6  C   UNL     1      -9.734   5.716  17.023  0.00  0.00    +0.000 C 
ATOM      7  C   UNL     1      -9.799   5.099  15.623  0.00  0.00    +0.000 C 
ATOM      8  C   UNL     1      -8.509   5.758  17.470  0.00  0.00    +0.000 C 
ATOM      9  C   UNL     1     -10.892   6.221  17.821  0.00  0.00    +0.000 C 
ENDROOT
BRANCH   3  10
ATOM     10  C   UNL     1      -6.039   4.327  14.976  0.00  0.00    +0.000 C 
ATOM     11  C   UNL     1      -4.968   5.315  14.583  0.00  0.00    +0.000 C 
ATOM     12  C   UNL     1      -5.619   2.879  15.051  0.00  0.00    +0.000 C 
ENDBRANCH   3  10
TORSDOF 1
ENDMDL
MODEL 7
REMARK VINA RESULT:      -3.9     19.099     20.645
REMARK  Name = 10281_Thymoquinone.pdbqt.pdb
REMARK  1 active torsions:
REMARK  status: ('A' for Active; 'I' for Inactive)
REMARK    1  A    between atoms: C_3  and  C_10
REMARK                            x       y       z     vdW  Elec       q    Type
REMARK                         _______ _______ _______ _____ _____    ______ ____
ROOT
ATOM      1  O   UNL     1     -24.588   9.056  16.084  0.00  0.00    +0.000 OA
ATOM      2  O   UNL     1     -20.362   6.558  18.285  0.00  0.00    +0.000 OA
ATOM      3  C   UNL     1     -23.824   7.297  17.558  0.00  0.00    +0.000 C 
ATOM      4  C   UNL     1     -23.675   8.453  16.612  0.00  0.00    +0.000 C 
ATOM      5  C   UNL     1     -22.656   6.860  17.958  0.00  0.00    +0.000 C 
ATOM      6  C   UNL     1     -21.111   8.368  16.771  0.00  0.00    +0.000 C 
ATOM      7  C   UNL     1     -21.246   7.187  17.736  0.00  0.00    +0.000 C 
ATOM      8  C   UNL     1     -22.278   8.799  16.377  0.00  0.00    +0.000 C 
ATOM      9  C   UNL     1     -19.833   8.989  16.307  0.00  0.00    +0.000 C 
ENDROOT
BRANCH   3  10
ATOM     10  C   UNL     1     -25.116   6.809  17.910  0.00  0.00    +0.000 C 
ATOM     11  C   UNL     1     -26.008   7.597  18.839  0.00  0.00    +0.000 C 
ATOM     12  C   UNL     1     -25.792   5.752  17.071  0.00  0.00    +0.000 C 
ENDBRANCH   3  10
TORSDOF 1
ENDMDL
MODEL 8
REMARK VINA RESULT:      -3.7      2.128      4.981
REMARK  Name = 10281_Thymoquinone.pdbqt.pdb
REMARK  1 active torsions:
REMARK  status: ('A' for Active; 'I' for Inactive)
REMARK    1  A    between atoms: C_3  and  C_10
REMARK                            x       y       z     vdW  Elec       q    Type
REMARK                         _______ _______ _______ _____ _____    ______ ____
ROOT
ATOM      1  O   UNL     1     -17.679   7.210  -2.633  0.00  0.00    +0.000 OA
ATOM      2  O   UNL     1     -13.300   4.194  -1.815  0.00  0.00    +0.000 OA
ATOM      3  C   UNL     1     -15.392   7.140  -1.848  0.00  0.00    +0.000 C 
ATOM      4  C   UNL     1     -16.660   6.581  -2.425  0.00  0.00    +0.000 C 
ATOM      5  C   UNL     1     -14.471   6.214  -1.745  0.00  0.00    +0.000 C 
ATOM      6  C   UNL     1     -15.638   4.231  -2.627  0.00  0.00    +0.000 C 
ATOM      7  C   UNL     1     -14.338   4.786  -2.038  0.00  0.00    +0.000 C 
ATOM      8  C   UNL     1     -16.551   5.159  -2.727  0.00  0.00    +0.000 C 
ATOM      9  C   UNL     1     -15.885   2.820  -3.052  0.00  0.00    +0.000 C 
ENDROOT
BRANCH   3  10
ATOM     10  C   UNL     1     -15.304   8.516  -1.485  0.00  0.00    +0.000 C 
ATOM     11  C   UNL     1     -15.152   8.920  -0.039  0.00  0.00    +0.000 C 
ATOM     12  C   UNL     1     -14.938   9.558  -2.513  0.00  0.00    +0.000 C 
ENDBRANCH   3  10
TORSDOF 1
ENDMDL
MODEL 9
REMARK VINA RESULT:      -3.6     13.303     14.912
REMARK  Name = 10281_Thymoquinone.pdbqt.pdb
REMARK  1 active torsions:
REMARK  status: ('A' for Active; 'I' for Inactive)
REMARK    1  A    between atoms: C_3  and  C_10
REMARK                            x       y       z     vdW  Elec       q    Type
REMARK                         _______ _______ _______ _____ _____    ______ ____
ROOT
ATOM      1  O   UNL     1      -0.445   2.787   3.408  0.00  0.00    +0.000 OA
ATOM      2  O   UNL     1      -5.567   2.451   1.796  0.00  0.00    +0.000 OA
ATOM      3  C   UNL     1      -2.320   3.924   2.386  0.00  0.00    +0.000 C 
ATOM      4  C   UNL     1      -1.598   2.773   3.025  0.00  0.00    +0.000 C 
ATOM      5  C   UNL     1      -3.551   3.599   2.082  0.00  0.00    +0.000 C 
ATOM      6  C   UNL     1      -3.668   1.259   2.846  0.00  0.00    +0.000 C 
ATOM      7  C   UNL     1      -4.418   2.423   2.193  0.00  0.00    +0.000 C 
ATOM      8  C   UNL     1      -2.442   1.590   3.147  0.00  0.00    +0.000 C 
ATOM      9  C   UNL     1      -4.220  -0.100   3.130  0.00  0.00    +0.000 C 
ENDROOT
BRANCH   3  10
ATOM     10  C   UNL     1      -1.659   5.169   2.177  0.00  0.00    +0.000 C 
ATOM     11  C   UNL     1      -1.527   6.167   3.302  0.00  0.00    +0.000 C 
ATOM     12  C   UNL     1      -0.727   5.356   1.004  0.00  0.00    +0.000 C 
ENDBRANCH   3  10
TORSDOF 1
ENDMDL
