MODEL 1
REMARK VINA RESULT:      -6.7      0.000      0.000
REMARK  Name = 10639_Physcion.pdbqt.pdb
REMARK  3 active torsions:
REMARK  status: ('A' for Active; 'I' for Inactive)
REMARK    1  A    between atoms: C_10  and  O_18
REMARK    2  A    between atoms: C_12  and  O_20
REMARK    3  A    between atoms: C_15  and  O_22
REMARK                            x       y       z     vdW  Elec       q    Type
REMARK                         _______ _______ _______ _____ _____    ______ ____
ROOT
ATOM      1  O   UNL     1     -14.417   9.488  -4.664  0.00  0.00    +0.000 OA
ATOM      2  O   UNL     1     -14.539  13.393  -1.043  0.00  0.00    +0.000 OA
ATOM      3  C   UNL     1     -14.849  11.126  -1.520  0.00  0.00    +0.000 A 
ATOM      4  C   UNL     1     -14.815  10.112  -2.473  0.00  0.00    +0.000 A 
ATOM      5  C   UNL     1     -14.082  11.813  -4.247  0.00  0.00    +0.000 A 
ATOM      6  C   UNL     1     -14.125  12.810  -3.271  0.00  0.00    +0.000 A 
ATOM      7  C   UNL     1     -14.431  10.419  -3.868  0.00  0.00    +0.000 C 
ATOM      8  C   UNL     1     -14.507  12.506  -1.884  0.00  0.00    +0.000 C 
ATOM      9  C   UNL     1     -15.210  10.854  -0.199  0.00  0.00    +0.000 A 
ATOM     10  C   UNL     1     -15.150   8.808  -2.082  0.00  0.00    +0.000 A 
ATOM     11  C   UNL     1     -15.539   9.555   0.173  0.00  0.00    +0.000 A 
ATOM     12  C   UNL     1     -13.710  12.176  -5.548  0.00  0.00    +0.000 A 
ATOM     13  C   UNL     1     -13.806  14.136  -3.580  0.00  0.00    +0.000 A 
ATOM     14  C   UNL     1     -15.511   8.528  -0.764  0.00  0.00    +0.000 A 
ATOM     15  C   UNL     1     -13.436  14.489  -4.874  0.00  0.00    +0.000 A 
ATOM     16  C   UNL     1     -13.391  13.500  -5.855  0.00  0.00    +0.000 A 
ATOM     17  C   UNL     1     -15.926   9.265   1.593  0.00  0.00    +0.000 C 
ENDROOT
BRANCH  10  18
ATOM     18  O   UNL     1     -15.145   7.745  -2.946  0.00  0.00    +0.000 OA
ATOM     19  H   UNL     1     -16.067   7.405  -3.037  0.00  0.00    +0.000 HD
ENDBRANCH  10  18
BRANCH  12  20
ATOM     20  O   UNL     1     -13.645  11.256  -6.554  0.00  0.00    +0.000 OA
ATOM     21  H   UNL     1     -13.987  10.399  -6.244  0.00  0.00    +0.000 HD
ENDBRANCH  12  20
BRANCH  15  22
ATOM     22  O   UNL     1     -13.143  15.815  -5.075  0.00  0.00    +0.000 OA
ATOM     23  C   UNL     1     -12.006  16.280  -4.398  0.00  0.00    +0.000 C 
ENDBRANCH  15  22
TORSDOF 3
ENDMDL
MODEL 2
REMARK VINA RESULT:      -6.0     13.536     14.587
REMARK  Name = 10639_Physcion.pdbqt.pdb
REMARK  3 active torsions:
REMARK  status: ('A' for Active; 'I' for Inactive)
REMARK    1  A    between atoms: C_10  and  O_18
REMARK    2  A    between atoms: C_12  and  O_20
REMARK    3  A    between atoms: C_15  and  O_22
REMARK                            x       y       z     vdW  Elec       q    Type
REMARK                         _______ _______ _______ _____ _____    ______ ____
ROOT
ATOM      1  O   UNL     1     -24.700  13.901   5.380  0.00  0.00    +0.000 OA
ATOM      2  O   UNL     1     -21.917  11.088   8.947  0.00  0.00    +0.000 OA
ATOM      3  C   UNL     1     -22.553  13.189   8.144  0.00  0.00    +0.000 A 
ATOM      4  C   UNL     1     -23.284  13.916   7.207  0.00  0.00    +0.000 A 
ATOM      5  C   UNL     1     -24.089  11.725   6.146  0.00  0.00    +0.000 A 
ATOM      6  C   UNL     1     -23.348  11.022   7.097  0.00  0.00    +0.000 A 
ATOM      7  C   UNL     1     -24.076  13.210   6.177  0.00  0.00    +0.000 C 
ATOM      8  C   UNL     1     -22.560  11.722   8.122  0.00  0.00    +0.000 C 
ATOM      9  C   UNL     1     -21.800  13.839   9.124  0.00  0.00    +0.000 A 
ATOM     10  C   UNL     1     -23.249  15.316   7.265  0.00  0.00    +0.000 A 
ATOM     11  C   UNL     1     -21.775  15.229   9.168  0.00  0.00    +0.000 A 
ATOM     12  C   UNL     1     -24.817  10.992   5.200  0.00  0.00    +0.000 A 
ATOM     13  C   UNL     1     -23.330   9.623   7.107  0.00  0.00    +0.000 A 
ATOM     14  C   UNL     1     -22.498  15.973   8.241  0.00  0.00    +0.000 A 
ATOM     15  C   UNL     1     -24.055   8.902   6.164  0.00  0.00    +0.000 A 
ATOM     16  C   UNL     1     -24.798   9.596   5.211  0.00  0.00    +0.000 A 
ATOM     17  C   UNL     1     -20.965  15.924  10.221  0.00  0.00    +0.000 C 
ENDROOT
BRANCH  10  18
ATOM     18  O   UNL     1     -23.932  16.117   6.390  0.00  0.00    +0.000 OA
ATOM     19  H   UNL     1     -23.467  16.983   6.320  0.00  0.00    +0.000 HD
ENDBRANCH  10  18
BRANCH  12  20
ATOM     20  O   UNL     1     -25.564  11.610   4.239  0.00  0.00    +0.000 OA
ATOM     21  H   UNL     1     -25.637  12.561   4.435  0.00  0.00    +0.000 HD
ENDBRANCH  12  20
BRANCH  15  22
ATOM     22  O   UNL     1     -23.972   7.535   6.259  0.00  0.00    +0.000 OA
ATOM     23  C   UNL     1     -24.878   6.828   5.458  0.00  0.00    +0.000 C 
ENDBRANCH  15  22
TORSDOF 3
ENDMDL
MODEL 3
REMARK VINA RESULT:      -5.5     13.353     14.795
REMARK  Name = 10639_Physcion.pdbqt.pdb
REMARK  3 active torsions:
REMARK  status: ('A' for Active; 'I' for Inactive)
REMARK    1  A    between atoms: C_10  and  O_18
REMARK    2  A    between atoms: C_12  and  O_20
REMARK    3  A    between atoms: C_15  and  O_22
REMARK                            x       y       z     vdW  Elec       q    Type
REMARK                         _______ _______ _______ _____ _____    ______ ____
ROOT
ATOM      1  O   UNL     1     -23.832  16.207   6.076  0.00  0.00    +0.000 OA
ATOM      2  O   UNL     1     -21.979  12.353   9.253  0.00  0.00    +0.000 OA
ATOM      3  C   UNL     1     -22.166  14.642   8.820  0.00  0.00    +0.000 A 
ATOM      4  C   UNL     1     -22.654  15.643   7.984  0.00  0.00    +0.000 A 
ATOM      5  C   UNL     1     -23.679  13.856   6.457  0.00  0.00    +0.000 A 
ATOM      6  C   UNL     1     -23.178  12.875   7.313  0.00  0.00    +0.000 A 
ATOM      7  C   UNL     1     -23.426  15.286   6.775  0.00  0.00    +0.000 C 
ATOM      8  C   UNL     1     -22.410  13.228   8.515  0.00  0.00    +0.000 C 
ATOM      9  C   UNL     1     -21.434  14.962   9.966  0.00  0.00    +0.000 A 
ATOM     10  C   UNL     1     -22.397  16.982   8.313  0.00  0.00    +0.000 A 
ATOM     11  C   UNL     1     -21.188  16.295  10.279  0.00  0.00    +0.000 A 
ATOM     12  C   UNL     1     -24.403  13.446   5.330  0.00  0.00    +0.000 A 
ATOM     13  C   UNL     1     -23.391  11.516   7.055  0.00  0.00    +0.000 A 
ATOM     14  C   UNL     1     -21.667  17.309   9.457  0.00  0.00    +0.000 A 
ATOM     15  C   UNL     1     -24.110  11.116   5.933  0.00  0.00    +0.000 A 
ATOM     16  C   UNL     1     -24.614  12.089   5.074  0.00  0.00    +0.000 A 
ATOM     17  C   UNL     1     -20.402  16.635  11.510  0.00  0.00    +0.000 C 
ENDROOT
BRANCH  10  18
ATOM     18  O   UNL     1     -22.834  18.034   7.555  0.00  0.00    +0.000 OA
ATOM     19  H   UNL     1     -22.135  18.729   7.540  0.00  0.00    +0.000 HD
ENDBRANCH  10  18
BRANCH  12  20
ATOM     20  O   UNL     1     -24.923  14.348   4.448  0.00  0.00    +0.000 OA
ATOM     21  H   UNL     1     -25.312  13.883   3.686  0.00  0.00    +0.000 HD
ENDBRANCH  12  20
BRANCH  15  22
ATOM     22  O   UNL     1     -24.263   9.762   5.770  0.00  0.00    +0.000 OA
ATOM     23  C   UNL     1     -23.624   8.971   6.735  0.00  0.00    +0.000 C 
ENDBRANCH  15  22
TORSDOF 3
ENDMDL
MODEL 4
REMARK VINA RESULT:      -5.3     24.669     27.960
REMARK  Name = 10639_Physcion.pdbqt.pdb
REMARK  3 active torsions:
REMARK  status: ('A' for Active; 'I' for Inactive)
REMARK    1  A    between atoms: C_10  and  O_18
REMARK    2  A    between atoms: C_12  and  O_20
REMARK    3  A    between atoms: C_15  and  O_22
REMARK                            x       y       z     vdW  Elec       q    Type
REMARK                         _______ _______ _______ _____ _____    ______ ____
ROOT
ATOM      1  O   UNL     1     -15.547  18.691  25.583  0.00  0.00    +0.000 OA
ATOM      2  O   UNL     1     -11.493  16.398  22.997  0.00  0.00    +0.000 OA
ATOM      3  C   UNL     1     -12.767  16.540  24.951  0.00  0.00    +0.000 A 
ATOM      4  C   UNL     1     -13.828  17.145  25.620  0.00  0.00    +0.000 A 
ATOM      5  C   UNL     1     -14.288  18.598  23.558  0.00  0.00    +0.000 A 
ATOM      6  C   UNL     1     -13.219  17.975  22.912  0.00  0.00    +0.000 A 
ATOM      7  C   UNL     1     -14.625  18.194  24.947  0.00  0.00    +0.000 C 
ATOM      8  C   UNL     1     -12.426  16.932  23.580  0.00  0.00    +0.000 C 
ATOM      9  C   UNL     1     -12.004  15.548  25.572  0.00  0.00    +0.000 A 
ATOM     10  C   UNL     1     -14.118  16.739  26.930  0.00  0.00    +0.000 A 
ATOM     11  C   UNL     1     -12.304  15.157  26.872  0.00  0.00    +0.000 A 
ATOM     12  C   UNL     1     -14.999  19.583  22.861  0.00  0.00    +0.000 A 
ATOM     13  C   UNL     1     -12.865  18.323  21.604  0.00  0.00    +0.000 A 
ATOM     14  C   UNL     1     -13.360  15.749  27.556  0.00  0.00    +0.000 A 
ATOM     15  C   UNL     1     -13.576  19.302  20.918  0.00  0.00    +0.000 A 
ATOM     16  C   UNL     1     -14.644  19.929  21.555  0.00  0.00    +0.000 A 
ATOM     17  C   UNL     1     -11.484  14.092  27.535  0.00  0.00    +0.000 C 
ENDROOT
BRANCH  10  18
ATOM     18  O   UNL     1     -15.140  17.274  27.668  0.00  0.00    +0.000 OA
ATOM     19  H   UNL     1     -15.358  16.657  28.406  0.00  0.00    +0.000 HD
ENDBRANCH  10  18
BRANCH  12  20
ATOM     20  O   UNL     1     -16.056  20.236  23.427  0.00  0.00    +0.000 OA
ATOM     21  H   UNL     1     -16.786  19.612  23.587  0.00  0.00    +0.000 HD
ENDBRANCH  12  20
BRANCH  15  22
ATOM     22  O   UNL     1     -13.150  19.570  19.641  0.00  0.00    +0.000 OA
ATOM     23  C   UNL     1     -11.759  19.642  19.482  0.00  0.00    +0.000 C 
ENDBRANCH  15  22
TORSDOF 3
ENDMDL
MODEL 5
REMARK VINA RESULT:      -5.3     14.156     17.392
REMARK  Name = 10639_Physcion.pdbqt.pdb
REMARK  3 active torsions:
REMARK  status: ('A' for Active; 'I' for Inactive)
REMARK    1  A    between atoms: C_10  and  O_18
REMARK    2  A    between atoms: C_12  and  O_20
REMARK    3  A    between atoms: C_15  and  O_22
REMARK                            x       y       z     vdW  Elec       q    Type
REMARK                         _______ _______ _______ _____ _____    ______ ____
ROOT
ATOM      1  O   UNL     1     -25.821  16.046  10.721  0.00  0.00    +0.000 OA
ATOM      2  O   UNL     1     -20.524  15.836  10.193  0.00  0.00    +0.000 OA
ATOM      3  C   UNL     1     -22.397  17.046  10.894  0.00  0.00    +0.000 A 
ATOM      4  C   UNL     1     -23.782  17.093  11.028  0.00  0.00    +0.000 A 
ATOM      5  C   UNL     1     -23.954  14.757   9.983  0.00  0.00    +0.000 A 
ATOM      6  C   UNL     1     -22.564  14.738   9.861  0.00  0.00    +0.000 A 
ATOM      7  C   UNL     1     -24.608  15.951  10.578  0.00  0.00    +0.000 C 
ATOM      8  C   UNL     1     -21.741  15.872  10.308  0.00  0.00    +0.000 C 
ATOM      9  C   UNL     1     -21.602  18.115  11.314  0.00  0.00    +0.000 A 
ATOM     10  C   UNL     1     -24.367  18.235  11.594  0.00  0.00    +0.000 A 
ATOM     11  C   UNL     1     -22.198  19.241  11.873  0.00  0.00    +0.000 A 
ATOM     12  C   UNL     1     -24.673  13.642   9.535  0.00  0.00    +0.000 A 
ATOM     13  C   UNL     1     -21.903  13.636   9.307  0.00  0.00    +0.000 A 
ATOM     14  C   UNL     1     -23.579  19.306  12.016  0.00  0.00    +0.000 A 
ATOM     15  C   UNL     1     -22.624  12.532   8.865  0.00  0.00    +0.000 A 
ATOM     16  C   UNL     1     -24.012  12.542   8.983  0.00  0.00    +0.000 A 
ATOM     17  C   UNL     1     -21.342  20.387  12.323  0.00  0.00    +0.000 C 
ENDROOT
BRANCH  10  18
ATOM     18  O   UNL     1     -25.718  18.373  11.767  0.00  0.00    +0.000 OA
ATOM     19  H   UNL     1     -26.183  17.891  11.043  0.00  0.00    +0.000 HD
ENDBRANCH  10  18
BRANCH  12  20
ATOM     20  O   UNL     1     -26.034  13.588   9.622  0.00  0.00    +0.000 OA
ATOM     21  H   UNL     1     -26.309  12.744  10.023  0.00  0.00    +0.000 HD
ENDBRANCH  12  20
BRANCH  15  22
ATOM     22  O   UNL     1     -21.884  11.503   8.338  0.00  0.00    +0.000 OA
ATOM     23  C   UNL     1     -22.614  10.352   8.012  0.00  0.00    +0.000 C 
ENDBRANCH  15  22
TORSDOF 3
ENDMDL
MODEL 6
REMARK VINA RESULT:      -5.3     21.606     23.887
REMARK  Name = 10639_Physcion.pdbqt.pdb
REMARK  3 active torsions:
REMARK  status: ('A' for Active; 'I' for Inactive)
REMARK    1  A    between atoms: C_10  and  O_18
REMARK    2  A    between atoms: C_12  and  O_20
REMARK    3  A    between atoms: C_15  and  O_22
REMARK                            x       y       z     vdW  Elec       q    Type
REMARK                         _______ _______ _______ _____ _____    ______ ____
ROOT
ATOM      1  O   UNL     1     -10.047   2.682  17.782  0.00  0.00    +0.000 OA
ATOM      2  O   UNL     1     -11.305   7.384  19.948  0.00  0.00    +0.000 OA
ATOM      3  C   UNL     1      -9.936   6.183  18.483  0.00  0.00    +0.000 A 
ATOM      4  C   UNL     1      -9.614   4.950  17.922  0.00  0.00    +0.000 A 
ATOM      5  C   UNL     1     -11.478   3.847  19.294  0.00  0.00    +0.000 A 
ATOM      6  C   UNL     1     -11.779   5.096  19.840  0.00  0.00    +0.000 A 
ATOM      7  C   UNL     1     -10.373   3.740  18.308  0.00  0.00    +0.000 C 
ATOM      8  C   UNL     1     -11.026   6.299  19.458  0.00  0.00    +0.000 C 
ATOM      9  C   UNL     1      -9.229   7.335  18.130  0.00  0.00    +0.000 A 
ATOM     10  C   UNL     1      -8.565   4.884  16.994  0.00  0.00    +0.000 A 
ATOM     11  C   UNL     1      -8.192   7.253  17.208  0.00  0.00    +0.000 A 
ATOM     12  C   UNL     1     -12.238   2.744  19.705  0.00  0.00    +0.000 A 
ATOM     13  C   UNL     1     -12.812   5.246  20.773  0.00  0.00    +0.000 A 
ATOM     14  C   UNL     1      -7.854   6.031  16.637  0.00  0.00    +0.000 A 
ATOM     15  C   UNL     1     -13.562   4.146  21.176  0.00  0.00    +0.000 A 
ATOM     16  C   UNL     1     -13.268   2.896  20.636  0.00  0.00    +0.000 A 
ATOM     17  C   UNL     1      -7.435   8.492  16.831  0.00  0.00    +0.000 C 
ENDROOT
BRANCH  10  18
ATOM     18  O   UNL     1      -8.174   3.720  16.390  0.00  0.00    +0.000 OA
ATOM     19  H   UNL     1      -7.561   3.935  15.648  0.00  0.00    +0.000 HD
ENDBRANCH  10  18
BRANCH  12  20
ATOM     20  O   UNL     1     -12.003   1.493  19.215  0.00  0.00    +0.000 OA
ATOM     21  H   UNL     1     -11.859   0.869  19.950  0.00  0.00    +0.000 HD
ENDBRANCH  12  20
BRANCH  15  22
ATOM     22  O   UNL     1     -14.551   4.398  22.094  0.00  0.00    +0.000 OA
ATOM     23  C   UNL     1     -15.821   4.634  21.549  0.00  0.00    +0.000 C 
ENDBRANCH  15  22
TORSDOF 3
ENDMDL
MODEL 7
REMARK VINA RESULT:      -5.2     25.218     28.863
REMARK  Name = 10639_Physcion.pdbqt.pdb
REMARK  3 active torsions:
REMARK  status: ('A' for Active; 'I' for Inactive)
REMARK    1  A    between atoms: C_10  and  O_18
REMARK    2  A    between atoms: C_12  and  O_20
REMARK    3  A    between atoms: C_15  and  O_22
REMARK                            x       y       z     vdW  Elec       q    Type
REMARK                         _______ _______ _______ _____ _____    ______ ____
ROOT
ATOM      1  O   UNL     1     -12.005  14.585  24.595  0.00  0.00    +0.000 OA
ATOM      2  O   UNL     1     -14.383  19.352  24.564  0.00  0.00    +0.000 OA
ATOM      3  C   UNL     1     -13.088  17.778  23.419  0.00  0.00    +0.000 A 
ATOM      4  C   UNL     1     -12.470  16.531  23.436  0.00  0.00    +0.000 A 
ATOM      5  C   UNL     1     -13.328  16.147  25.822  0.00  0.00    +0.000 A 
ATOM      6  C   UNL     1     -13.938  17.401  25.776  0.00  0.00    +0.000 A 
ATOM      7  C   UNL     1     -12.568  15.673  24.636  0.00  0.00    +0.000 C 
ATOM      8  C   UNL     1     -13.841  18.256  24.584  0.00  0.00    +0.000 C 
ATOM      9  C   UNL     1     -13.006  18.601  22.293  0.00  0.00    +0.000 A 
ATOM     10  C   UNL     1     -11.760  16.114  22.301  0.00  0.00    +0.000 A 
ATOM     11  C   UNL     1     -12.298  18.174  21.175  0.00  0.00    +0.000 A 
ATOM     12  C   UNL     1     -13.462  15.387  26.991  0.00  0.00    +0.000 A 
ATOM     13  C   UNL     1     -14.664  17.890  26.868  0.00  0.00    +0.000 A 
ATOM     14  C   UNL     1     -11.674  16.932  21.173  0.00  0.00    +0.000 A 
ATOM     15  C   UNL     1     -14.793  17.130  28.026  0.00  0.00    +0.000 A 
ATOM     16  C   UNL     1     -14.187  15.876  28.080  0.00  0.00    +0.000 A 
ATOM     17  C   UNL     1     -12.211  19.060  19.969  0.00  0.00    +0.000 C 
ENDROOT
BRANCH  10  18
ATOM     18  O   UNL     1     -11.119  14.907  22.222  0.00  0.00    +0.000 OA
ATOM     19  H   UNL     1     -11.364  14.365  23.009  0.00  0.00    +0.000 HD
ENDBRANCH  10  18
BRANCH  12  20
ATOM     20  O   UNL     1     -12.894  14.152  27.109  0.00  0.00    +0.000 OA
ATOM     21  H   UNL     1     -11.924  14.224  27.046  0.00  0.00    +0.000 HD
ENDBRANCH  12  20
BRANCH  15  22
ATOM     22  O   UNL     1     -15.525  17.698  29.039  0.00  0.00    +0.000 OA
ATOM     23  C   UNL     1     -16.601  18.493  28.620  0.00  0.00    +0.000 C 
ENDBRANCH  15  22
TORSDOF 3
ENDMDL
MODEL 8
REMARK VINA RESULT:      -5.2     24.748     28.517
REMARK  Name = 10639_Physcion.pdbqt.pdb
REMARK  3 active torsions:
REMARK  status: ('A' for Active; 'I' for Inactive)
REMARK    1  A    between atoms: C_10  and  O_18
REMARK    2  A    between atoms: C_12  and  O_20
REMARK    3  A    between atoms: C_15  and  O_22
REMARK                            x       y       z     vdW  Elec       q    Type
REMARK                         _______ _______ _______ _____ _____    ______ ____
ROOT
ATOM      1  O   UNL     1     -14.944  19.932  24.288  0.00  0.00    +0.000 OA
ATOM      2  O   UNL     1     -11.809  15.690  23.540  0.00  0.00    +0.000 OA
ATOM      3  C   UNL     1     -12.727  17.652  22.662  0.00  0.00    +0.000 A 
ATOM      4  C   UNL     1     -13.549  18.758  22.867  0.00  0.00    +0.000 A 
ATOM      5  C   UNL     1     -14.042  17.941  25.247  0.00  0.00    +0.000 A 
ATOM      6  C   UNL     1     -13.214  16.843  25.014  0.00  0.00    +0.000 A 
ATOM      7  C   UNL     1     -14.234  18.941  24.164  0.00  0.00    +0.000 C 
ATOM      8  C   UNL     1     -12.531  16.659  23.724  0.00  0.00    +0.000 C 
ATOM      9  C   UNL     1     -12.072  17.464  21.443  0.00  0.00    +0.000 A 
ATOM     10  C   UNL     1     -13.708  19.681  21.824  0.00  0.00    +0.000 A 
ATOM     11  C   UNL     1     -12.240  18.389  20.419  0.00  0.00    +0.000 A 
ATOM     12  C   UNL     1     -14.660  18.051  26.499  0.00  0.00    +0.000 A 
ATOM     13  C   UNL     1     -13.003  15.876  26.003  0.00  0.00    +0.000 A 
ATOM     14  C   UNL     1     -13.056  19.500  20.603  0.00  0.00    +0.000 A 
ATOM     15  C   UNL     1     -13.619  15.992  27.245  0.00  0.00    +0.000 A 
ATOM     16  C   UNL     1     -14.449  17.085  27.485  0.00  0.00    +0.000 A 
ATOM     17  C   UNL     1     -11.536  18.184  19.111  0.00  0.00    +0.000 C 
ENDROOT
BRANCH  10  18
ATOM     18  O   UNL     1     -14.493  20.798  21.929  0.00  0.00    +0.000 OA
ATOM     19  H   UNL     1     -13.929  21.560  22.198  0.00  0.00    +0.000 HD
ENDBRANCH  10  18
BRANCH  12  20
ATOM     20  O   UNL     1     -15.484  19.097  26.800  0.00  0.00    +0.000 OA
ATOM     21  H   UNL     1     -15.320  19.399  27.711  0.00  0.00    +0.000 HD
ENDBRANCH  12  20
BRANCH  15  22
ATOM     22  O   UNL     1     -13.348  14.992  28.145  0.00  0.00    +0.000 OA
ATOM     23  C   UNL     1     -12.814  13.821  27.590  0.00  0.00    +0.000 C 
ENDBRANCH  15  22
TORSDOF 3
ENDMDL
MODEL 9
REMARK VINA RESULT:      -5.1     22.728     25.934
REMARK  Name = 10639_Physcion.pdbqt.pdb
REMARK  3 active torsions:
REMARK  status: ('A' for Active; 'I' for Inactive)
REMARK    1  A    between atoms: C_10  and  O_18
REMARK    2  A    between atoms: C_12  and  O_20
REMARK    3  A    between atoms: C_15  and  O_22
REMARK                            x       y       z     vdW  Elec       q    Type
REMARK                         _______ _______ _______ _____ _____    ______ ____
ROOT
ATOM      1  O   UNL     1     -11.776  16.856  24.216  0.00  0.00    +0.000 OA
ATOM      2  O   UNL     1     -13.004  19.033  19.511  0.00  0.00    +0.000 OA
ATOM      3  C   UNL     1     -13.640  18.600  21.718  0.00  0.00    +0.000 A 
ATOM      4  C   UNL     1     -13.311  18.028  22.944  0.00  0.00    +0.000 A 
ATOM      5  C   UNL     1     -11.064  17.262  21.975  0.00  0.00    +0.000 A 
ATOM      6  C   UNL     1     -11.420  17.844  20.758  0.00  0.00    +0.000 A 
ATOM      7  C   UNL     1     -12.013  17.340  23.115  0.00  0.00    +0.000 C 
ATOM      8  C   UNL     1     -12.710  18.529  20.586  0.00  0.00    +0.000 C 
ATOM      9  C   UNL     1     -14.862  19.253  21.539  0.00  0.00    +0.000 A 
ATOM     10  C   UNL     1     -14.230  18.119  23.999  0.00  0.00    +0.000 A 
ATOM     11  C   UNL     1     -15.762  19.336  22.595  0.00  0.00    +0.000 A 
ATOM     12  C   UNL     1      -9.819  16.627  22.066  0.00  0.00    +0.000 A 
ATOM     13  C   UNL     1     -10.559  17.797  19.656  0.00  0.00    +0.000 A 
ATOM     14  C   UNL     1     -15.452  18.771  23.827  0.00  0.00    +0.000 A 
ATOM     15  C   UNL     1      -9.324  17.164  19.754  0.00  0.00    +0.000 A 
ATOM     16  C   UNL     1      -8.960  16.580  20.965  0.00  0.00    +0.000 A 
ATOM     17  C   UNL     1     -17.073  20.038  22.400  0.00  0.00    +0.000 C 
ENDROOT
BRANCH  10  18
ATOM     18  O   UNL     1     -13.997  17.589  25.239  0.00  0.00    +0.000 OA
ATOM     19  H   UNL     1     -13.279  16.917  25.169  0.00  0.00    +0.000 HD
ENDBRANCH  10  18
BRANCH  12  20
ATOM     20  O   UNL     1      -9.402  16.036  23.223  0.00  0.00    +0.000 OA
ATOM     21  H   UNL     1      -9.353  16.697  23.936  0.00  0.00    +0.000 HD
ENDBRANCH  12  20
BRANCH  15  22
ATOM     22  O   UNL     1      -8.553  17.172  18.618  0.00  0.00    +0.000 OA
ATOM     23  C   UNL     1      -9.165  16.623  17.482  0.00  0.00    +0.000 C 
ENDBRANCH  15  22
TORSDOF 3
ENDMDL
