MODEL 1
REMARK VINA RESULT:      -5.7      0.000      0.000
REMARK  Name = 10940649_MilnamideD.pdbqt.pdb
REMARK  7 active torsions:
REMARK  status: ('A' for Active; 'I' for Inactive)
REMARK    1  A    between atoms: C_3  and  C_8
REMARK    2  A    between atoms: C_22  and  C_25
REMARK    3  A    between atoms: C_22  and  C_38
REMARK    4  A    between atoms: N_24  and  C_27
REMARK    5  A    between atoms: C_27  and  C_28
REMARK    6  A    between atoms: C_32  and  C_35
REMARK    7  A    between atoms: C_35  and  O_36
REMARK                            x       y       z     vdW  Elec       q    Type
REMARK                         _______ _______ _______ _____ _____    ______ ____
ROOT
ATOM      1  O   UNL     1     -10.006   4.520  19.923  0.00  0.00    +0.000 OA
ATOM      2  N   UNL     1      -9.323   2.850  21.302  0.00  0.00    +0.000 N 
ATOM      3  C   UNL     1     -10.149   3.909  20.976  0.00  0.00    +0.000 C 
ATOM      4  H   UNL     1      -9.409   2.432  22.236  0.00  0.00    +0.000 HD
ATOM      5  C   UNL     1      -8.299   2.331  20.473  0.00  0.00    +0.000 C 
ENDROOT
BRANCH   3   9
ATOM      6  N   UNL     1     -10.870   4.395  23.399  0.00  0.00    +0.000 NA
ATOM      7  N   UNL     1     -14.554   5.151  24.513  0.00  0.00    +0.000 N 
ATOM      8  C   UNL     1     -12.674   4.160  21.445  0.00  0.00    +0.000 C 
ATOM      9  C   UNL     1     -11.212   4.257  21.973  0.00  0.00    +0.000 C 
ATOM     10  C   UNL     1     -13.754   4.571  22.495  0.00  0.00    +0.000 A 
ATOM     11  C   UNL     1     -13.442   4.834  23.813  0.00  0.00    +0.000 A 
ATOM     12  C   UNL     1     -13.018   2.677  21.112  0.00  0.00    +0.000 C 
ATOM     13  C   UNL     1     -12.871   5.156  20.266  0.00  0.00    +0.000 C 
ATOM     14  C   UNL     1     -15.183   4.735  22.409  0.00  0.00    +0.000 A 
ATOM     15  C   UNL     1     -12.081   4.713  24.109  0.00  0.00    +0.000 C 
ATOM     16  C   UNL     1     -15.652   5.101  23.687  0.00  0.00    +0.000 A 
ATOM     17  C   UNL     1      -9.940   5.493  23.611  0.00  0.00    +0.000 C 
ATOM     18  C   UNL     1     -16.119   4.601  21.364  0.00  0.00    +0.000 A 
ATOM     19  C   UNL     1     -14.569   5.467  25.901  0.00  0.00    +0.000 C 
ATOM     20  C   UNL     1     -17.011   5.338  23.944  0.00  0.00    +0.000 A 
ATOM     21  C   UNL     1     -17.472   4.835  21.614  0.00  0.00    +0.000 A 
ATOM     22  C   UNL     1     -17.907   5.199  22.882  0.00  0.00    +0.000 A 
ENDBRANCH   3   9
BRANCH   5  25
ATOM     23  O   UNL     1      -8.888   2.281  18.222  0.00  0.00    +0.000 OA
ATOM     24  N   UNL     1      -7.259   3.864  18.872  0.00  0.00    +0.000 N 
ATOM     25  C   UNL     1      -8.167   2.797  19.071  0.00  0.00    +0.000 C 
ATOM     26  C   UNL     1      -6.389   4.416  19.917  0.00  0.00    +0.000 C 
BRANCH  24  27
ATOM     27  C   UNL     1      -7.160   4.491  17.618  0.00  0.00    +0.000 C 
ATOM     28  C   UNL     1      -8.292   5.147  17.022  0.00  0.00    +0.000 C 
ATOM     29  C   UNL     1      -9.312   5.742  16.475  0.00  0.00    +0.000 C 
ATOM     30  C   UNL     1      -9.201   7.248  16.360  0.00  0.00    +0.000 C 
BRANCH  27  31
ATOM     31  C   UNL     1      -5.907   4.527  16.878  0.00  0.00    +0.000 C 
ATOM     32  C   UNL     1      -5.564   3.427  15.893  0.00  0.00    +0.000 C 
ATOM     33  C   UNL     1      -5.245   5.863  16.594  0.00  0.00    +0.000 C 
ENDBRANCH  27  31
BRANCH  29  35
ATOM     34  O   UNL     1     -10.859   4.847  14.855  0.00  0.00    +0.000 OA
ATOM     35  C   UNL     1     -10.478   4.940  16.013  0.00  0.00    +0.000 C 
BRANCH  35  36
ATOM     36  O   UNL     1     -11.133   4.286  16.995  0.00  0.00    +0.000 OA
ATOM     37  H   UNL     1     -11.665   4.970  17.451  0.00  0.00    +0.000 HD
ENDBRANCH  35  36
ENDBRANCH  29  35
ENDBRANCH  24  27
ENDBRANCH   5  25
BRANCH   5  38
ATOM     38  C   UNL     1      -7.457   1.115  20.826  0.00  0.00    +0.000 C 
ATOM     39  C   UNL     1      -6.736   1.444  22.172  0.00  0.00    +0.000 C 
ATOM     40  C   UNL     1      -8.423  -0.079  21.070  0.00  0.00    +0.000 C 
ATOM     41  C   UNL     1      -6.395   0.765  19.755  0.00  0.00    +0.000 C 
ENDBRANCH   5  38
TORSDOF 7
ENDMDL
MODEL 2
REMARK VINA RESULT:      -5.6      8.144     11.463
REMARK  Name = 10940649_MilnamideD.pdbqt.pdb
REMARK  7 active torsions:
REMARK  status: ('A' for Active; 'I' for Inactive)
REMARK    1  A    between atoms: C_3  and  C_8
REMARK    2  A    between atoms: C_22  and  C_25
REMARK    3  A    between atoms: C_22  and  C_38
REMARK    4  A    between atoms: N_24  and  C_27
REMARK    5  A    between atoms: C_27  and  C_28
REMARK    6  A    between atoms: C_32  and  C_35
REMARK    7  A    between atoms: C_35  and  O_36
REMARK                            x       y       z     vdW  Elec       q    Type
REMARK                         _______ _______ _______ _____ _____    ______ ____
ROOT
ATOM      1  O   UNL     1      -6.277  -2.946  14.635  0.00  0.00    +0.000 OA
ATOM      2  N   UNL     1      -6.442  -2.807  16.895  0.00  0.00    +0.000 N 
ATOM      3  C   UNL     1      -5.937  -2.396  15.676  0.00  0.00    +0.000 C 
ATOM      4  H   UNL     1      -6.055  -2.389  17.750  0.00  0.00    +0.000 HD
ATOM      5  C   UNL     1      -7.410  -3.824  17.075  0.00  0.00    +0.000 C 
ENDROOT
BRANCH   3   9
ATOM      6  N   UNL     1      -3.592  -1.470  16.196  0.00  0.00    +0.000 NA
ATOM      7  N   UNL     1      -2.530   2.278  15.736  0.00  0.00    +0.000 N 
ATOM      8  C   UNL     1      -5.588   0.153  15.481  0.00  0.00    +0.000 C 
ATOM      9  C   UNL     1      -4.965  -1.256  15.706  0.00  0.00    +0.000 C 
ATOM     10  C   UNL     1      -4.542   1.313  15.474  0.00  0.00    +0.000 A 
ATOM     11  C   UNL     1      -3.217   1.116  15.804  0.00  0.00    +0.000 A 
ATOM     12  C   UNL     1      -6.536   0.507  16.665  0.00  0.00    +0.000 C 
ATOM     13  C   UNL     1      -6.250   0.212  14.074  0.00  0.00    +0.000 C 
ATOM     14  C   UNL     1      -4.653   2.723  15.198  0.00  0.00    +0.000 A 
ATOM     15  C   UNL     1      -2.903  -0.208  16.125  0.00  0.00    +0.000 C 
ATOM     16  C   UNL     1      -3.377   3.296  15.367  0.00  0.00    +0.000 A 
ATOM     17  C   UNL     1      -2.873  -2.407  15.347  0.00  0.00    +0.000 C 
ATOM     18  C   UNL     1      -5.722   3.562  14.825  0.00  0.00    +0.000 A 
ATOM     19  C   UNL     1      -1.143   2.411  16.025  0.00  0.00    +0.000 C 
ATOM     20  C   UNL     1      -3.142   4.666  15.171  0.00  0.00    +0.000 A 
ATOM     21  C   UNL     1      -5.494   4.925  14.630  0.00  0.00    +0.000 A 
ATOM     22  C   UNL     1      -4.225   5.464  14.799  0.00  0.00    +0.000 A 
ENDBRANCH   3   9
BRANCH   5  25
ATOM     23  O   UNL     1      -9.091  -3.825  15.464  0.00  0.00    +0.000 OA
ATOM     24  N   UNL     1      -7.490  -5.560  15.351  0.00  0.00    +0.000 N 
ATOM     25  C   UNL     1      -8.103  -4.408  15.901  0.00  0.00    +0.000 C 
ATOM     26  C   UNL     1      -6.333  -6.243  15.939  0.00  0.00    +0.000 C 
BRANCH  24  27
ATOM     27  C   UNL     1      -7.966  -6.115  14.149  0.00  0.00    +0.000 C 
ATOM     28  C   UNL     1      -7.767  -5.449  12.891  0.00  0.00    +0.000 C 
ATOM     29  C   UNL     1      -7.592  -4.851  11.749  0.00  0.00    +0.000 C 
ATOM     30  C   UNL     1      -6.655  -5.551  10.787  0.00  0.00    +0.000 C 
BRANCH  27  31
ATOM     31  C   UNL     1      -8.657  -7.395  14.120  0.00  0.00    +0.000 C 
ATOM     32  C   UNL     1      -9.513  -7.835  15.292  0.00  0.00    +0.000 C 
ATOM     33  C   UNL     1      -9.050  -8.002  12.785  0.00  0.00    +0.000 C 
ENDBRANCH  27  31
BRANCH  29  35
ATOM     34  O   UNL     1      -8.687  -3.204  10.368  0.00  0.00    +0.000 OA
ATOM     35  C   UNL     1      -8.293  -3.570  11.467  0.00  0.00    +0.000 C 
BRANCH  35  36
ATOM     36  O   UNL     1      -8.482  -2.783  12.548  0.00  0.00    +0.000 OA
ATOM     37  H   UNL     1      -9.447  -2.799  12.713  0.00  0.00    +0.000 HD
ENDBRANCH  35  36
ENDBRANCH  29  35
ENDBRANCH  24  27
ENDBRANCH   5  25
BRANCH   5  38
ATOM     38  C   UNL     1      -8.005  -4.201  18.422  0.00  0.00    +0.000 C 
ATOM     39  C   UNL     1      -6.810  -4.611  19.341  0.00  0.00    +0.000 C 
ATOM     40  C   UNL     1      -8.666  -2.928  19.024  0.00  0.00    +0.000 C 
ATOM     41  C   UNL     1      -9.012  -5.374  18.349  0.00  0.00    +0.000 C 
ENDBRANCH   5  38
TORSDOF 7
ENDMDL
MODEL 3
REMARK VINA RESULT:      -5.6     20.697     24.111
REMARK  Name = 10940649_MilnamideD.pdbqt.pdb
REMARK  7 active torsions:
REMARK  status: ('A' for Active; 'I' for Inactive)
REMARK    1  A    between atoms: C_3  and  C_8
REMARK    2  A    between atoms: C_22  and  C_25
REMARK    3  A    between atoms: C_22  and  C_38
REMARK    4  A    between atoms: N_24  and  C_27
REMARK    5  A    between atoms: C_27  and  C_28
REMARK    6  A    between atoms: C_32  and  C_35
REMARK    7  A    between atoms: C_35  and  O_36
REMARK                            x       y       z     vdW  Elec       q    Type
REMARK                         _______ _______ _______ _____ _____    ______ ____
ROOT
ATOM      1  O   UNL     1      -3.636  14.403   1.632  0.00  0.00    +0.000 OA
ATOM      2  N   UNL     1      -4.056  16.581   1.149  0.00  0.00    +0.000 N 
ATOM      3  C   UNL     1      -3.369  15.584   1.816  0.00  0.00    +0.000 C 
ATOM      4  H   UNL     1      -3.873  17.558   1.407  0.00  0.00    +0.000 HD
ATOM      5  C   UNL     1      -5.062  16.366   0.176  0.00  0.00    +0.000 C 
ENDROOT
BRANCH   3   9
ATOM      6  N   UNL     1      -0.890  16.053   2.327  0.00  0.00    +0.000 NA
ATOM      7  N   UNL     1       0.473  17.269   5.798  0.00  0.00    +0.000 N 
ATOM      8  C   UNL     1      -2.739  16.167   4.250  0.00  0.00    +0.000 C 
ATOM      9  C   UNL     1      -2.297  16.032   2.763  0.00  0.00    +0.000 C 
ATOM     10  C   UNL     1      -1.611  16.678   5.201  0.00  0.00    +0.000 A 
ATOM     11  C   UNL     1      -0.304  16.832   4.783  0.00  0.00    +0.000 A 
ATOM     12  C   UNL     1      -3.108  14.766   4.821  0.00  0.00    +0.000 C 
ATOM     13  C   UNL     1      -3.864  17.236   4.365  0.00  0.00    +0.000 C 
ATOM     14  C   UNL     1      -1.603  17.045   6.594  0.00  0.00    +0.000 A 
ATOM     15  C   UNL     1      -0.096  16.506   3.439  0.00  0.00    +0.000 C 
ATOM     16  C   UNL     1      -0.286  17.414   6.935  0.00  0.00    +0.000 A 
ATOM     17  C   UNL     1      -0.692  16.999   1.239  0.00  0.00    +0.000 C 
ATOM     18  C   UNL     1      -2.594  17.094   7.595  0.00  0.00    +0.000 A 
ATOM     19  C   UNL     1       1.870  17.518   5.692  0.00  0.00    +0.000 C 
ATOM     20  C   UNL     1       0.061  17.828   8.230  0.00  0.00    +0.000 A 
ATOM     21  C   UNL     1      -2.254  17.504   8.884  0.00  0.00    +0.000 A 
ATOM     22  C   UNL     1      -0.949  17.866   9.193  0.00  0.00    +0.000 A 
ENDBRANCH   3   9
BRANCH   5  25
ATOM     23  O   UNL     1      -6.259  14.370   0.140  0.00  0.00    +0.000 OA
ATOM     24  N   UNL     1      -4.485  14.589  -1.406  0.00  0.00    +0.000 N 
ATOM     25  C   UNL     1      -5.320  15.000  -0.339  0.00  0.00    +0.000 C 
ATOM     26  C   UNL     1      -3.348  15.364  -1.913  0.00  0.00    +0.000 C 
BRANCH  24  27
ATOM     27  C   UNL     1      -4.731  13.378  -2.077  0.00  0.00    +0.000 C 
ATOM     28  C   UNL     1      -5.756  13.276  -3.079  0.00  0.00    +0.000 C 
ATOM     29  C   UNL     1      -6.682  13.177  -3.987  0.00  0.00    +0.000 C 
ATOM     30  C   UNL     1      -6.187  12.951  -5.400  0.00  0.00    +0.000 C 
BRANCH  27  31
ATOM     31  C   UNL     1      -3.946  12.182  -1.807  0.00  0.00    +0.000 C 
ATOM     32  C   UNL     1      -3.790  11.109  -2.866  0.00  0.00    +0.000 C 
ATOM     33  C   UNL     1      -2.819  12.242  -0.793  0.00  0.00    +0.000 C 
ENDBRANCH  27  31
BRANCH  29  35
ATOM     34  O   UNL     1      -8.936  14.025  -4.120  0.00  0.00    +0.000 OA
ATOM     35  C   UNL     1      -8.115  13.284  -3.599  0.00  0.00    +0.000 C 
BRANCH  35  36
ATOM     36  O   UNL     1      -8.483  12.476  -2.583  0.00  0.00    +0.000 OA
ATOM     37  H   UNL     1      -9.417  12.242  -2.764  0.00  0.00    +0.000 HD
ENDBRANCH  35  36
ENDBRANCH  29  35
ENDBRANCH  24  27
ENDBRANCH   5  25
BRANCH   5  38
ATOM     38  C   UNL     1      -5.745  17.482  -0.598  0.00  0.00    +0.000 C 
ATOM     39  C   UNL     1      -6.708  18.198   0.402  0.00  0.00    +0.000 C 
ATOM     40  C   UNL     1      -4.652  18.499  -1.033  0.00  0.00    +0.000 C 
ATOM     41  C   UNL     1      -6.561  16.982  -1.816  0.00  0.00    +0.000 C 
ENDBRANCH   5  38
TORSDOF 7
ENDMDL
MODEL 4
REMARK VINA RESULT:      -5.5      5.010     11.769
REMARK  Name = 10940649_MilnamideD.pdbqt.pdb
REMARK  7 active torsions:
REMARK  status: ('A' for Active; 'I' for Inactive)
REMARK    1  A    between atoms: C_3  and  C_8
REMARK    2  A    between atoms: C_22  and  C_25
REMARK    3  A    between atoms: C_22  and  C_38
REMARK    4  A    between atoms: N_24  and  C_27
REMARK    5  A    between atoms: C_27  and  C_28
REMARK    6  A    between atoms: C_32  and  C_35
REMARK    7  A    between atoms: C_35  and  O_36
REMARK                            x       y       z     vdW  Elec       q    Type
REMARK                         _______ _______ _______ _____ _____    ______ ____
ROOT
ATOM      1  O   UNL     1      -4.798   4.516  16.622  0.00  0.00    +0.000 OA
ATOM      2  N   UNL     1      -4.997   6.761  16.894  0.00  0.00    +0.000 N 
ATOM      3  C   UNL     1      -4.254   5.610  16.718  0.00  0.00    +0.000 C 
ATOM      4  H   UNL     1      -4.499   7.642  17.072  0.00  0.00    +0.000 HD
ATOM      5  C   UNL     1      -6.411   6.821  16.923  0.00  0.00    +0.000 C 
ENDROOT
BRANCH   3   9
ATOM      6  N   UNL     1      -2.098   6.764  17.521  0.00  0.00    +0.000 NA
ATOM      7  N   UNL     1       1.481   6.033  16.089  0.00  0.00    +0.000 N 
ATOM      8  C   UNL     1      -2.071   5.084  15.445  0.00  0.00    +0.000 C 
ATOM      9  C   UNL     1      -2.766   5.779  16.654  0.00  0.00    +0.000 C 
ATOM     10  C   UNL     1      -0.518   5.243  15.433  0.00  0.00    +0.000 A 
ATOM     11  C   UNL     1       0.149   6.062  16.321  0.00  0.00    +0.000 A 
ATOM     12  C   UNL     1      -2.529   5.755  14.116  0.00  0.00    +0.000 C 
ATOM     13  C   UNL     1      -2.310   3.549  15.518  0.00  0.00    +0.000 C 
ATOM     14  C   UNL     1       0.511   4.688  14.590  0.00  0.00    +0.000 A 
ATOM     15  C   UNL     1      -0.689   6.715  17.230  0.00  0.00    +0.000 C 
ATOM     16  C   UNL     1       1.749   5.200  15.029  0.00  0.00    +0.000 A 
ATOM     17  C   UNL     1      -2.264   6.424  18.926  0.00  0.00    +0.000 C 
ATOM     18  C   UNL     1       0.502   3.804  13.493  0.00  0.00    +0.000 A 
ATOM     19  C   UNL     1       2.442   6.777  16.829  0.00  0.00    +0.000 C 
ATOM     20  C   UNL     1       2.961   4.852  14.413  0.00  0.00    +0.000 A 
ATOM     21  C   UNL     1       1.703   3.455  12.877  0.00  0.00    +0.000 A 
ATOM     22  C   UNL     1       2.910   3.970  13.332  0.00  0.00    +0.000 A 
ENDBRANCH   3   9
BRANCH   5  25
ATOM     23  O   UNL     1      -7.382   5.373  15.382  0.00  0.00    +0.000 OA
ATOM     24  N   UNL     1      -7.648   4.845  17.670  0.00  0.00    +0.000 N 
ATOM     25  C   UNL     1      -7.215   5.626  16.571  0.00  0.00    +0.000 C 
ATOM     26  C   UNL     1      -7.458   5.217  19.076  0.00  0.00    +0.000 C 
BRANCH  24  27
ATOM     27  C   UNL     1      -8.286   3.610  17.458  0.00  0.00    +0.000 C 
ATOM     28  C   UNL     1      -7.549   2.455  17.025  0.00  0.00    +0.000 C 
ATOM     29  C   UNL     1      -6.888   1.406  16.631  0.00  0.00    +0.000 C 
ATOM     30  C   UNL     1      -6.782   0.287  17.646  0.00  0.00    +0.000 C 
BRANCH  27  31
ATOM     31  C   UNL     1      -9.713   3.438  17.691  0.00  0.00    +0.000 C 
ATOM     32  C   UNL     1     -10.207   2.515  18.787  0.00  0.00    +0.000 C 
ATOM     33  C   UNL     1     -10.670   4.557  17.323  0.00  0.00    +0.000 C 
ENDBRANCH  27  31
BRANCH  29  35
ATOM     34  O   UNL     1      -5.990   0.355  14.655  0.00  0.00    +0.000 OA
ATOM     35  C   UNL     1      -6.302   1.368  15.264  0.00  0.00    +0.000 C 
BRANCH  35  36
ATOM     36  O   UNL     1      -6.118   2.579  14.698  0.00  0.00    +0.000 OA
ATOM     37  H   UNL     1      -6.026   3.203  15.448  0.00  0.00    +0.000 HD
ENDBRANCH  35  36
ENDBRANCH  29  35
ENDBRANCH  24  27
ENDBRANCH   5  25
BRANCH   5  38
ATOM     38  C   UNL     1      -7.203   8.114  17.040  0.00  0.00    +0.000 C 
ATOM     39  C   UNL     1      -6.574   9.119  16.022  0.00  0.00    +0.000 C 
ATOM     40  C   UNL     1      -8.664   7.820  16.594  0.00  0.00    +0.000 C 
ATOM     41  C   UNL     1      -7.165   8.739  18.456  0.00  0.00    +0.000 C 
ENDBRANCH   5  38
TORSDOF 7
ENDMDL
MODEL 5
REMARK VINA RESULT:      -5.4      7.143     11.387
REMARK  Name = 10940649_MilnamideD.pdbqt.pdb
REMARK  7 active torsions:
REMARK  status: ('A' for Active; 'I' for Inactive)
REMARK    1  A    between atoms: C_3  and  C_8
REMARK    2  A    between atoms: C_22  and  C_25
REMARK    3  A    between atoms: C_22  and  C_38
REMARK    4  A    between atoms: N_24  and  C_27
REMARK    5  A    between atoms: C_27  and  C_28
REMARK    6  A    between atoms: C_32  and  C_35
REMARK    7  A    between atoms: C_35  and  O_36
REMARK                            x       y       z     vdW  Elec       q    Type
REMARK                         _______ _______ _______ _____ _____    ______ ____
ROOT
ATOM      1  O   UNL     1      -6.701  11.638  18.906  0.00  0.00    +0.000 OA
ATOM      2  N   UNL     1      -5.526  12.351  17.099  0.00  0.00    +0.000 N 
ATOM      3  C   UNL     1      -5.947  11.371  17.978  0.00  0.00    +0.000 C 
ATOM      4  H   UNL     1      -4.816  12.108  16.399  0.00  0.00    +0.000 HD
ATOM      5  C   UNL     1      -5.941  13.705  17.129  0.00  0.00    +0.000 C 
ENDROOT
BRANCH   3   9
ATOM      6  N   UNL     1      -3.987   9.713  17.795  0.00  0.00    +0.000 NA
ATOM      7  N   UNL     1      -4.360   5.925  16.846  0.00  0.00    +0.000 N 
ATOM      8  C   UNL     1      -6.469   8.992  17.126  0.00  0.00    +0.000 C 
ATOM      9  C   UNL     1      -5.433   9.986  17.728  0.00  0.00    +0.000 C 
ATOM     10  C   UNL     1      -5.914   7.547  16.921  0.00  0.00    +0.000 A 
ATOM     11  C   UNL     1      -4.582   7.234  17.102  0.00  0.00    +0.000 A 
ATOM     12  C   UNL     1      -6.869   9.450  15.692  0.00  0.00    +0.000 C 
ATOM     13  C   UNL     1      -7.661   8.819  18.112  0.00  0.00    +0.000 C 
ATOM     14  C   UNL     1      -6.535   6.314  16.507  0.00  0.00    +0.000 A 
ATOM     15  C   UNL     1      -3.793   8.318  17.498  0.00  0.00    +0.000 C 
ATOM     16  C   UNL     1      -5.537   5.320  16.474  0.00  0.00    +0.000 A 
ATOM     17  C   UNL     1      -3.470   9.949  19.133  0.00  0.00    +0.000 C 
ATOM     18  C   UNL     1      -7.851   5.957  16.154  0.00  0.00    +0.000 A 
ATOM     19  C   UNL     1      -3.089   5.292  16.935  0.00  0.00    +0.000 C 
ATOM     20  C   UNL     1      -5.817   3.994  16.107  0.00  0.00    +0.000 A 
ATOM     21  C   UNL     1      -8.135   4.640  15.787  0.00  0.00    +0.000 A 
ATOM     22  C   UNL     1      -7.133   3.678  15.768  0.00  0.00    +0.000 A 
ENDBRANCH   3   9
BRANCH   5  25
ATOM     23  O   UNL     1      -8.195  13.991  17.639  0.00  0.00    +0.000 OA
ATOM     24  N   UNL     1      -6.630  14.581  19.309  0.00  0.00    +0.000 N 
ATOM     25  C   UNL     1      -7.039  14.127  18.031  0.00  0.00    +0.000 C 
ATOM     26  C   UNL     1      -5.232  14.767  19.713  0.00  0.00    +0.000 C 
BRANCH  24  27
ATOM     27  C   UNL     1      -7.583  14.865  20.303  0.00  0.00    +0.000 C 
ATOM     28  C   UNL     1      -8.026  13.852  21.221  0.00  0.00    +0.000 C 
ATOM     29  C   UNL     1      -8.432  12.940  22.055  0.00  0.00    +0.000 C 
ATOM     30  C   UNL     1      -8.019  13.148  23.497  0.00  0.00    +0.000 C 
BRANCH  27  31
ATOM     31  C   UNL     1      -8.145  16.198  20.464  0.00  0.00    +0.000 C 
ATOM     32  C   UNL     1      -8.029  17.221  19.351  0.00  0.00    +0.000 C 
ATOM     33  C   UNL     1      -9.327  16.403  21.394  0.00  0.00    +0.000 C 
ENDBRANCH  27  31
BRANCH  29  35
ATOM     34  O   UNL     1     -10.452  11.664  21.721  0.00  0.00    +0.000 OA
ATOM     35  C   UNL     1      -9.246  11.795  21.564  0.00  0.00    +0.000 C 
BRANCH  35  36
ATOM     36  O   UNL     1      -8.545  10.853  20.898  0.00  0.00    +0.000 OA
ATOM     37  H   UNL     1      -9.211  10.200  20.598  0.00  0.00    +0.000 HD
ENDBRANCH  35  36
ENDBRANCH  29  35
ENDBRANCH  24  27
ENDBRANCH   5  25
BRANCH   5  38
ATOM     38  C   UNL     1      -5.521  14.744  16.101  0.00  0.00    +0.000 C 
ATOM     39  C   UNL     1      -3.959  14.777  16.110  0.00  0.00    +0.000 C 
ATOM     40  C   UNL     1      -5.990  14.248  14.704  0.00  0.00    +0.000 C 
ATOM     41  C   UNL     1      -6.060  16.164  16.400  0.00  0.00    +0.000 C 
ENDBRANCH   5  38
TORSDOF 7
ENDMDL
MODEL 6
REMARK VINA RESULT:      -5.2     20.148     23.771
REMARK  Name = 10940649_MilnamideD.pdbqt.pdb
REMARK  7 active torsions:
REMARK  status: ('A' for Active; 'I' for Inactive)
REMARK    1  A    between atoms: C_3  and  C_8
REMARK    2  A    between atoms: C_22  and  C_25
REMARK    3  A    between atoms: C_22  and  C_38
REMARK    4  A    between atoms: N_24  and  C_27
REMARK    5  A    between atoms: C_27  and  C_28
REMARK    6  A    between atoms: C_32  and  C_35
REMARK    7  A    between atoms: C_35  and  O_36
REMARK                            x       y       z     vdW  Elec       q    Type
REMARK                         _______ _______ _______ _____ _____    ______ ____
ROOT
ATOM      1  O   UNL     1      -2.207  13.864   1.481  0.00  0.00    +0.000 OA
ATOM      2  N   UNL     1      -3.874  15.391   1.276  0.00  0.00    +0.000 N 
ATOM      3  C   UNL     1      -2.699  14.928   1.836  0.00  0.00    +0.000 C 
ATOM      4  H   UNL     1      -4.307  16.233   1.672  0.00  0.00    +0.000 HD
ATOM      5  C   UNL     1      -4.585  14.751   0.232  0.00  0.00    +0.000 C 
ENDROOT
BRANCH   3   9
ATOM      6  N   UNL     1      -0.754  16.402   2.657  0.00  0.00    +0.000 NA
ATOM      7  N   UNL     1      -0.595  18.112   6.183  0.00  0.00    +0.000 N 
ATOM      8  C   UNL     1      -2.767  15.746   4.283  0.00  0.00    +0.000 C 
ATOM      9  C   UNL     1      -2.076  15.795   2.888  0.00  0.00    +0.000 C 
ATOM     10  C   UNL     1      -2.121  16.693   5.343  0.00  0.00    +0.000 A 
ATOM     11  C   UNL     1      -0.947  17.378   5.104  0.00  0.00    +0.000 A 
ATOM     12  C   UNL     1      -2.610  14.325   4.901  0.00  0.00    +0.000 C 
ATOM     13  C   UNL     1      -4.236  16.243   4.155  0.00  0.00    +0.000 C 
ATOM     14  C   UNL     1      -2.491  17.043   6.691  0.00  0.00    +0.000 A 
ATOM     15  C   UNL     1      -0.409  17.157   3.833  0.00  0.00    +0.000 C 
ATOM     16  C   UNL     1      -1.518  17.935   7.186  0.00  0.00    +0.000 A 
ATOM     17  C   UNL     1      -0.793  17.332   1.539  0.00  0.00    +0.000 C 
ATOM     18  C   UNL     1      -3.560  16.680   7.534  0.00  0.00    +0.000 A 
ATOM     19  C   UNL     1       0.571  18.925   6.258  0.00  0.00    +0.000 C 
ATOM     20  C   UNL     1      -1.587  18.469   8.482  0.00  0.00    +0.000 A 
ATOM     21  C   UNL     1      -3.632  17.208   8.823  0.00  0.00    +0.000 A 
ATOM     22  C   UNL     1      -2.663  18.088   9.285  0.00  0.00    +0.000 A 
ENDBRANCH   3   9
BRANCH   5  25
ATOM     23  O   UNL     1      -4.363  12.467  -0.158  0.00  0.00    +0.000 OA
ATOM     24  N   UNL     1      -3.087  13.920  -1.517  0.00  0.00    +0.000 N 
ATOM     25  C   UNL     1      -3.989  13.592  -0.475  0.00  0.00    +0.000 C 
ATOM     26  C   UNL     1      -2.640  15.282  -1.827  0.00  0.00    +0.000 C 
BRANCH  24  27
ATOM     27  C   UNL     1      -2.575  12.915  -2.357  0.00  0.00    +0.000 C 
ATOM     28  C   UNL     1      -1.629  11.949  -1.871  0.00  0.00    +0.000 C 
ATOM     29  C   UNL     1      -0.772  11.071  -1.438  0.00  0.00    +0.000 C 
ATOM     30  C   UNL     1      -1.283   9.648  -1.358  0.00  0.00    +0.000 C 
BRANCH  27  31
ATOM     31  C   UNL     1      -2.995  12.793  -3.745  0.00  0.00    +0.000 C 
ATOM     32  C   UNL     1      -1.977  12.523  -4.836  0.00  0.00    +0.000 C 
ATOM     33  C   UNL     1      -4.403  12.323  -4.061  0.00  0.00    +0.000 C 
ENDBRANCH  27  31
BRANCH  29  35
ATOM     34  O   UNL     1       0.952  12.650  -0.843  0.00  0.00    +0.000 OA
ATOM     35  C   UNL     1       0.604  11.499  -1.065  0.00  0.00    +0.000 C 
BRANCH  35  36
ATOM     36  O   UNL     1       1.502  10.494  -0.983  0.00  0.00    +0.000 OA
ATOM     37  H   UNL     1       0.980   9.702  -0.738  0.00  0.00    +0.000 HD
ENDBRANCH  35  36
ENDBRANCH  29  35
ENDBRANCH  24  27
ENDBRANCH   5  25
BRANCH   5  38
ATOM     38  C   UNL     1      -5.834  15.324  -0.419  0.00  0.00    +0.000 C 
ATOM     39  C   UNL     1      -6.980  15.219   0.638  0.00  0.00    +0.000 C 
ATOM     40  C   UNL     1      -5.573  16.830  -0.707  0.00  0.00    +0.000 C 
ATOM     41  C   UNL     1      -6.262  14.575  -1.705  0.00  0.00    +0.000 C 
ENDBRANCH   5  38
TORSDOF 7
ENDMDL
MODEL 7
REMARK VINA RESULT:      -5.1     19.892     22.737
REMARK  Name = 10940649_MilnamideD.pdbqt.pdb
REMARK  7 active torsions:
REMARK  status: ('A' for Active; 'I' for Inactive)
REMARK    1  A    between atoms: C_3  and  C_8
REMARK    2  A    between atoms: C_22  and  C_25
REMARK    3  A    between atoms: C_22  and  C_38
REMARK    4  A    between atoms: N_24  and  C_27
REMARK    5  A    between atoms: C_27  and  C_28
REMARK    6  A    between atoms: C_32  and  C_35
REMARK    7  A    between atoms: C_35  and  O_36
REMARK                            x       y       z     vdW  Elec       q    Type
REMARK                         _______ _______ _______ _____ _____    ______ ____
ROOT
ATOM      1  O   UNL     1     -23.745  17.703  11.248  0.00  0.00    +0.000 OA
ATOM      2  N   UNL     1     -25.949  17.930  10.756  0.00  0.00    +0.000 N 
ATOM      3  C   UNL     1     -24.654  17.569  10.438  0.00  0.00    +0.000 C 
ATOM      4  H   UNL     1     -26.661  17.898  10.018  0.00  0.00    +0.000 HD
ATOM      5  C   UNL     1     -26.372  18.418  12.017  0.00  0.00    +0.000 C 
ENDROOT
BRANCH   3   9
ATOM      6  N   UNL     1     -24.471  17.909   7.893  0.00  0.00    +0.000 NA
ATOM      7  N   UNL     1     -23.872  15.024   5.303  0.00  0.00    +0.000 N 
ATOM      8  C   UNL     1     -24.473  15.461   8.960  0.00  0.00    +0.000 C 
ATOM      9  C   UNL     1     -24.435  17.015   9.063  0.00  0.00    +0.000 C 
ATOM     10  C   UNL     1     -24.197  14.916   7.523  0.00  0.00    +0.000 A 
ATOM     11  C   UNL     1     -24.096  15.744   6.424  0.00  0.00    +0.000 A 
ATOM     12  C   UNL     1     -25.905  14.945   9.291  0.00  0.00    +0.000 C 
ATOM     13  C   UNL     1     -23.340  14.852   9.836  0.00  0.00    +0.000 C 
ATOM     14  C   UNL     1     -24.030  13.583   7.003  0.00  0.00    +0.000 A 
ATOM     15  C   UNL     1     -24.247  17.102   6.722  0.00  0.00    +0.000 C 
ATOM     16  C   UNL     1     -23.825  13.686   5.613  0.00  0.00    +0.000 A 
ATOM     17  C   UNL     1     -23.402  18.894   7.953  0.00  0.00    +0.000 C 
ATOM     18  C   UNL     1     -24.039  12.300   7.587  0.00  0.00    +0.000 A 
ATOM     19  C   UNL     1     -23.729  15.585   4.002  0.00  0.00    +0.000 C 
ATOM     20  C   UNL     1     -23.627  12.558   4.801  0.00  0.00    +0.000 A 
ATOM     21  C   UNL     1     -23.844  11.175   6.785  0.00  0.00    +0.000 A 
ATOM     22  C   UNL     1     -23.639  11.305   5.417  0.00  0.00    +0.000 A 
ENDBRANCH   3   9
BRANCH   5  25
ATOM     23  O   UNL     1     -25.288  17.337  13.771  0.00  0.00    +0.000 OA
ATOM     24  N   UNL     1     -24.762  19.614  13.420  0.00  0.00    +0.000 N 
ATOM     25  C   UNL     1     -25.444  18.398  13.173  0.00  0.00    +0.000 C 
ATOM     26  C   UNL     1     -25.017  20.867  12.700  0.00  0.00    +0.000 C 
BRANCH  24  27
ATOM     27  C   UNL     1     -23.746  19.677  14.390  0.00  0.00    +0.000 C 
ATOM     28  C   UNL     1     -22.365  19.812  14.016  0.00  0.00    +0.000 C 
ATOM     29  C   UNL     1     -21.113  19.934  13.685  0.00  0.00    +0.000 C 
ATOM     30  C   UNL     1     -20.468  21.252  14.056  0.00  0.00    +0.000 C 
BRANCH  27  31
ATOM     31  C   UNL     1     -24.046  19.633  15.814  0.00  0.00    +0.000 C 
ATOM     32  C   UNL     1     -22.996  20.025  16.834  0.00  0.00    +0.000 C 
ATOM     33  C   UNL     1     -25.480  19.807  16.280  0.00  0.00    +0.000 C 
ENDBRANCH  27  31
BRANCH  29  35
ATOM     34  O   UNL     1     -20.964  17.839  12.499  0.00  0.00    +0.000 OA
ATOM     35  C   UNL     1     -20.418  18.816  12.990  0.00  0.00    +0.000 C 
BRANCH  35  36
ATOM     36  O   UNL     1     -19.075  18.941  12.929  0.00  0.00    +0.000 OA
ATOM     37  H   UNL     1     -18.728  18.027  12.984  0.00  0.00    +0.000 HD
ENDBRANCH  35  36
ENDBRANCH  29  35
ENDBRANCH  24  27
ENDBRANCH   5  25
BRANCH   5  38
ATOM     38  C   UNL     1     -27.819  18.733  12.362  0.00  0.00    +0.000 C 
ATOM     39  C   UNL     1     -28.688  17.599  11.730  0.00  0.00    +0.000 C 
ATOM     40  C   UNL     1     -27.967  18.654  13.909  0.00  0.00    +0.000 C 
ATOM     41  C   UNL     1     -28.301  20.101  11.823  0.00  0.00    +0.000 C 
ENDBRANCH   5  38
TORSDOF 7
ENDMDL
MODEL 8
REMARK VINA RESULT:      -4.9     17.732     22.743
REMARK  Name = 10940649_MilnamideD.pdbqt.pdb
REMARK  7 active torsions:
REMARK  status: ('A' for Active; 'I' for Inactive)
REMARK    1  A    between atoms: C_3  and  C_8
REMARK    2  A    between atoms: C_22  and  C_25
REMARK    3  A    between atoms: C_22  and  C_38
REMARK    4  A    between atoms: N_24  and  C_27
REMARK    5  A    between atoms: C_27  and  C_28
REMARK    6  A    between atoms: C_32  and  C_35
REMARK    7  A    between atoms: C_35  and  O_36
REMARK                            x       y       z     vdW  Elec       q    Type
REMARK                         _______ _______ _______ _____ _____    ______ ____
ROOT
ATOM      1  O   UNL     1      -2.013  16.870   6.502  0.00  0.00    +0.000 OA
ATOM      2  N   UNL     1      -0.653  18.303   5.384  0.00  0.00    +0.000 N 
ATOM      3  C   UNL     1      -1.474  17.194   5.451  0.00  0.00    +0.000 C 
ATOM      4  H   UNL     1      -0.141  18.481   4.512  0.00  0.00    +0.000 HD
ATOM      5  C   UNL     1      -0.393  19.190   6.457  0.00  0.00    +0.000 C 
ENDROOT
BRANCH   3   9
ATOM      6  N   UNL     1      -0.494  15.880   3.466  0.00  0.00    +0.000 NA
ATOM      7  N   UNL     1      -2.614  14.387   0.523  0.00  0.00    +0.000 N 
ATOM      8  C   UNL     1      -3.085  16.517   3.552  0.00  0.00    +0.000 C 
ATOM      9  C   UNL     1      -1.662  16.426   4.178  0.00  0.00    +0.000 C 
ATOM     10  C   UNL     1      -3.259  15.669   2.252  0.00  0.00    +0.000 A 
ATOM     11  C   UNL     1      -2.200  15.037   1.633  0.00  0.00    +0.000 A 
ATOM     12  C   UNL     1      -3.367  17.977   3.090  0.00  0.00    +0.000 C 
ATOM     13  C   UNL     1      -4.131  15.933   4.545  0.00  0.00    +0.000 C 
ATOM     14  C   UNL     1      -4.403  15.377   1.425  0.00  0.00    +0.000 A 
ATOM     15  C   UNL     1      -0.975  15.214   2.284  0.00  0.00    +0.000 C 
ATOM     16  C   UNL     1      -3.966  14.571   0.355  0.00  0.00    +0.000 A 
ATOM     17  C   UNL     1       0.195  14.886   4.275  0.00  0.00    +0.000 C 
ATOM     18  C   UNL     1      -5.766  15.729   1.487  0.00  0.00    +0.000 A 
ATOM     19  C   UNL     1      -1.760  13.645  -0.341  0.00  0.00    +0.000 C 
ATOM     20  C   UNL     1      -4.843  14.109  -0.638  0.00  0.00    +0.000 A 
ATOM     21  C   UNL     1      -6.642  15.273   0.502  0.00  0.00    +0.000 A 
ATOM     22  C   UNL     1      -6.186  14.476  -0.540  0.00  0.00    +0.000 A 
ENDBRANCH   3   9
BRANCH   5  25
ATOM     23  O   UNL     1      -2.299  19.549   7.745  0.00  0.00    +0.000 OA
ATOM     24  N   UNL     1      -0.525  18.358   8.755  0.00  0.00    +0.000 N 
ATOM     25  C   UNL     1      -1.164  19.079   7.718  0.00  0.00    +0.000 C 
ATOM     26  C   UNL     1       0.851  17.854   8.686  0.00  0.00    +0.000 C 
BRANCH  24  27
ATOM     27  C   UNL     1      -1.214  18.055   9.943  0.00  0.00    +0.000 C 
ATOM     28  C   UNL     1      -2.354  17.181   9.940  0.00  0.00    +0.000 C 
ATOM     29  C   UNL     1      -3.387  16.390   9.945  0.00  0.00    +0.000 C 
ATOM     30  C   UNL     1      -3.188  15.064  10.649  0.00  0.00    +0.000 C 
BRANCH  27  31
ATOM     31  C   UNL     1      -0.792  18.592  11.229  0.00  0.00    +0.000 C 
ATOM     32  C   UNL     1      -0.763  20.089  11.465  0.00  0.00    +0.000 C 
ATOM     33  C   UNL     1      -0.970  17.755  12.482  0.00  0.00    +0.000 C 
ENDBRANCH  27  31
BRANCH  29  35
ATOM     34  O   UNL     1      -5.770  16.729   9.777  0.00  0.00    +0.000 OA
ATOM     35  C   UNL     1      -4.652  16.818   9.288  0.00  0.00    +0.000 C 
BRANCH  35  36
ATOM     36  O   UNL     1      -4.494  17.339   8.053  0.00  0.00    +0.000 OA
ATOM     37  H   UNL     1      -5.079  18.124   8.027  0.00  0.00    +0.000 HD
ENDBRANCH  35  36
ENDBRANCH  29  35
ENDBRANCH  24  27
ENDBRANCH   5  25
BRANCH   5  38
ATOM     38  C   UNL     1       0.454  20.447   6.332  0.00  0.00    +0.000 C 
ATOM     39  C   UNL     1      -0.102  21.243   5.108  0.00  0.00    +0.000 C 
ATOM     40  C   UNL     1       0.229  21.301   7.612  0.00  0.00    +0.000 C 
ATOM     41  C   UNL     1       1.959  20.160   6.109  0.00  0.00    +0.000 C 
ENDBRANCH   5  38
TORSDOF 7
ENDMDL
MODEL 9
REMARK VINA RESULT:      -4.8      9.054     14.066
REMARK  Name = 10940649_MilnamideD.pdbqt.pdb
REMARK  7 active torsions:
REMARK  status: ('A' for Active; 'I' for Inactive)
REMARK    1  A    between atoms: C_3  and  C_8
REMARK    2  A    between atoms: C_22  and  C_25
REMARK    3  A    between atoms: C_22  and  C_38
REMARK    4  A    between atoms: N_24  and  C_27
REMARK    5  A    between atoms: C_27  and  C_28
REMARK    6  A    between atoms: C_32  and  C_35
REMARK    7  A    between atoms: C_35  and  O_36
REMARK                            x       y       z     vdW  Elec       q    Type
REMARK                         _______ _______ _______ _____ _____    ______ ____
ROOT
ATOM      1  O   UNL     1      -6.047  12.888  17.681  0.00  0.00    +0.000 OA
ATOM      2  N   UNL     1      -5.021  14.749  18.479  0.00  0.00    +0.000 N 
ATOM      3  C   UNL     1      -5.247  13.798  17.502  0.00  0.00    +0.000 C 
ATOM      4  H   UNL     1      -4.271  15.434  18.330  0.00  0.00    +0.000 HD
ATOM      5  C   UNL     1      -5.697  14.816  19.721  0.00  0.00    +0.000 C 
ENDROOT
BRANCH   3   9
ATOM      6  N   UNL     1      -3.047  13.558  16.188  0.00  0.00    +0.000 NA
ATOM      7  N   UNL     1      -2.561  14.634  12.448  0.00  0.00    +0.000 N 
ATOM      8  C   UNL     1      -5.162  14.789  15.120  0.00  0.00    +0.000 C 
ATOM      9  C   UNL     1      -4.466  13.948  16.232  0.00  0.00    +0.000 C 
ATOM     10  C   UNL     1      -4.341  14.888  13.796  0.00  0.00    +0.000 A 
ATOM     11  C   UNL     1      -3.050  14.413  13.688  0.00  0.00    +0.000 A 
ATOM     12  C   UNL     1      -5.303  16.268  15.588  0.00  0.00    +0.000 C 
ATOM     13  C   UNL     1      -6.497  14.104  14.706  0.00  0.00    +0.000 C 
ATOM     14  C   UNL     1      -4.640  15.454  12.505  0.00  0.00    +0.000 A 
ATOM     15  C   UNL     1      -2.561  13.827  14.860  0.00  0.00    +0.000 C 
ATOM     16  C   UNL     1      -3.508  15.276  11.684  0.00  0.00    +0.000 A 
ATOM     17  C   UNL     1      -2.887  12.133  16.429  0.00  0.00    +0.000 C 
ATOM     18  C   UNL     1      -5.766  16.105  11.963  0.00  0.00    +0.000 A 
ATOM     19  C   UNL     1      -1.254  14.269  12.020  0.00  0.00    +0.000 C 
ATOM     20  C   UNL     1      -3.473  15.721  10.353  0.00  0.00    +0.000 A 
ATOM     21  C   UNL     1      -5.737  16.550  10.641  0.00  0.00    +0.000 A 
ATOM     22  C   UNL     1      -4.610  16.357   9.852  0.00  0.00    +0.000 A 
ENDBRANCH   3   9
BRANCH   5  25
ATOM     23  O   UNL     1      -7.956  14.286  19.538  0.00  0.00    +0.000 OA
ATOM     24  N   UNL     1      -6.574  12.735  20.666  0.00  0.00    +0.000 N 
ATOM     25  C   UNL     1      -6.865  13.941  19.983  0.00  0.00    +0.000 C 
ATOM     26  C   UNL     1      -5.258  12.391  21.214  0.00  0.00    +0.000 C 
BRANCH  24  27
ATOM     27  C   UNL     1      -7.569  11.756  20.837  0.00  0.00    +0.000 C 
ATOM     28  C   UNL     1      -7.466  10.471  20.203  0.00  0.00    +0.000 C 
ATOM     29  C   UNL     1      -7.380   9.305  19.631  0.00  0.00    +0.000 C 
ATOM     30  C   UNL     1      -7.172   8.135  20.569  0.00  0.00    +0.000 C 
BRANCH  27  31
ATOM     31  C   UNL     1      -8.732  11.989  21.681  0.00  0.00    +0.000 C 
ATOM     32  C   UNL     1      -9.859  10.976  21.735  0.00  0.00    +0.000 C 
ATOM     33  C   UNL     1      -8.593  12.849  22.924  0.00  0.00    +0.000 C 
ENDBRANCH  27  31
BRANCH  29  35
ATOM     34  O   UNL     1      -8.054   8.294  17.547  0.00  0.00    +0.000 OA
ATOM     35  C   UNL     1      -7.490   9.196  18.151  0.00  0.00    +0.000 C 
BRANCH  35  36
ATOM     36  O   UNL     1      -6.897  10.198  17.469  0.00  0.00    +0.000 OA
ATOM     37  H   UNL     1      -6.950   9.936  16.527  0.00  0.00    +0.000 HD
ENDBRANCH  35  36
ENDBRANCH  29  35
ENDBRANCH  24  27
ENDBRANCH   5  25
BRANCH   5  38
ATOM     38  C   UNL     1      -5.482  15.920  20.745  0.00  0.00    +0.000 C 
ATOM     39  C   UNL     1      -3.976  15.864  21.157  0.00  0.00    +0.000 C 
ATOM     40  C   UNL     1      -5.743  17.282  20.039  0.00  0.00    +0.000 C 
ATOM     41  C   UNL     1      -6.359  15.770  22.011  0.00  0.00    +0.000 C 
ENDBRANCH   5  38
TORSDOF 7
ENDMDL
