MODEL 1
REMARK VINA RESULT:      -7.5      0.000      0.000
REMARK  Name = 11167602_Regorafenib.pdbqt.pdb
REMARK  6 active torsions:
REMARK  status: ('A' for Active; 'I' for Inactive)
REMARK    1  A    between atoms: C_2  and  N_10
REMARK    2  A    between atoms: C_3  and  O_25
REMARK    3  A    between atoms: N_9  and  C_15
REMARK    4  A    between atoms: C_16  and  C_24
REMARK    5  A    between atoms: O_25  and  C_27
REMARK    6  A    between atoms: C_29  and  C_34
REMARK                            x       y       z     vdW  Elec       q    Type
REMARK                         _______ _______ _______ _____ _____    ______ ____
ROOT
ATOM      1  F   UNL     1     -15.869   1.018  -2.046  0.00  0.00    +0.000 F 
ATOM      2  C   UNL     1     -13.967   2.369  -1.648  0.00  0.00    +0.000 A 
ATOM      3  C   UNL     1     -12.538   0.057  -0.997  0.00  0.00    +0.000 A 
ATOM      4  C   UNL     1     -14.580   1.113  -1.686  0.00  0.00    +0.000 A 
ATOM      5  C   UNL     1     -12.631   2.452  -1.259  0.00  0.00    +0.000 A 
ATOM      6  C   UNL     1     -13.883  -0.043  -1.351  0.00  0.00    +0.000 A 
ATOM      7  C   UNL     1     -11.919   1.302  -0.920  0.00  0.00    +0.000 A 
ENDROOT
BRANCH   2  10
ATOM      8  O   UNL     1     -13.162   5.159  -1.679  0.00  0.00    +0.000 OA
ATOM      9  N   UNL     1     -15.281   5.669  -2.451  0.00  0.00    +0.000 N 
ATOM     10  N   UNL     1     -14.732   3.498  -2.010  0.00  0.00    +0.000 N 
ATOM     11  C   UNL     1     -14.285   4.809  -2.016  0.00  0.00    +0.000 C 
ATOM     12  H   UNL     1     -16.163   5.266  -2.733  0.00  0.00    +0.000 HD
ATOM     13  H   UNL     1     -15.690   3.312  -2.272  0.00  0.00    +0.000 HD
BRANCH   9  15
ATOM     14 CL   UNL     1     -14.795  11.560  -2.790  0.00  0.00    +0.000 Cl
ATOM     15  C   UNL     1     -15.161   7.066  -2.565  0.00  0.00    +0.000 A 
ATOM     16  C   UNL     1     -15.187   9.222  -1.424  0.00  0.00    +0.000 A 
ATOM     17  C   UNL     1     -15.293   7.826  -1.403  0.00  0.00    +0.000 A 
ATOM     18  C   UNL     1     -14.917   7.714  -3.772  0.00  0.00    +0.000 A 
ATOM     19  C   UNL     1     -14.944   9.852  -2.646  0.00  0.00    +0.000 A 
ATOM     20  C   UNL     1     -14.810   9.101  -3.813  0.00  0.00    +0.000 A 
BRANCH  16  24
ATOM     21  F   UNL     1     -16.631  10.325   0.121  0.00  0.00    +0.000 F 
ATOM     22  F   UNL     1     -14.930   9.265   0.945  0.00  0.00    +0.000 F 
ATOM     23  F   UNL     1     -14.640  11.144  -0.124  0.00  0.00    +0.000 F 
ATOM     24  C   UNL     1     -15.338   9.977  -0.140  0.00  0.00    +0.000 C 
ENDBRANCH  16  24
ENDBRANCH   9  15
ENDBRANCH   2  10
BRANCH   3  25
ATOM     25  O   UNL     1     -11.810  -1.034  -0.581  0.00  0.00    +0.000 OA
BRANCH  25  27
ATOM     26  N   UNL     1     -10.503  -0.940   3.380  0.00  0.00    +0.000 NA
ATOM     27  C   UNL     1     -11.305  -1.019   0.700  0.00  0.00    +0.000 A 
ATOM     28  C   UNL     1     -10.084  -0.444   1.035  0.00  0.00    +0.000 A 
ATOM     29  C   UNL     1      -9.730  -0.441   2.374  0.00  0.00    +0.000 A 
ATOM     30  C   UNL     1     -12.139  -1.521   1.694  0.00  0.00    +0.000 A 
ATOM     31  C   UNL     1     -11.692  -1.464   3.005  0.00  0.00    +0.000 A 
BRANCH  29  34
ATOM     32  O   UNL     1      -7.444   0.028   2.041  0.00  0.00    +0.000 OA
ATOM     33  N   UNL     1      -8.468   0.748   4.015  0.00  0.00    +0.000 N 
ATOM     34  C   UNL     1      -8.420   0.132   2.777  0.00  0.00    +0.000 C 
ATOM     35  C   UNL     1      -7.457   1.418   4.787  0.00  0.00    +0.000 C 
ATOM     36  H   UNL     1      -9.383   0.717   4.464  0.00  0.00    +0.000 HD
ENDBRANCH  29  34
ENDBRANCH  25  27
ENDBRANCH   3  25
TORSDOF 6
ENDMDL
MODEL 2
REMARK VINA RESULT:      -7.2     17.973     20.288
REMARK  Name = 11167602_Regorafenib.pdbqt.pdb
REMARK  6 active torsions:
REMARK  status: ('A' for Active; 'I' for Inactive)
REMARK    1  A    between atoms: C_2  and  N_10
REMARK    2  A    between atoms: C_3  and  O_25
REMARK    3  A    between atoms: N_9  and  C_15
REMARK    4  A    between atoms: C_16  and  C_24
REMARK    5  A    between atoms: O_25  and  C_27
REMARK    6  A    between atoms: C_29  and  C_34
REMARK                            x       y       z     vdW  Elec       q    Type
REMARK                         _______ _______ _______ _____ _____    ______ ____
ROOT
ATOM      1  F   UNL     1      -7.166   7.654  17.700  0.00  0.00    +0.000 F 
ATOM      2  C   UNL     1      -8.521   5.976  16.725  0.00  0.00    +0.000 A 
ATOM      3  C   UNL     1      -6.316   5.162  15.212  0.00  0.00    +0.000 A 
ATOM      4  C   UNL     1      -7.290   6.628  16.843  0.00  0.00    +0.000 A 
ATOM      5  C   UNL     1      -8.638   4.922  15.820  0.00  0.00    +0.000 A 
ATOM      6  C   UNL     1      -6.190   6.241  16.086  0.00  0.00    +0.000 A 
ATOM      7  C   UNL     1      -7.543   4.521  15.054  0.00  0.00    +0.000 A 
ENDROOT
BRANCH   2  10
ATOM      8  O   UNL     1      -9.299   5.039  19.361  0.00  0.00    +0.000 OA
ATOM      9  N   UNL     1     -11.000   6.605  19.317  0.00  0.00    +0.000 N 
ATOM     10  N   UNL     1      -9.592   6.416  17.531  0.00  0.00    +0.000 N 
ATOM     11  C   UNL     1      -9.906   5.935  18.791  0.00  0.00    +0.000 C 
ATOM     12  H   UNL     1     -11.406   7.350  18.770  0.00  0.00    +0.000 HD
ATOM     13  H   UNL     1     -10.176   7.135  17.127  0.00  0.00    +0.000 HD
BRANCH   9  15
ATOM     14 CL   UNL     1     -13.541   5.458  24.541  0.00  0.00    +0.000 Cl
ATOM     15  C   UNL     1     -11.583   6.354  20.573  0.00  0.00    +0.000 A 
ATOM     16  C   UNL     1     -13.261   5.117  21.840  0.00  0.00    +0.000 A 
ATOM     17  C   UNL     1     -12.624   5.427  20.633  0.00  0.00    +0.000 A 
ATOM     18  C   UNL     1     -11.171   6.984  21.743  0.00  0.00    +0.000 A 
ATOM     19  C   UNL     1     -12.832   5.761  23.002  0.00  0.00    +0.000 A 
ATOM     20  C   UNL     1     -11.793   6.690  22.953  0.00  0.00    +0.000 A 
BRANCH  16  24
ATOM     21  F   UNL     1     -14.127   3.050  22.657  0.00  0.00    +0.000 F 
ATOM     22  F   UNL     1     -15.557   4.628  22.250  0.00  0.00    +0.000 F 
ATOM     23  F   UNL     1     -14.590   3.570  20.605  0.00  0.00    +0.000 F 
ATOM     24  C   UNL     1     -14.369   4.111  21.834  0.00  0.00    +0.000 C 
ENDBRANCH  16  24
ENDBRANCH   9  15
ENDBRANCH   2  10
BRANCH   3  25
ATOM     25  O   UNL     1      -5.293   4.773  14.379  0.00  0.00    +0.000 OA
BRANCH  25  27
ATOM     26  N   UNL     1      -2.044   2.624  15.872  0.00  0.00    +0.000 NA
ATOM     27  C   UNL     1      -4.271   4.027  14.921  0.00  0.00    +0.000 A 
ATOM     28  C   UNL     1      -4.391   2.677  15.234  0.00  0.00    +0.000 A 
ATOM     29  C   UNL     1      -3.262   2.033  15.710  0.00  0.00    +0.000 A 
ATOM     30  C   UNL     1      -3.043   4.668  15.047  0.00  0.00    +0.000 A 
ATOM     31  C   UNL     1      -1.973   3.931  15.529  0.00  0.00    +0.000 A 
BRANCH  29  34
ATOM     32  O   UNL     1      -3.568   0.277  17.253  0.00  0.00    +0.000 OA
ATOM     33  N   UNL     1      -3.157  -0.248  15.012  0.00  0.00    +0.000 N 
ATOM     34  C   UNL     1      -3.349   0.599  16.090  0.00  0.00    +0.000 C 
ATOM     35  C   UNL     1      -3.150  -1.682  14.916  0.00  0.00    +0.000 C 
ATOM     36  H   UNL     1      -2.984   0.230  14.128  0.00  0.00    +0.000 HD
ENDBRANCH  29  34
ENDBRANCH  25  27
ENDBRANCH   3  25
TORSDOF 6
ENDMDL
MODEL 3
REMARK VINA RESULT:      -7.1     16.322     18.289
REMARK  Name = 11167602_Regorafenib.pdbqt.pdb
REMARK  6 active torsions:
REMARK  status: ('A' for Active; 'I' for Inactive)
REMARK    1  A    between atoms: C_2  and  N_10
REMARK    2  A    between atoms: C_3  and  O_25
REMARK    3  A    between atoms: N_9  and  C_15
REMARK    4  A    between atoms: C_16  and  C_24
REMARK    5  A    between atoms: O_25  and  C_27
REMARK    6  A    between atoms: C_29  and  C_34
REMARK                            x       y       z     vdW  Elec       q    Type
REMARK                         _______ _______ _______ _____ _____    ______ ____
ROOT
ATOM      1  F   UNL     1      -5.906   4.553  14.301  0.00  0.00    +0.000 F 
ATOM      2  C   UNL     1      -7.118   3.564  16.077  0.00  0.00    +0.000 A 
ATOM      3  C   UNL     1      -5.872   1.132  15.491  0.00  0.00    +0.000 A 
ATOM      4  C   UNL     1      -6.198   3.464  15.029  0.00  0.00    +0.000 A 
ATOM      5  C   UNL     1      -7.421   2.421  16.816  0.00  0.00    +0.000 A 
ATOM      6  C   UNL     1      -5.582   2.256  14.719  0.00  0.00    +0.000 A 
ATOM      7  C   UNL     1      -6.811   1.203  16.518  0.00  0.00    +0.000 A 
ENDROOT
BRANCH   2  10
ATOM      8  O   UNL     1      -5.954   5.830  17.473  0.00  0.00    +0.000 OA
ATOM      9  N   UNL     1      -7.921   6.975  17.069  0.00  0.00    +0.000 N 
ATOM     10  N   UNL     1      -7.697   4.823  16.342  0.00  0.00    +0.000 N 
ATOM     11  C   UNL     1      -7.084   5.873  17.005  0.00  0.00    +0.000 C 
ATOM     12  H   UNL     1      -8.824   6.909  16.622  0.00  0.00    +0.000 HD
ATOM     13  H   UNL     1      -8.649   4.942  16.022  0.00  0.00    +0.000 HD
BRANCH   9  15
ATOM     14 CL   UNL     1      -6.557  12.185  19.529  0.00  0.00    +0.000 Cl
ATOM     15  C   UNL     1      -7.610   8.203  17.682  0.00  0.00    +0.000 A 
ATOM     16  C   UNL     1      -6.622  10.419  17.439  0.00  0.00    +0.000 A 
ATOM     17  C   UNL     1      -6.968   9.171  16.910  0.00  0.00    +0.000 A 
ATOM     18  C   UNL     1      -7.913   8.489  19.010  0.00  0.00    +0.000 A 
ATOM     19  C   UNL     1      -6.934  10.685  18.773  0.00  0.00    +0.000 A 
ATOM     20  C   UNL     1      -7.576   9.724  19.554  0.00  0.00    +0.000 A 
BRANCH  16  24
ATOM     21  F   UNL     1      -4.763  11.870  17.082  0.00  0.00    +0.000 F 
ATOM     22  F   UNL     1      -5.608  10.902  15.337  0.00  0.00    +0.000 F 
ATOM     23  F   UNL     1      -6.684  12.525  16.322  0.00  0.00    +0.000 F 
ATOM     24  C   UNL     1      -5.935  11.412  16.555  0.00  0.00    +0.000 C 
ENDBRANCH  16  24
ENDBRANCH   9  15
ENDBRANCH   2  10
BRANCH   3  25
ATOM     25  O   UNL     1      -5.358  -0.109  15.195  0.00  0.00    +0.000 OA
BRANCH  25  27
ATOM     26  N   UNL     1      -7.894  -2.601  13.010  0.00  0.00    +0.000 NA
ATOM     27  C   UNL     1      -6.166  -0.993  14.514  0.00  0.00    +0.000 A 
ATOM     28  C   UNL     1      -6.817  -2.060  15.124  0.00  0.00    +0.000 A 
ATOM     29  C   UNL     1      -7.652  -2.830  14.332  0.00  0.00    +0.000 A 
ATOM     30  C   UNL     1      -6.398  -0.705  13.173  0.00  0.00    +0.000 A 
ATOM     31  C   UNL     1      -7.257  -1.536  12.471  0.00  0.00    +0.000 A 
BRANCH  29  34
ATOM     32  O   UNL     1      -8.408  -5.063  14.320  0.00  0.00    +0.000 OA
ATOM     33  N   UNL     1      -8.865  -3.726  16.183  0.00  0.00    +0.000 N 
ATOM     34  C   UNL     1      -8.343  -4.001  14.931  0.00  0.00    +0.000 C 
ATOM     35  C   UNL     1      -9.602  -4.543  17.109  0.00  0.00    +0.000 C 
ATOM     36  H   UNL     1      -8.702  -2.773  16.506  0.00  0.00    +0.000 HD
ENDBRANCH  29  34
ENDBRANCH  25  27
ENDBRANCH   3  25
TORSDOF 6
ENDMDL
MODEL 4
REMARK VINA RESULT:      -7.0      1.589      2.032
REMARK  Name = 11167602_Regorafenib.pdbqt.pdb
REMARK  6 active torsions:
REMARK  status: ('A' for Active; 'I' for Inactive)
REMARK    1  A    between atoms: C_2  and  N_10
REMARK    2  A    between atoms: C_3  and  O_25
REMARK    3  A    between atoms: N_9  and  C_15
REMARK    4  A    between atoms: C_16  and  C_24
REMARK    5  A    between atoms: O_25  and  C_27
REMARK    6  A    between atoms: C_29  and  C_34
REMARK                            x       y       z     vdW  Elec       q    Type
REMARK                         _______ _______ _______ _____ _____    ______ ____
ROOT
ATOM      1  F   UNL     1     -11.184   3.338  -2.547  0.00  0.00    +0.000 F 
ATOM      2  C   UNL     1     -13.225   2.432  -1.764  0.00  0.00    +0.000 A 
ATOM      3  C   UNL     1     -11.758   0.579  -0.272  0.00  0.00    +0.000 A 
ATOM      4  C   UNL     1     -11.828   2.432  -1.795  0.00  0.00    +0.000 A 
ATOM      5  C   UNL     1     -13.879   1.475  -0.989  0.00  0.00    +0.000 A 
ATOM      6  C   UNL     1     -11.087   1.506  -1.068  0.00  0.00    +0.000 A 
ATOM      7  C   UNL     1     -13.151   0.541  -0.254  0.00  0.00    +0.000 A 
ENDROOT
BRANCH   2  10
ATOM      8  O   UNL     1     -13.171   5.320  -1.461  0.00  0.00    +0.000 OA
ATOM      9  N   UNL     1     -14.612   5.446  -3.264  0.00  0.00    +0.000 N 
ATOM     10  N   UNL     1     -13.912   3.406  -2.519  0.00  0.00    +0.000 N 
ATOM     11  C   UNL     1     -13.835   4.776  -2.333  0.00  0.00    +0.000 C 
ATOM     12  H   UNL     1     -15.096   4.897  -3.958  0.00  0.00    +0.000 HD
ATOM     13  H   UNL     1     -14.517   3.049  -3.245  0.00  0.00    +0.000 HD
BRANCH   9  15
ATOM     14 CL   UNL     1     -15.276  11.327  -3.471  0.00  0.00    +0.000 Cl
ATOM     15  C   UNL     1     -14.765   6.843  -3.347  0.00  0.00    +0.000 A 
ATOM     16  C   UNL     1     -15.216   8.926  -2.160  0.00  0.00    +0.000 A 
ATOM     17  C   UNL     1     -15.050   7.536  -2.170  0.00  0.00    +0.000 A 
ATOM     18  C   UNL     1     -14.643   7.553  -4.537  0.00  0.00    +0.000 A 
ATOM     19  C   UNL     1     -15.091   9.619  -3.365  0.00  0.00    +0.000 A 
ATOM     20  C   UNL     1     -14.807   8.935  -4.547  0.00  0.00    +0.000 A 
BRANCH  16  24
ATOM     21  F   UNL     1     -14.687  10.657  -0.607  0.00  0.00    +0.000 F 
ATOM     22  F   UNL     1     -16.777  10.123  -0.815  0.00  0.00    +0.000 F 
ATOM     23  F   UNL     1     -15.398   8.782   0.213  0.00  0.00    +0.000 F 
ATOM     24  C   UNL     1     -15.519   9.607  -0.862  0.00  0.00    +0.000 C 
ENDBRANCH  16  24
ENDBRANCH   9  15
ENDBRANCH   2  10
BRANCH   3  25
ATOM     25  O   UNL     1     -11.094  -0.412   0.413  0.00  0.00    +0.000 OA
BRANCH  25  27
ATOM     26  N   UNL     1      -9.500   0.769   4.084  0.00  0.00    +0.000 NA
ATOM     27  C   UNL     1     -10.517  -0.083   1.619  0.00  0.00    +0.000 A 
ATOM     28  C   UNL     1      -9.145  -0.123   1.848  0.00  0.00    +0.000 A 
ATOM     29  C   UNL     1      -8.696   0.300   3.088  0.00  0.00    +0.000 A 
ATOM     30  C   UNL     1     -11.375   0.409   2.597  0.00  0.00    +0.000 A 
ATOM     31  C   UNL     1     -10.822   0.812   3.802  0.00  0.00    +0.000 A 
BRANCH  29  34
ATOM     32  O   UNL     1      -6.766   0.940   4.282  0.00  0.00    +0.000 OA
ATOM     33  N   UNL     1      -6.564  -0.643   2.572  0.00  0.00    +0.000 N 
ATOM     34  C   UNL     1      -7.243   0.244   3.391  0.00  0.00    +0.000 C 
ATOM     35  C   UNL     1      -5.175  -1.008   2.508  0.00  0.00    +0.000 C 
ATOM     36  H   UNL     1      -7.153  -1.120   1.891  0.00  0.00    +0.000 HD
ENDBRANCH  29  34
ENDBRANCH  25  27
ENDBRANCH   3  25
TORSDOF 6
ENDMDL
MODEL 5
REMARK VINA RESULT:      -7.0     18.085     20.490
REMARK  Name = 11167602_Regorafenib.pdbqt.pdb
REMARK  6 active torsions:
REMARK  status: ('A' for Active; 'I' for Inactive)
REMARK    1  A    between atoms: C_2  and  N_10
REMARK    2  A    between atoms: C_3  and  O_25
REMARK    3  A    between atoms: N_9  and  C_15
REMARK    4  A    between atoms: C_16  and  C_24
REMARK    5  A    between atoms: O_25  and  C_27
REMARK    6  A    between atoms: C_29  and  C_34
REMARK                            x       y       z     vdW  Elec       q    Type
REMARK                         _______ _______ _______ _____ _____    ______ ____
ROOT
ATOM      1  F   UNL     1      -7.118   7.704  17.643  0.00  0.00    +0.000 F 
ATOM      2  C   UNL     1      -8.500   6.002  16.752  0.00  0.00    +0.000 A 
ATOM      3  C   UNL     1      -6.340   5.151  15.194  0.00  0.00    +0.000 A 
ATOM      4  C   UNL     1      -7.266   6.657  16.817  0.00  0.00    +0.000 A 
ATOM      5  C   UNL     1      -8.642   4.925  15.878  0.00  0.00    +0.000 A 
ATOM      6  C   UNL     1      -6.188   6.252  16.037  0.00  0.00    +0.000 A 
ATOM      7  C   UNL     1      -7.570   4.506  15.090  0.00  0.00    +0.000 A 
ENDROOT
BRANCH   2  10
ATOM      8  O   UNL     1      -9.294   5.026  19.369  0.00  0.00    +0.000 OA
ATOM      9  N   UNL     1     -10.932   6.657  19.381  0.00  0.00    +0.000 N 
ATOM     10  N   UNL     1      -9.547   6.462  17.578  0.00  0.00    +0.000 N 
ATOM     11  C   UNL     1      -9.870   5.960  18.828  0.00  0.00    +0.000 C 
ATOM     12  H   UNL     1     -11.313   7.432  18.857  0.00  0.00    +0.000 HD
ATOM     13  H   UNL     1     -10.105   7.214  17.199  0.00  0.00    +0.000 HD
BRANCH   9  15
ATOM     14 CL   UNL     1     -13.477   5.471  24.594  0.00  0.00    +0.000 Cl
ATOM     15  C   UNL     1     -11.516   6.397  20.635  0.00  0.00    +0.000 A 
ATOM     16  C   UNL     1     -13.228   5.189  21.884  0.00  0.00    +0.000 A 
ATOM     17  C   UNL     1     -12.588   5.506  20.680  0.00  0.00    +0.000 A 
ATOM     18  C   UNL     1     -11.073   6.981  21.817  0.00  0.00    +0.000 A 
ATOM     19  C   UNL     1     -12.768   5.787  23.058  0.00  0.00    +0.000 A 
ATOM     20  C   UNL     1     -11.696   6.679  23.023  0.00  0.00    +0.000 A 
BRANCH  16  24
ATOM     21  F   UNL     1     -15.541   4.778  22.294  0.00  0.00    +0.000 F 
ATOM     22  F   UNL     1     -14.638   3.746  20.616  0.00  0.00    +0.000 F 
ATOM     23  F   UNL     1     -14.170   3.140  22.658  0.00  0.00    +0.000 F 
ATOM     24  C   UNL     1     -14.372   4.224  21.861  0.00  0.00    +0.000 C 
ENDBRANCH  16  24
ENDBRANCH   9  15
ENDBRANCH   2  10
BRANCH   3  25
ATOM     25  O   UNL     1      -5.342   4.742  14.341  0.00  0.00    +0.000 OA
BRANCH  25  27
ATOM     26  N   UNL     1      -1.781   3.618  16.203  0.00  0.00    +0.000 NA
ATOM     27  C   UNL     1      -4.127   4.396  14.891  0.00  0.00    +0.000 A 
ATOM     28  C   UNL     1      -2.985   5.182  14.779  0.00  0.00    +0.000 A 
ATOM     29  C   UNL     1      -1.849   4.746  15.440  0.00  0.00    +0.000 A 
ATOM     30  C   UNL     1      -4.115   3.249  15.678  0.00  0.00    +0.000 A 
ATOM     31  C   UNL     1      -2.926   2.904  16.301  0.00  0.00    +0.000 A 
BRANCH  29  34
ATOM     32  O   UNL     1       0.410   5.199  15.944  0.00  0.00    +0.000 OA
ATOM     33  N   UNL     1      -0.727   6.619  14.475  0.00  0.00    +0.000 N 
ATOM     34  C   UNL     1      -0.594   5.533  15.323  0.00  0.00    +0.000 C 
ATOM     35  C   UNL     1       0.208   7.637  14.076  0.00  0.00    +0.000 C 
ATOM     36  H   UNL     1      -1.653   6.718  14.061  0.00  0.00    +0.000 HD
ENDBRANCH  29  34
ENDBRANCH  25  27
ENDBRANCH   3  25
TORSDOF 6
ENDMDL
MODEL 6
REMARK VINA RESULT:      -6.9     15.383     20.069
REMARK  Name = 11167602_Regorafenib.pdbqt.pdb
REMARK  6 active torsions:
REMARK  status: ('A' for Active; 'I' for Inactive)
REMARK    1  A    between atoms: C_2  and  N_10
REMARK    2  A    between atoms: C_3  and  O_25
REMARK    3  A    between atoms: N_9  and  C_15
REMARK    4  A    between atoms: C_16  and  C_24
REMARK    5  A    between atoms: O_25  and  C_27
REMARK    6  A    between atoms: C_29  and  C_34
REMARK                            x       y       z     vdW  Elec       q    Type
REMARK                         _______ _______ _______ _____ _____    ______ ____
ROOT
ATOM      1  F   UNL     1     -24.535  12.623  10.661  0.00  0.00    +0.000 F 
ATOM      2  C   UNL     1     -22.583  13.236   9.473  0.00  0.00    +0.000 A 
ATOM      3  C   UNL     1     -22.626  15.698  10.796  0.00  0.00    +0.000 A 
ATOM      4  C   UNL     1     -23.586  13.534  10.400  0.00  0.00    +0.000 A 
ATOM      5  C   UNL     1     -21.612  14.199   9.202  0.00  0.00    +0.000 A 
ATOM      6  C   UNL     1     -23.626  14.761  11.055  0.00  0.00    +0.000 A 
ATOM      7  C   UNL     1     -21.638  15.434   9.851  0.00  0.00    +0.000 A 
ENDROOT
BRANCH   2  10
ATOM      8  O   UNL     1     -24.122  12.374   7.166  0.00  0.00    +0.000 OA
ATOM      9  N   UNL     1     -23.108  10.307   7.375  0.00  0.00    +0.000 N 
ATOM     10  N   UNL     1     -22.599  11.969   8.854  0.00  0.00    +0.000 N 
ATOM     11  C   UNL     1     -23.349  11.621   7.743  0.00  0.00    +0.000 C 
ATOM     12  H   UNL     1     -22.426   9.785   7.906  0.00  0.00    +0.000 HD
ATOM     13  H   UNL     1     -22.014  11.265   9.283  0.00  0.00    +0.000 HD
BRANCH   9  15
ATOM     14 CL   UNL     1     -25.685   7.375   2.922  0.00  0.00    +0.000 Cl
ATOM     15  C   UNL     1     -23.715   9.637   6.296  0.00  0.00    +0.000 A 
ATOM     16  C   UNL     1     -24.816   7.608   5.507  0.00  0.00    +0.000 A 
ATOM     17  C   UNL     1     -24.198   8.348   6.522  0.00  0.00    +0.000 A 
ATOM     18  C   UNL     1     -23.852  10.198   5.031  0.00  0.00    +0.000 A 
ATOM     19  C   UNL     1     -24.943   8.191   4.244  0.00  0.00    +0.000 A 
ATOM     20  C   UNL     1     -24.463   9.479   4.009  0.00  0.00    +0.000 A 
BRANCH  16  24
ATOM     21  F   UNL     1     -25.276   5.941   7.149  0.00  0.00    +0.000 F 
ATOM     22  F   UNL     1     -26.607   6.037   5.442  0.00  0.00    +0.000 F 
ATOM     23  F   UNL     1     -24.584   5.254   5.215  0.00  0.00    +0.000 F 
ATOM     24  C   UNL     1     -25.314   6.232   5.817  0.00  0.00    +0.000 C 
ENDBRANCH  16  24
ENDBRANCH   9  15
ENDBRANCH   2  10
BRANCH   3  25
ATOM     25  O   UNL     1     -22.646  16.957  11.350  0.00  0.00    +0.000 OA
BRANCH  25  27
ATOM     26  N   UNL     1     -25.973  19.392  10.712  0.00  0.00    +0.000 NA
ATOM     27  C   UNL     1     -23.785  17.713  11.188  0.00  0.00    +0.000 A 
ATOM     28  C   UNL     1     -24.651  18.025  12.230  0.00  0.00    +0.000 A 
ATOM     29  C   UNL     1     -25.724  18.851  11.938  0.00  0.00    +0.000 A 
ATOM     30  C   UNL     1     -23.985  18.259   9.924  0.00  0.00    +0.000 A 
ATOM     31  C   UNL     1     -25.087  19.079   9.739  0.00  0.00    +0.000 A 
BRANCH  29  34
ATOM     32  O   UNL     1     -27.147  18.306  13.737  0.00  0.00    +0.000 OA
ATOM     33  N   UNL     1     -26.990  20.537  13.058  0.00  0.00    +0.000 N 
ATOM     34  C   UNL     1     -26.695  19.186  13.011  0.00  0.00    +0.000 C 
ATOM     35  C   UNL     1     -27.863  21.294  13.914  0.00  0.00    +0.000 C 
ATOM     36  H   UNL     1     -26.505  21.097  12.358  0.00  0.00    +0.000 HD
ENDBRANCH  29  34
ENDBRANCH  25  27
ENDBRANCH   3  25
TORSDOF 6
ENDMDL
MODEL 7
REMARK VINA RESULT:      -6.7      2.108      2.921
REMARK  Name = 11167602_Regorafenib.pdbqt.pdb
REMARK  6 active torsions:
REMARK  status: ('A' for Active; 'I' for Inactive)
REMARK    1  A    between atoms: C_2  and  N_10
REMARK    2  A    between atoms: C_3  and  O_25
REMARK    3  A    between atoms: N_9  and  C_15
REMARK    4  A    between atoms: C_16  and  C_24
REMARK    5  A    between atoms: O_25  and  C_27
REMARK    6  A    between atoms: C_29  and  C_34
REMARK                            x       y       z     vdW  Elec       q    Type
REMARK                         _______ _______ _______ _____ _____    ______ ____
ROOT
ATOM      1  F   UNL     1     -14.018   2.929  -4.860  0.00  0.00    +0.000 F 
ATOM      2  C   UNL     1     -15.207   2.355  -2.896  0.00  0.00    +0.000 A 
ATOM      3  C   UNL     1     -13.978  -0.156  -2.961  0.00  0.00    +0.000 A 
ATOM      4  C   UNL     1     -14.303   2.025  -3.911  0.00  0.00    +0.000 A 
ATOM      5  C   UNL     1     -15.503   1.399  -1.925  0.00  0.00    +0.000 A 
ATOM      6  C   UNL     1     -13.696   0.774  -3.961  0.00  0.00    +0.000 A 
ATOM      7  C   UNL     1     -14.902   0.142  -1.962  0.00  0.00    +0.000 A 
ENDROOT
BRANCH   2  10
ATOM      8  O   UNL     1     -14.141   4.805  -1.758  0.00  0.00    +0.000 OA
ATOM      9  N   UNL     1     -16.022   5.887  -2.555  0.00  0.00    +0.000 N 
ATOM     10  N   UNL     1     -15.778   3.645  -2.902  0.00  0.00    +0.000 N 
ATOM     11  C   UNL     1     -15.212   4.782  -2.349  0.00  0.00    +0.000 C 
ATOM     12  H   UNL     1     -16.872   5.758  -3.084  0.00  0.00    +0.000 HD
ATOM     13  H   UNL     1     -16.685   3.719  -3.340  0.00  0.00    +0.000 HD
BRANCH   9  15
ATOM     14 CL   UNL     1     -14.923  11.357  -0.570  0.00  0.00    +0.000 Cl
ATOM     15  C   UNL     1     -15.746   7.195  -2.113  0.00  0.00    +0.000 A 
ATOM     16  C   UNL     1     -15.915   8.820  -0.302  0.00  0.00    +0.000 A 
ATOM     17  C   UNL     1     -16.148   7.542  -0.823  0.00  0.00    +0.000 A 
ATOM     18  C   UNL     1     -15.097   8.143  -2.898  0.00  0.00    +0.000 A 
ATOM     19  C   UNL     1     -15.263   9.757  -1.107  0.00  0.00    +0.000 A 
ATOM     20  C   UNL     1     -14.857   9.419  -2.397  0.00  0.00    +0.000 A 
BRANCH  16  24
ATOM     21  F   UNL     1     -16.946   8.055   1.708  0.00  0.00    +0.000 F 
ATOM     22  F   UNL     1     -15.356   9.513   1.908  0.00  0.00    +0.000 F 
ATOM     23  F   UNL     1     -17.306  10.114   1.138  0.00  0.00    +0.000 F 
ATOM     24  C   UNL     1     -16.371   9.127   1.089  0.00  0.00    +0.000 C 
ENDBRANCH  16  24
ENDBRANCH   9  15
ENDBRANCH   2  10
BRANCH   3  25
ATOM     25  O   UNL     1     -13.474  -1.435  -2.990  0.00  0.00    +0.000 OA
BRANCH  25  27
ATOM     26  N   UNL     1      -9.752  -2.304  -1.317  0.00  0.00    +0.000 NA
ATOM     27  C   UNL     1     -12.254  -1.658  -2.391  0.00  0.00    +0.000 A 
ATOM     28  C   UNL     1     -12.038  -1.524  -1.023  0.00  0.00    +0.000 A 
ATOM     29  C   UNL     1     -10.779  -1.847  -0.546  0.00  0.00    +0.000 A 
ATOM     30  C   UNL     1     -11.244  -2.143  -3.215  0.00  0.00    +0.000 A 
ATOM     31  C   UNL     1     -10.022  -2.441  -2.636  0.00  0.00    +0.000 A 
BRANCH  29  34
ATOM     32  O   UNL     1     -11.377  -1.843   1.735  0.00  0.00    +0.000 OA
ATOM     33  N   UNL     1      -9.167  -1.357   1.146  0.00  0.00    +0.000 N 
ATOM     34  C   UNL     1     -10.489  -1.687   0.903  0.00  0.00    +0.000 C 
ATOM     35  C   UNL     1      -8.457  -1.107   2.371  0.00  0.00    +0.000 C 
ATOM     36  H   UNL     1      -8.594  -1.272   0.308  0.00  0.00    +0.000 HD
ENDBRANCH  29  34
ENDBRANCH  25  27
ENDBRANCH   3  25
TORSDOF 6
ENDMDL
MODEL 8
REMARK VINA RESULT:      -6.7      2.804      3.542
REMARK  Name = 11167602_Regorafenib.pdbqt.pdb
REMARK  6 active torsions:
REMARK  status: ('A' for Active; 'I' for Inactive)
REMARK    1  A    between atoms: C_2  and  N_10
REMARK    2  A    between atoms: C_3  and  O_25
REMARK    3  A    between atoms: N_9  and  C_15
REMARK    4  A    between atoms: C_16  and  C_24
REMARK    5  A    between atoms: O_25  and  C_27
REMARK    6  A    between atoms: C_29  and  C_34
REMARK                            x       y       z     vdW  Elec       q    Type
REMARK                         _______ _______ _______ _____ _____    ______ ____
ROOT
ATOM      1  F   UNL     1     -14.237   2.379  -4.237  0.00  0.00    +0.000 F 
ATOM      2  C   UNL     1     -12.495   3.947  -3.908  0.00  0.00    +0.000 A 
ATOM      3  C   UNL     1     -10.665   1.835  -3.978  0.00  0.00    +0.000 A 
ATOM      4  C   UNL     1     -12.927   2.630  -4.089  0.00  0.00    +0.000 A 
ATOM      5  C   UNL     1     -11.132   4.189  -3.742  0.00  0.00    +0.000 A 
ATOM      6  C   UNL     1     -12.028   1.569  -4.111  0.00  0.00    +0.000 A 
ATOM      7  C   UNL     1     -10.218   3.137  -3.763  0.00  0.00    +0.000 A 
ENDROOT
BRANCH   2  10
ATOM      8  O   UNL     1     -14.153   4.858  -1.705  0.00  0.00    +0.000 OA
ATOM      9  N   UNL     1     -15.050   6.428  -3.146  0.00  0.00    +0.000 N 
ATOM     10  N   UNL     1     -13.462   4.975  -3.905  0.00  0.00    +0.000 N 
ATOM     11  C   UNL     1     -14.215   5.372  -2.813  0.00  0.00    +0.000 C 
ATOM     12  H   UNL     1     -14.997   6.793  -4.086  0.00  0.00    +0.000 HD
ATOM     13  H   UNL     1     -13.611   5.437  -4.791  0.00  0.00    +0.000 HD
BRANCH   9  15
ATOM     14 CL   UNL     1     -18.739   9.156   0.596  0.00  0.00    +0.000 Cl
ATOM     15  C   UNL     1     -15.953   7.062  -2.273  0.00  0.00    +0.000 A 
ATOM     16  C   UNL     1     -16.249   8.549  -0.362  0.00  0.00    +0.000 A 
ATOM     17  C   UNL     1     -15.424   7.880  -1.274  0.00  0.00    +0.000 A 
ATOM     18  C   UNL     1     -17.333   6.910  -2.363  0.00  0.00    +0.000 A 
ATOM     19  C   UNL     1     -17.630   8.383  -0.469  0.00  0.00    +0.000 A 
ATOM     20  C   UNL     1     -18.168   7.567  -1.464  0.00  0.00    +0.000 A 
BRANCH  16  24
ATOM     21  F   UNL     1     -14.255   9.318   0.698  0.00  0.00    +0.000 F 
ATOM     22  F   UNL     1     -15.885  10.735   0.515  0.00  0.00    +0.000 F 
ATOM     23  F   UNL     1     -16.012   9.094   1.947  0.00  0.00    +0.000 F 
ATOM     24  C   UNL     1     -15.616   9.412   0.684  0.00  0.00    +0.000 C 
ENDBRANCH  16  24
ENDBRANCH   9  15
ENDBRANCH   2  10
BRANCH   3  25
ATOM     25  O   UNL     1      -9.728   0.830  -3.916  0.00  0.00    +0.000 OA
BRANCH  25  27
ATOM     26  N   UNL     1      -7.409   0.252  -0.495  0.00  0.00    +0.000 NA
ATOM     27  C   UNL     1      -8.998   0.703  -2.755  0.00  0.00    +0.000 A 
ATOM     28  C   UNL     1      -9.537   0.894  -1.487  0.00  0.00    +0.000 A 
ATOM     29  C   UNL     1      -8.705   0.667  -0.404  0.00  0.00    +0.000 A 
ATOM     30  C   UNL     1      -7.688   0.258  -2.900  0.00  0.00    +0.000 A 
ATOM     31  C   UNL     1      -6.941   0.056  -1.750  0.00  0.00    +0.000 A 
BRANCH  29  34
ATOM     32  O   UNL     1      -8.466   1.220   1.876  0.00  0.00    +0.000 OA
ATOM     33  N   UNL     1     -10.590   0.679   1.061  0.00  0.00    +0.000 N 
ATOM     34  C   UNL     1      -9.225   0.890   0.970  0.00  0.00    +0.000 C 
ATOM     35  C   UNL     1     -11.497   0.772   2.173  0.00  0.00    +0.000 C 
ATOM     36  H   UNL     1     -11.032   0.405   0.184  0.00  0.00    +0.000 HD
ENDBRANCH  29  34
ENDBRANCH  25  27
ENDBRANCH   3  25
TORSDOF 6
ENDMDL
MODEL 9
REMARK VINA RESULT:      -6.6      7.920     11.508
REMARK  Name = 11167602_Regorafenib.pdbqt.pdb
REMARK  6 active torsions:
REMARK  status: ('A' for Active; 'I' for Inactive)
REMARK    1  A    between atoms: C_2  and  N_10
REMARK    2  A    between atoms: C_3  and  O_25
REMARK    3  A    between atoms: N_9  and  C_15
REMARK    4  A    between atoms: C_16  and  C_24
REMARK    5  A    between atoms: O_25  and  C_27
REMARK    6  A    between atoms: C_29  and  C_34
REMARK                            x       y       z     vdW  Elec       q    Type
REMARK                         _______ _______ _______ _____ _____    ______ ____
ROOT
ATOM      1  F   UNL     1      -4.653   1.396   0.072  0.00  0.00    +0.000 F 
ATOM      2  C   UNL     1      -5.130   1.718   2.367  0.00  0.00    +0.000 A 
ATOM      3  C   UNL     1      -6.336  -0.803   2.407  0.00  0.00    +0.000 A 
ATOM      4  C   UNL     1      -5.189   0.934   1.212  0.00  0.00    +0.000 A 
ATOM      5  C   UNL     1      -5.704   1.230   3.540  0.00  0.00    +0.000 A 
ATOM      6  C   UNL     1      -5.798  -0.317   1.216  0.00  0.00    +0.000 A 
ATOM      7  C   UNL     1      -6.318  -0.022   3.560  0.00  0.00    +0.000 A 
ENDROOT
BRANCH   2  10
ATOM      8  O   UNL     1      -2.482   2.450   3.310  0.00  0.00    +0.000 OA
ATOM      9  N   UNL     1      -2.879   4.577   2.497  0.00  0.00    +0.000 N 
ATOM     10  N   UNL     1      -4.489   2.973   2.293  0.00  0.00    +0.000 N 
ATOM     11  C   UNL     1      -3.213   3.257   2.752  0.00  0.00    +0.000 C 
ATOM     12  H   UNL     1      -3.549   5.148   2.003  0.00  0.00    +0.000 HD
ATOM     13  H   UNL     1      -5.031   3.717   1.877  0.00  0.00    +0.000 HD
BRANCH   9  15
ATOM     14 CL   UNL     1       2.256   7.213   3.820  0.00  0.00    +0.000 Cl
ATOM     15  C   UNL     1      -1.661   5.193   2.843  0.00  0.00    +0.000 A 
ATOM     16  C   UNL     1       0.250   6.511   2.095  0.00  0.00    +0.000 A 
ATOM     17  C   UNL     1      -0.968   5.870   1.840  0.00  0.00    +0.000 A 
ATOM     18  C   UNL     1      -1.128   5.156   4.127  0.00  0.00    +0.000 A 
ATOM     19  C   UNL     1       0.768   6.461   3.391  0.00  0.00    +0.000 A 
ATOM     20  C   UNL     1       0.082   5.787   4.400  0.00  0.00    +0.000 A 
BRANCH  16  24
ATOM     21  F   UNL     1       1.167   8.540   1.240  0.00  0.00    +0.000 F 
ATOM     22  F   UNL     1       2.164   6.697   0.688  0.00  0.00    +0.000 F 
ATOM     23  F   UNL     1       0.231   7.203  -0.186  0.00  0.00    +0.000 F 
ATOM     24  C   UNL     1       0.942   7.221   0.974  0.00  0.00    +0.000 C 
ENDBRANCH  16  24
ENDBRANCH   9  15
ENDBRANCH   2  10
BRANCH   3  25
ATOM     25  O   UNL     1      -7.019  -1.996   2.466  0.00  0.00    +0.000 OA
BRANCH  25  27
ATOM     26  N   UNL     1     -11.184  -2.073   2.700  0.00  0.00    +0.000 NA
ATOM     27  C   UNL     1      -8.391  -1.946   2.571  0.00  0.00    +0.000 A 
ATOM     28  C   UNL     1      -9.146  -0.835   2.211  0.00  0.00    +0.000 A 
ATOM     29  C   UNL     1     -10.523  -0.948   2.304  0.00  0.00    +0.000 A 
ATOM     30  C   UNL     1      -9.019  -3.125   2.959  0.00  0.00    +0.000 A 
ATOM     31  C   UNL     1     -10.404  -3.134   3.013  0.00  0.00    +0.000 A 
BRANCH  29  34
ATOM     32  O   UNL     1     -11.629   1.072   2.810  0.00  0.00    +0.000 OA
ATOM     33  N   UNL     1     -11.796   0.205   0.645  0.00  0.00    +0.000 N 
ATOM     34  C   UNL     1     -11.372   0.223   1.963  0.00  0.00    +0.000 C 
ATOM     35  C   UNL     1     -12.620   1.115  -0.103  0.00  0.00    +0.000 C 
ATOM     36  H   UNL     1     -11.470  -0.598   0.110  0.00  0.00    +0.000 HD
ENDBRANCH  29  34
ENDBRANCH  25  27
ENDBRANCH   3  25
TORSDOF 6
ENDMDL
