MODEL 1
REMARK VINA RESULT:      -5.8      0.000      0.000
REMARK  Name = 114778_Kahweol.pdbqt.pdb
REMARK  3 active torsions:
REMARK  status: ('A' for Active; 'I' for Inactive)
REMARK    1  A    between atoms: C_8  and  O_21
REMARK    2  A    between atoms: C_8  and  C_23
REMARK    3  A    between atoms: C_23  and  O_24
REMARK                            x       y       z     vdW  Elec       q    Type
REMARK                         _______ _______ _______ _____ _____    ______ ____
ROOT
ATOM      1  O   UNL     1     -28.148   8.391  17.437  0.00  0.00    +0.000 OA
ATOM      2  C   UNL     1     -22.646   5.554  16.492  0.00  0.00    +0.000 C 
ATOM      3  C   UNL     1     -22.935   7.021  17.036  0.00  0.00    +0.000 C 
ATOM      4  C   UNL     1     -20.415   5.479  17.356  0.00  0.00    +0.000 C 
ATOM      5  C   UNL     1     -21.207   5.518  16.115  0.00  0.00    +0.000 C 
ATOM      6  C   UNL     1     -22.535   4.640  17.650  0.00  0.00    +0.000 C 
ATOM      7  C   UNL     1     -24.025   7.912  16.430  0.00  0.00    +0.000 C 
ATOM      8  C   UNL     1     -21.190   4.389  18.206  0.00  0.00    +0.000 C 
ATOM      9  C   UNL     1     -23.641   5.207  15.511  0.00  0.00    +0.000 C 
ATOM     10  C   UNL     1     -21.801   7.555  17.773  0.00  0.00    +0.000 C 
ATOM     11  C   UNL     1     -20.462   6.822  17.917  0.00  0.00    +0.000 C 
ATOM     12  C   UNL     1     -25.237   7.133  15.676  0.00  0.00    +0.000 C 
ATOM     13  C   UNL     1     -24.901   5.893  15.088  0.00  0.00    +0.000 C 
ATOM     14  C   UNL     1     -23.379   8.855  15.363  0.00  0.00    +0.000 C 
ATOM     15  C   UNL     1     -24.677   8.694  17.516  0.00  0.00    +0.000 C 
ATOM     16  C   UNL     1     -26.586   7.421  16.105  0.00  0.00    +0.000 A 
ATOM     17  C   UNL     1     -25.804   8.900  17.870  0.00  0.00    +0.000 C 
ATOM     18  C   UNL     1     -26.842   8.274  17.159  0.00  0.00    +0.000 A 
ATOM     19  C   UNL     1     -27.854   6.965  15.692  0.00  0.00    +0.000 A 
ATOM     20  C   UNL     1     -28.779   7.587  16.520  0.00  0.00    +0.000 A 
ENDROOT
BRANCH   8  21
ATOM     21  O   UNL     1     -20.766   3.089  17.839  0.00  0.00    +0.000 OA
ATOM     22  H   UNL     1     -20.935   2.525  18.612  0.00  0.00    +0.000 HD
ENDBRANCH   8  21
BRANCH   8  23
ATOM     23  C   UNL     1     -21.065   4.558  19.660  0.00  0.00    +0.000 C 
BRANCH  23  24
ATOM     24  O   UNL     1     -20.957   4.730  20.978  0.00  0.00    +0.000 OA
ATOM     25  H   UNL     1     -21.566   5.422  21.290  0.00  0.00    +0.000 HD
ENDBRANCH  23  24
ENDBRANCH   8  23
TORSDOF 3
ENDMDL
MODEL 2
REMARK VINA RESULT:      -5.3     19.434     21.255
REMARK  Name = 114778_Kahweol.pdbqt.pdb
REMARK  3 active torsions:
REMARK  status: ('A' for Active; 'I' for Inactive)
REMARK    1  A    between atoms: C_8  and  O_21
REMARK    2  A    between atoms: C_8  and  C_23
REMARK    3  A    between atoms: C_23  and  O_24
REMARK                            x       y       z     vdW  Elec       q    Type
REMARK                         _______ _______ _______ _____ _____    ______ ____
ROOT
ATOM      1  O   UNL     1     -15.403  12.096  -4.802  0.00  0.00    +0.000 OA
ATOM      2  C   UNL     1     -16.299   7.130  -1.095  0.00  0.00    +0.000 C 
ATOM      3  C   UNL     1     -17.347   7.892  -2.018  0.00  0.00    +0.000 C 
ATOM      4  C   UNL     1     -17.617   5.138  -0.933  0.00  0.00    +0.000 C 
ATOM      5  C   UNL     1     -17.092   6.280  -0.166  0.00  0.00    +0.000 C 
ATOM      6  C   UNL     1     -15.712   6.018  -1.874  0.00  0.00    +0.000 C 
ATOM      7  C   UNL     1     -17.378   9.420  -2.122  0.00  0.00    +0.000 C 
ATOM      8  C   UNL     1     -16.344   4.687  -1.763  0.00  0.00    +0.000 C 
ATOM      9  C   UNL     1     -15.363   8.082  -0.555  0.00  0.00    +0.000 C 
ATOM     10  C   UNL     1     -18.498   7.058  -2.326  0.00  0.00    +0.000 C 
ATOM     11  C   UNL     1     -18.709   5.654  -1.746  0.00  0.00    +0.000 C 
ATOM     12  C   UNL     1     -15.983  10.180  -1.777  0.00  0.00    +0.000 C 
ATOM     13  C   UNL     1     -15.141   9.532  -0.845  0.00  0.00    +0.000 C 
ATOM     14  C   UNL     1     -18.441   9.980  -1.122  0.00  0.00    +0.000 C 
ATOM     15  C   UNL     1     -17.700   9.808  -3.523  0.00  0.00    +0.000 C 
ATOM     16  C   UNL     1     -15.449  11.083  -2.771  0.00  0.00    +0.000 A 
ATOM     17  C   UNL     1     -17.226  10.545  -4.342  0.00  0.00    +0.000 C 
ATOM     18  C   UNL     1     -16.059  11.249  -3.997  0.00  0.00    +0.000 A 
ATOM     19  C   UNL     1     -14.305  11.904  -2.821  0.00  0.00    +0.000 A 
ATOM     20  C   UNL     1     -14.319  12.512  -4.069  0.00  0.00    +0.000 A 
ENDROOT
BRANCH   8  21
ATOM     21  O   UNL     1     -15.522   3.842  -0.977  0.00  0.00    +0.000 OA
ATOM     22  H   UNL     1     -15.202   3.149  -1.578  0.00  0.00    +0.000 HD
ENDBRANCH   8  21
BRANCH   8  23
ATOM     23  C   UNL     1     -16.657   4.028  -3.037  0.00  0.00    +0.000 C 
BRANCH  23  24
ATOM     24  O   UNL     1     -16.949   3.414  -4.184  0.00  0.00    +0.000 OA
ATOM     25  H   UNL     1     -16.511   2.546  -4.235  0.00  0.00    +0.000 HD
ENDBRANCH  23  24
ENDBRANCH   8  23
TORSDOF 3
ENDMDL
MODEL 3
REMARK VINA RESULT:      -5.2     14.274     18.314
REMARK  Name = 114778_Kahweol.pdbqt.pdb
REMARK  3 active torsions:
REMARK  status: ('A' for Active; 'I' for Inactive)
REMARK    1  A    between atoms: C_8  and  O_21
REMARK    2  A    between atoms: C_8  and  C_23
REMARK    3  A    between atoms: C_23  and  O_24
REMARK                            x       y       z     vdW  Elec       q    Type
REMARK                         _______ _______ _______ _____ _____    ______ ____
ROOT
ATOM      1  O   UNL     1      -2.772   2.022  17.386  0.00  0.00    +0.000 OA
ATOM      2  C   UNL     1      -7.384   6.253  17.184  0.00  0.00    +0.000 C 
ATOM      3  C   UNL     1      -7.058   5.079  16.161  0.00  0.00    +0.000 C 
ATOM      4  C   UNL     1      -9.647   6.511  16.445  0.00  0.00    +0.000 C 
ATOM      5  C   UNL     1      -8.330   7.169  16.490  0.00  0.00    +0.000 C 
ATOM      6  C   UNL     1      -8.350   5.747  18.183  0.00  0.00    +0.000 C 
ATOM      7  C   UNL     1      -5.623   4.744  15.740  0.00  0.00    +0.000 C 
ATOM      8  C   UNL     1      -9.788   5.959  17.925  0.00  0.00    +0.000 C 
ATOM      9  C   UNL     1      -6.152   6.779  17.711  0.00  0.00    +0.000 C 
ATOM     10  C   UNL     1      -8.217   4.730  15.356  0.00  0.00    +0.000 C 
ATOM     11  C   UNL     1      -9.555   5.476  15.426  0.00  0.00    +0.000 C 
ATOM     12  C   UNL     1      -4.459   5.177  16.789  0.00  0.00    +0.000 C 
ATOM     13  C   UNL     1      -4.737   6.312  17.585  0.00  0.00    +0.000 C 
ATOM     14  C   UNL     1      -5.300   5.478  14.398  0.00  0.00    +0.000 C 
ATOM     15  C   UNL     1      -5.489   3.268  15.593  0.00  0.00    +0.000 C 
ATOM     16  C   UNL     1      -3.545   4.151  17.235  0.00  0.00    +0.000 A 
ATOM     17  C   UNL     1      -4.733   2.429  15.994  0.00  0.00    +0.000 C 
ATOM     18  C   UNL     1      -3.688   2.837  16.844  0.00  0.00    +0.000 A 
ATOM     19  C   UNL     1      -2.436   4.151  18.105  0.00  0.00    +0.000 A 
ATOM     20  C   UNL     1      -1.987   2.839  18.161  0.00  0.00    +0.000 A 
ENDROOT
BRANCH   8  21
ATOM     21  O   UNL     1     -10.273   6.978  18.782  0.00  0.00    +0.000 OA
ATOM     22  H   UNL     1     -11.208   7.101  18.546  0.00  0.00    +0.000 HD
ENDBRANCH   8  21
BRANCH   8  23
ATOM     23  C   UNL     1     -10.636   4.766  18.044  0.00  0.00    +0.000 C 
BRANCH  23  24
ATOM     24  O   UNL     1     -11.391   3.672  18.148  0.00  0.00    +0.000 OA
ATOM     25  H   UNL     1     -11.719   3.393  17.275  0.00  0.00    +0.000 HD
ENDBRANCH  23  24
ENDBRANCH   8  23
TORSDOF 3
ENDMDL
MODEL 4
REMARK VINA RESULT:      -5.1     14.355     18.388
REMARK  Name = 114778_Kahweol.pdbqt.pdb
REMARK  3 active torsions:
REMARK  status: ('A' for Active; 'I' for Inactive)
REMARK    1  A    between atoms: C_8  and  O_21
REMARK    2  A    between atoms: C_8  and  C_23
REMARK    3  A    between atoms: C_23  and  O_24
REMARK                            x       y       z     vdW  Elec       q    Type
REMARK                         _______ _______ _______ _____ _____    ______ ____
ROOT
ATOM      1  O   UNL     1      -2.262   2.625  18.150  0.00  0.00    +0.000 OA
ATOM      2  C   UNL     1      -7.605   4.849  15.757  0.00  0.00    +0.000 C 
ATOM      3  C   UNL     1      -7.394   3.707  16.845  0.00  0.00    +0.000 C 
ATOM      4  C   UNL     1      -9.891   5.240  16.348  0.00  0.00    +0.000 C 
ATOM      5  C   UNL     1      -9.011   4.730  15.284  0.00  0.00    +0.000 C 
ATOM      6  C   UNL     1      -7.778   6.138  16.461  0.00  0.00    +0.000 C 
ATOM      7  C   UNL     1      -6.286   2.657  16.716  0.00  0.00    +0.000 C 
ATOM      8  C   UNL     1      -9.154   6.578  16.771  0.00  0.00    +0.000 C 
ATOM      9  C   UNL     1      -6.531   4.795  14.799  0.00  0.00    +0.000 C 
ATOM     10  C   UNL     1      -8.593   3.494  17.640  0.00  0.00    +0.000 C 
ATOM     11  C   UNL     1      -9.920   4.219  17.385  0.00  0.00    +0.000 C 
ATOM     12  C   UNL     1      -5.002   3.090  15.818  0.00  0.00    +0.000 C 
ATOM     13  C   UNL     1      -5.261   4.006  14.773  0.00  0.00    +0.000 C 
ATOM     14  C   UNL     1      -6.875   1.372  16.048  0.00  0.00    +0.000 C 
ATOM     15  C   UNL     1      -5.736   2.358  18.068  0.00  0.00    +0.000 C 
ATOM     16  C   UNL     1      -3.696   2.997  16.429  0.00  0.00    +0.000 A 
ATOM     17  C   UNL     1      -4.645   2.310  18.560  0.00  0.00    +0.000 C 
ATOM     18  C   UNL     1      -3.540   2.619  17.746  0.00  0.00    +0.000 A 
ATOM     19  C   UNL     1      -2.390   3.265  15.972  0.00  0.00    +0.000 A 
ATOM     20  C   UNL     1      -1.545   3.015  17.046  0.00  0.00    +0.000 A 
ENDROOT
BRANCH   8  21
ATOM     21  O   UNL     1      -9.516   7.634  15.898  0.00  0.00    +0.000 OA
ATOM     22  H   UNL     1      -9.159   8.444  16.299  0.00  0.00    +0.000 HD
ENDBRANCH   8  21
BRANCH   8  23
ATOM     23  C   UNL     1      -9.390   6.982  18.162  0.00  0.00    +0.000 C 
BRANCH  23  24
ATOM     24  O   UNL     1      -9.587   7.355  19.427  0.00  0.00    +0.000 OA
ATOM     25  H   UNL     1     -10.538   7.438  19.621  0.00  0.00    +0.000 HD
ENDBRANCH  23  24
ENDBRANCH   8  23
TORSDOF 3
ENDMDL
MODEL 5
REMARK VINA RESULT:      -4.9     10.328     13.013
REMARK  Name = 114778_Kahweol.pdbqt.pdb
REMARK  3 active torsions:
REMARK  status: ('A' for Active; 'I' for Inactive)
REMARK    1  A    between atoms: C_8  and  O_21
REMARK    2  A    between atoms: C_8  and  C_23
REMARK    3  A    between atoms: C_23  and  O_24
REMARK                            x       y       z     vdW  Elec       q    Type
REMARK                         _______ _______ _______ _____ _____    ______ ____
ROOT
ATOM      1  O   UNL     1     -23.561  21.027   8.822  0.00  0.00    +0.000 OA
ATOM      2  C   UNL     1     -22.960  14.979  10.328  0.00  0.00    +0.000 C 
ATOM      3  C   UNL     1     -24.286  15.841  10.162  0.00  0.00    +0.000 C 
ATOM      4  C   UNL     1     -24.081  12.877  10.088  0.00  0.00    +0.000 C 
ATOM      5  C   UNL     1     -23.351  13.732  11.040  0.00  0.00    +0.000 C 
ATOM      6  C   UNL     1     -22.654  14.337   9.031  0.00  0.00    +0.000 C 
ATOM      7  C   UNL     1     -24.393  17.277  10.689  0.00  0.00    +0.000 C 
ATOM      8  C   UNL     1     -23.169  12.973   8.795  0.00  0.00    +0.000 C 
ATOM      9  C   UNL     1     -21.920  15.808  10.879  0.00  0.00    +0.000 C 
ATOM     10  C   UNL     1     -25.449  15.001   9.925  0.00  0.00    +0.000 C 
ATOM     11  C   UNL     1     -25.403  13.468   9.934  0.00  0.00    +0.000 C 
ATOM     12  C   UNL     1     -22.987  18.076  10.852  0.00  0.00    +0.000 C 
ATOM     13  C   UNL     1     -21.854  17.280  11.135  0.00  0.00    +0.000 C 
ATOM     14  C   UNL     1     -25.051  17.252  12.107  0.00  0.00    +0.000 C 
ATOM     15  C   UNL     1     -25.198  18.089   9.735  0.00  0.00    +0.000 C 
ATOM     16  C   UNL     1     -22.862  19.353  10.186  0.00  0.00    +0.000 A 
ATOM     17  C   UNL     1     -25.063  19.139   9.174  0.00  0.00    +0.000 C 
ATOM     18  C   UNL     1     -23.868  19.851   9.385  0.00  0.00    +0.000 A 
ATOM     19  C   UNL     1     -21.831  20.311  10.112  0.00  0.00    +0.000 A 
ATOM     20  C   UNL     1     -22.300  21.320   9.281  0.00  0.00    +0.000 A 
ENDROOT
BRANCH   8  21
ATOM     21  O   UNL     1     -22.100  12.047   8.880  0.00  0.00    +0.000 OA
ATOM     22  H   UNL     1     -22.411  11.337   9.466  0.00  0.00    +0.000 HD
ENDBRANCH   8  21
BRANCH   8  23
ATOM     23  C   UNL     1     -23.892  12.780   7.532  0.00  0.00    +0.000 C 
BRANCH  23  24
ATOM     24  O   UNL     1     -24.534  12.597   6.377  0.00  0.00    +0.000 OA
ATOM     25  H   UNL     1     -25.306  13.187   6.311  0.00  0.00    +0.000 HD
ENDBRANCH  23  24
ENDBRANCH   8  23
TORSDOF 3
ENDMDL
MODEL 6
REMARK VINA RESULT:      -4.8     22.617     25.511
REMARK  Name = 114778_Kahweol.pdbqt.pdb
REMARK  3 active torsions:
REMARK  status: ('A' for Active; 'I' for Inactive)
REMARK    1  A    between atoms: C_8  and  O_21
REMARK    2  A    between atoms: C_8  and  C_23
REMARK    3  A    between atoms: C_23  and  O_24
REMARK                            x       y       z     vdW  Elec       q    Type
REMARK                         _______ _______ _______ _____ _____    ______ ____
ROOT
ATOM      1  O   UNL     1      -2.050   5.847   0.504  0.00  0.00    +0.000 OA
ATOM      2  C   UNL     1      -5.395   0.596   1.181  0.00  0.00    +0.000 C 
ATOM      3  C   UNL     1      -4.725   1.507   2.300  0.00  0.00    +0.000 C 
ATOM      4  C   UNL     1      -6.913  -0.465   2.698  0.00  0.00    +0.000 C 
ATOM      5  C   UNL     1      -5.741  -0.695   1.836  0.00  0.00    +0.000 C 
ATOM      6  C   UNL     1      -6.787   1.055   0.977  0.00  0.00    +0.000 C 
ATOM      7  C   UNL     1      -3.326   2.108   2.128  0.00  0.00    +0.000 C 
ATOM      8  C   UNL     1      -7.854   0.390   1.751  0.00  0.00    +0.000 C 
ATOM      9  C   UNL     1      -4.558   0.590   0.009  0.00  0.00    +0.000 C 
ATOM     10  C   UNL     1      -5.338   1.298   3.602  0.00  0.00    +0.000 C 
ATOM     11  C   UNL     1      -6.429   0.253   3.868  0.00  0.00    +0.000 C 
ATOM     12  C   UNL     1      -2.824   2.304   0.594  0.00  0.00    +0.000 C 
ATOM     13  C   UNL     1      -3.341   1.384  -0.346  0.00  0.00    +0.000 C 
ATOM     14  C   UNL     1      -2.280   1.171   2.815  0.00  0.00    +0.000 C 
ATOM     15  C   UNL     1      -3.303   3.471   2.726  0.00  0.00    +0.000 C 
ATOM     16  C   UNL     1      -2.391   3.624   0.195  0.00  0.00    +0.000 A 
ATOM     17  C   UNL     1      -2.959   4.562   2.366  0.00  0.00    +0.000 C 
ATOM     18  C   UNL     1      -2.460   4.697   1.058  0.00  0.00    +0.000 A 
ATOM     19  C   UNL     1      -1.893   4.158  -1.010  0.00  0.00    +0.000 A 
ATOM     20  C   UNL     1      -1.687   5.512  -0.777  0.00  0.00    +0.000 A 
ENDROOT
BRANCH   8  21
ATOM     21  O   UNL     1      -8.592  -0.464   0.895  0.00  0.00    +0.000 OA
ATOM     22  H   UNL     1      -9.529  -0.281   1.079  0.00  0.00    +0.000 HD
ENDBRANCH   8  21
BRANCH   8  23
ATOM     23  C   UNL     1      -8.771   1.288   2.465  0.00  0.00    +0.000 C 
BRANCH  23  24
ATOM     24  O   UNL     1      -9.598   2.097   3.128  0.00  0.00    +0.000 OA
ATOM     25  H   UNL     1     -10.377   2.317   2.588  0.00  0.00    +0.000 HD
ENDBRANCH  23  24
ENDBRANCH   8  23
TORSDOF 3
ENDMDL
MODEL 7
REMARK VINA RESULT:      -4.8     20.209     22.171
REMARK  Name = 114778_Kahweol.pdbqt.pdb
REMARK  3 active torsions:
REMARK  status: ('A' for Active; 'I' for Inactive)
REMARK    1  A    between atoms: C_8  and  O_21
REMARK    2  A    between atoms: C_8  and  C_23
REMARK    3  A    between atoms: C_23  and  O_24
REMARK                            x       y       z     vdW  Elec       q    Type
REMARK                         _______ _______ _______ _____ _____    ______ ____
ROOT
ATOM      1  O   UNL     1     -16.383   3.374  -1.503  0.00  0.00    +0.000 OA
ATOM      2  C   UNL     1     -17.216   9.323  -3.273  0.00  0.00    +0.000 C 
ATOM      3  C   UNL     1     -15.861   8.560  -2.935  0.00  0.00    +0.000 C 
ATOM      4  C   UNL     1     -16.135  11.072  -4.500  0.00  0.00    +0.000 C 
ATOM      5  C   UNL     1     -16.895  10.776  -3.273  0.00  0.00    +0.000 C 
ATOM      6  C   UNL     1     -17.465   9.210  -4.727  0.00  0.00    +0.000 C 
ATOM      7  C   UNL     1     -15.748   7.591  -1.753  0.00  0.00    +0.000 C 
ATOM      8  C   UNL     1     -16.971  10.295  -5.599  0.00  0.00    +0.000 C 
ATOM      9  C   UNL     1     -18.263   8.833  -2.416  0.00  0.00    +0.000 C 
ATOM     10  C   UNL     1     -14.708   9.224  -3.522  0.00  0.00    +0.000 C 
ATOM     11  C   UNL     1     -14.792  10.550  -4.289  0.00  0.00    +0.000 C 
ATOM     12  C   UNL     1     -17.141   6.914  -1.259  0.00  0.00    +0.000 C 
ATOM     13  C   UNL     1     -18.307   7.687  -1.456  0.00  0.00    +0.000 C 
ATOM     14  C   UNL     1     -15.170   8.356  -0.518  0.00  0.00    +0.000 C 
ATOM     15  C   UNL     1     -14.872   6.450  -2.139  0.00  0.00    +0.000 C 
ATOM     16  C   UNL     1     -17.197   5.471  -1.194  0.00  0.00    +0.000 A 
ATOM     17  C   UNL     1     -14.950   5.255  -2.098  0.00  0.00    +0.000 C 
ATOM     18  C   UNL     1     -16.137   4.688  -1.599  0.00  0.00    +0.000 A 
ATOM     19  C   UNL     1     -18.199   4.555  -0.812  0.00  0.00    +0.000 A 
ATOM     20  C   UNL     1     -17.660   3.290  -1.004  0.00  0.00    +0.000 A 
ENDROOT
BRANCH   8  21
ATOM     21  O   UNL     1     -18.065  11.085  -6.030  0.00  0.00    +0.000 OA
ATOM     22  H   UNL     1     -17.885  11.304  -6.960  0.00  0.00    +0.000 HD
ENDBRANCH   8  21
BRANCH   8  23
ATOM     23  C   UNL     1     -16.184   9.863  -6.761  0.00  0.00    +0.000 C 
BRANCH  23  24
ATOM     24  O   UNL     1     -15.471   9.454  -7.811  0.00  0.00    +0.000 OA
ATOM     25  H   UNL     1     -15.438   8.481  -7.851  0.00  0.00    +0.000 HD
ENDBRANCH  23  24
ENDBRANCH   8  23
TORSDOF 3
ENDMDL
MODEL 8
REMARK VINA RESULT:      -4.7     11.647     14.295
REMARK  Name = 114778_Kahweol.pdbqt.pdb
REMARK  3 active torsions:
REMARK  status: ('A' for Active; 'I' for Inactive)
REMARK    1  A    between atoms: C_8  and  O_21
REMARK    2  A    between atoms: C_8  and  C_23
REMARK    3  A    between atoms: C_23  and  O_24
REMARK                            x       y       z     vdW  Elec       q    Type
REMARK                         _______ _______ _______ _____ _____    ______ ____
ROOT
ATOM      1  O   UNL     1     -23.723  15.198   2.777  0.00  0.00    +0.000 OA
ATOM      2  C   UNL     1     -23.198  16.902   8.780  0.00  0.00    +0.000 C 
ATOM      3  C   UNL     1     -24.498  16.462   7.974  0.00  0.00    +0.000 C 
ATOM      4  C   UNL     1     -24.169  16.484  10.928  0.00  0.00    +0.000 C 
ATOM      5  C   UNL     1     -23.674  17.545  10.035  0.00  0.00    +0.000 C 
ATOM      6  C   UNL     1     -22.619  15.701   9.421  0.00  0.00    +0.000 C 
ATOM      7  C   UNL     1     -24.762  16.933   6.540  0.00  0.00    +0.000 C 
ATOM      8  C   UNL     1     -23.025  15.393  10.808  0.00  0.00    +0.000 C 
ATOM      9  C   UNL     1     -22.320  17.631   7.903  0.00  0.00    +0.000 C 
ATOM     10  C   UNL     1     -25.558  16.017   8.864  0.00  0.00    +0.000 C 
ATOM     11  C   UNL     1     -25.456  16.063  10.394  0.00  0.00    +0.000 C 
ATOM     12  C   UNL     1     -23.447  17.354   5.681  0.00  0.00    +0.000 C 
ATOM     13  C   UNL     1     -22.362  17.868   6.427  0.00  0.00    +0.000 C 
ATOM     14  C   UNL     1     -25.685  18.194   6.577  0.00  0.00    +0.000 C 
ATOM     15  C   UNL     1     -25.393  15.824   5.771  0.00  0.00    +0.000 C 
ATOM     16  C   UNL     1     -23.243  16.703   4.407  0.00  0.00    +0.000 A 
ATOM     17  C   UNL     1     -25.191  15.282   4.722  0.00  0.00    +0.000 C 
ATOM     18  C   UNL     1     -24.090  15.711   3.960  0.00  0.00    +0.000 A 
ATOM     19  C   UNL     1     -22.255  16.815   3.408  0.00  0.00    +0.000 A 
ATOM     20  C   UNL     1     -22.590  15.890   2.428  0.00  0.00    +0.000 A 
ENDROOT
BRANCH   8  21
ATOM     21  O   UNL     1     -21.959  15.703  11.688  0.00  0.00    +0.000 OA
ATOM     22  H   UNL     1     -21.369  16.296  11.193  0.00  0.00    +0.000 HD
ENDBRANCH   8  21
BRANCH   8  23
ATOM     23  C   UNL     1     -23.477  14.017  11.044  0.00  0.00    +0.000 C 
BRANCH  23  24
ATOM     24  O   UNL     1     -23.886  12.762  11.240  0.00  0.00    +0.000 OA
ATOM     25  H   UNL     1     -23.423  12.149  10.642  0.00  0.00    +0.000 HD
ENDBRANCH  23  24
ENDBRANCH   8  23
TORSDOF 3
ENDMDL
MODEL 9
REMARK VINA RESULT:      -4.6      2.591      5.492
REMARK  Name = 114778_Kahweol.pdbqt.pdb
REMARK  3 active torsions:
REMARK  status: ('A' for Active; 'I' for Inactive)
REMARK    1  A    between atoms: C_8  and  O_21
REMARK    2  A    between atoms: C_8  and  C_23
REMARK    3  A    between atoms: C_23  and  O_24
REMARK                            x       y       z     vdW  Elec       q    Type
REMARK                         _______ _______ _______ _____ _____    ______ ____
ROOT
ATOM      1  O   UNL     1     -26.054   1.273  16.592  0.00  0.00    +0.000 OA
ATOM      2  C   UNL     1     -23.582   6.921  17.691  0.00  0.00    +0.000 C 
ATOM      3  C   UNL     1     -23.927   6.233  16.299  0.00  0.00    +0.000 C 
ATOM      4  C   UNL     1     -23.519   9.136  16.787  0.00  0.00    +0.000 C 
ATOM      5  C   UNL     1     -22.693   8.074  17.386  0.00  0.00    +0.000 C 
ATOM      6  C   UNL     1     -24.750   7.722  18.118  0.00  0.00    +0.000 C 
ATOM      7  C   UNL     1     -23.639   4.751  16.031  0.00  0.00    +0.000 C 
ATOM      8  C   UNL     1     -24.781   9.151  17.746  0.00  0.00    +0.000 C 
ATOM      9  C   UNL     1     -23.137   5.914  18.620  0.00  0.00    +0.000 C 
ATOM     10  C   UNL     1     -24.064   7.213  15.234  0.00  0.00    +0.000 C 
ATOM     11  C   UNL     1     -23.808   8.714  15.424  0.00  0.00    +0.000 C 
ATOM     12  C   UNL     1     -23.561   3.798  17.346  0.00  0.00    +0.000 C 
ATOM     13  C   UNL     1     -23.118   4.421  18.534  0.00  0.00    +0.000 C 
ATOM     14  C   UNL     1     -22.258   4.621  15.311  0.00  0.00    +0.000 C 
ATOM     15  C   UNL     1     -24.737   4.184  15.200  0.00  0.00    +0.000 C 
ATOM     16  C   UNL     1     -24.418   2.635  17.381  0.00  0.00    +0.000 A 
ATOM     17  C   UNL     1     -25.454   3.225  15.261  0.00  0.00    +0.000 C 
ATOM     18  C   UNL     1     -25.320   2.373  16.371  0.00  0.00    +0.000 A 
ATOM     19  C   UNL     1     -24.612   1.601  18.319  0.00  0.00    +0.000 A 
ATOM     20  C   UNL     1     -25.608   0.787  17.796  0.00  0.00    +0.000 A 
ENDROOT
BRANCH   8  21
ATOM     21  O   UNL     1     -24.514   9.940  18.892  0.00  0.00    +0.000 OA
ATOM     22  H   UNL     1     -23.611   9.711  19.168  0.00  0.00    +0.000 HD
ENDBRANCH   8  21
BRANCH   8  23
ATOM     23  C   UNL     1     -26.019   9.612  17.106  0.00  0.00    +0.000 C 
BRANCH  23  24
ATOM     24  O   UNL     1     -27.147  10.042  16.538  0.00  0.00    +0.000 OA
ATOM     25  H   UNL     1     -27.659  10.591  17.156  0.00  0.00    +0.000 HD
ENDBRANCH  23  24
ENDBRANCH   8  23
TORSDOF 3
ENDMDL
