MODEL 1
REMARK VINA RESULT:      -3.6      0.000      0.000
REMARK  Name = 1174_Uracil.pdbqt.pdb
REMARK  0 active torsions:
REMARK  status: ('A' for Active; 'I' for Inactive)
REMARK                            x       y       z     vdW  Elec       q    Type
REMARK                         _______ _______ _______ _____ _____    ______ ____
ROOT
ATOM      1  O   UNL     1     -24.046  13.660  11.261  0.00  0.00    +0.000 OA
ATOM      2  O   UNL     1     -21.684  10.924   8.362  0.00  0.00    +0.000 OA
ATOM      3  N   UNL     1     -22.825  12.278   9.868  0.00  0.00    +0.000 N 
ATOM      4  N   UNL     1     -24.669  13.467   9.045  0.00  0.00    +0.000 N 
ATOM      5  C   UNL     1     -23.864  13.177  10.151  0.00  0.00    +0.000 A 
ATOM      6  C   UNL     1     -22.585  11.707   8.620  0.00  0.00    +0.000 A 
ATOM      7  C   UNL     1     -24.424  12.908   7.848  0.00  0.00    +0.000 A 
ATOM      8  C   UNL     1     -23.534  12.145   7.630  0.00  0.00    +0.000 A 
ATOM      9  H   UNL     1     -22.208  12.027  10.624  0.00  0.00    +0.000 HD
ATOM     10  H   UNL     1     -25.441  14.110   9.168  0.00  0.00    +0.000 HD
ENDROOT
TORSDOF 0
ENDMDL
MODEL 2
REMARK VINA RESULT:      -3.6      1.308      3.099
REMARK  Name = 1174_Uracil.pdbqt.pdb
REMARK  0 active torsions:
REMARK  status: ('A' for Active; 'I' for Inactive)
REMARK                            x       y       z     vdW  Elec       q    Type
REMARK                         _______ _______ _______ _____ _____    ______ ____
ROOT
ATOM      1  O   UNL     1     -21.866  11.031   8.397  0.00  0.00    +0.000 OA
ATOM      2  O   UNL     1     -24.239  13.729  11.324  0.00  0.00    +0.000 OA
ATOM      3  N   UNL     1     -23.056  12.322   9.900  0.00  0.00    +0.000 N 
ATOM      4  N   UNL     1     -22.253  13.256   7.906  0.00  0.00    +0.000 N 
ATOM      5  C   UNL     1     -22.350  12.113   8.707  0.00  0.00    +0.000 A 
ATOM      6  C   UNL     1     -23.621  13.536  10.288  0.00  0.00    +0.000 A 
ATOM      7  C   UNL     1     -22.804  14.418   8.294  0.00  0.00    +0.000 A 
ATOM      8  C   UNL     1     -23.400  14.574   9.314  0.00  0.00    +0.000 A 
ATOM      9  H   UNL     1     -23.162  11.537  10.522  0.00  0.00    +0.000 HD
ATOM     10  H   UNL     1     -21.757  13.186   7.026  0.00  0.00    +0.000 HD
ENDROOT
TORSDOF 0
ENDMDL
MODEL 3
REMARK VINA RESULT:      -3.2     18.007     18.799
REMARK  Name = 1174_Uracil.pdbqt.pdb
REMARK  0 active torsions:
REMARK  status: ('A' for Active; 'I' for Inactive)
REMARK                            x       y       z     vdW  Elec       q    Type
REMARK                         _______ _______ _______ _____ _____    ______ ____
ROOT
ATOM      1  O   UNL     1     -11.181   0.656   4.716  0.00  0.00    +0.000 OA
ATOM      2  O   UNL     1      -7.729   1.672   1.796  0.00  0.00    +0.000 OA
ATOM      3  N   UNL     1      -9.415   1.163   3.314  0.00  0.00    +0.000 N 
ATOM      4  N   UNL     1     -11.578   0.896   2.453  0.00  0.00    +0.000 N 
ATOM      5  C   UNL     1     -10.762   0.885   3.589  0.00  0.00    +0.000 A 
ATOM      6  C   UNL     1      -8.899   1.428   2.047  0.00  0.00    +0.000 A 
ATOM      7  C   UNL     1     -11.065   1.154   1.238  0.00  0.00    +0.000 A 
ATOM      8  C   UNL     1      -9.916   1.388   1.027  0.00  0.00    +0.000 A 
ATOM      9  H   UNL     1      -8.774   1.170   4.091  0.00  0.00    +0.000 HD
ATOM     10  H   UNL     1     -12.565   0.705   2.568  0.00  0.00    +0.000 HD
ENDROOT
TORSDOF 0
ENDMDL
MODEL 4
REMARK VINA RESULT:      -3.1     11.258     12.304
REMARK  Name = 1174_Uracil.pdbqt.pdb
REMARK  0 active torsions:
REMARK  status: ('A' for Active; 'I' for Inactive)
REMARK                            x       y       z     vdW  Elec       q    Type
REMARK                         _______ _______ _______ _____ _____    ______ ____
ROOT
ATOM      1  O   UNL     1     -19.225   0.846   9.189  0.00  0.00    +0.000 OA
ATOM      2  O   UNL     1     -22.051   2.539  12.448  0.00  0.00    +0.000 OA
ATOM      3  N   UNL     1     -20.592   1.745  10.822  0.00  0.00    +0.000 N 
ATOM      4  N   UNL     1     -21.153  -0.280   9.784  0.00  0.00    +0.000 N 
ATOM      5  C   UNL     1     -20.238   0.774   9.873  0.00  0.00    +0.000 A 
ATOM      6  C   UNL     1     -21.734   1.700  11.618  0.00  0.00    +0.000 A 
ATOM      7  C   UNL     1     -22.250  -0.309  10.559  0.00  0.00    +0.000 A 
ATOM      8  C   UNL     1     -22.531   0.528  11.360  0.00  0.00    +0.000 A 
ATOM      9  H   UNL     1     -19.974   2.532  10.935  0.00  0.00    +0.000 HD
ATOM     10  H   UNL     1     -20.968  -1.022   9.121  0.00  0.00    +0.000 HD
ENDROOT
TORSDOF 0
ENDMDL
MODEL 5
REMARK VINA RESULT:      -2.9     20.352     20.803
REMARK  Name = 1174_Uracil.pdbqt.pdb
REMARK  0 active torsions:
REMARK  status: ('A' for Active; 'I' for Inactive)
REMARK                            x       y       z     vdW  Elec       q    Type
REMARK                         _______ _______ _______ _____ _____    ______ ____
ROOT
ATOM      1  O   UNL     1      -4.972  18.352   3.524  0.00  0.00    +0.000 OA
ATOM      2  O   UNL     1      -2.737  14.377   2.701  0.00  0.00    +0.000 OA
ATOM      3  N   UNL     1      -3.866  16.380   3.045  0.00  0.00    +0.000 N 
ATOM      4  N   UNL     1      -4.133  17.084   5.264  0.00  0.00    +0.000 N 
ATOM      5  C   UNL     1      -4.375  17.357   3.913  0.00  0.00    +0.000 A 
ATOM      6  C   UNL     1      -3.182  15.235   3.448  0.00  0.00    +0.000 A 
ATOM      7  C   UNL     1      -3.472  15.975   5.636  0.00  0.00    +0.000 A 
ATOM      8  C   UNL     1      -3.049  15.158   4.880  0.00  0.00    +0.000 A 
ATOM      9  H   UNL     1      -4.007  16.517   2.057  0.00  0.00    +0.000 HD
ATOM     10  H   UNL     1      -4.470  17.743   5.955  0.00  0.00    +0.000 HD
ENDROOT
TORSDOF 0
ENDMDL
MODEL 6
REMARK VINA RESULT:      -2.8     22.327     23.267
REMARK  Name = 1174_Uracil.pdbqt.pdb
REMARK  0 active torsions:
REMARK  status: ('A' for Active; 'I' for Inactive)
REMARK                            x       y       z     vdW  Elec       q    Type
REMARK                         _______ _______ _______ _____ _____    ______ ____
ROOT
ATOM      1  O   UNL     1      -0.226  17.330   5.864  0.00  0.00    +0.000 OA
ATOM      2  O   UNL     1      -3.112  14.204   4.026  0.00  0.00    +0.000 OA
ATOM      3  N   UNL     1      -1.719  15.802   4.980  0.00  0.00    +0.000 N 
ATOM      4  N   UNL     1       0.564  15.669   4.466  0.00  0.00    +0.000 N 
ATOM      5  C   UNL     1      -0.440  16.350   5.162  0.00  0.00    +0.000 A 
ATOM      6  C   UNL     1      -2.003  14.690   4.191  0.00  0.00    +0.000 A 
ATOM      7  C   UNL     1       0.273  14.598   3.709  0.00  0.00    +0.000 A 
ATOM      8  C   UNL     1      -0.822  14.149   3.568  0.00  0.00    +0.000 A 
ATOM      9  H   UNL     1      -2.487  16.247   5.456  0.00  0.00    +0.000 HD
ATOM     10  H   UNL     1       1.516  16.003   4.546  0.00  0.00    +0.000 HD
ENDROOT
TORSDOF 0
ENDMDL
MODEL 7
REMARK VINA RESULT:      -2.8     19.573     20.499
REMARK  Name = 1174_Uracil.pdbqt.pdb
REMARK  0 active torsions:
REMARK  status: ('A' for Active; 'I' for Inactive)
REMARK                            x       y       z     vdW  Elec       q    Type
REMARK                         _______ _______ _______ _____ _____    ______ ____
ROOT
ATOM      1  O   UNL     1      -9.165   1.596   1.113  0.00  0.00    +0.000 OA
ATOM      2  O   UNL     1      -4.965   1.612   3.070  0.00  0.00    +0.000 OA
ATOM      3  N   UNL     1      -7.041   1.609   2.025  0.00  0.00    +0.000 N 
ATOM      4  N   UNL     1      -8.929   1.482   3.408  0.00  0.00    +0.000 N 
ATOM      5  C   UNL     1      -8.441   1.565   2.100  0.00  0.00    +0.000 A 
ATOM      6  C   UNL     1      -6.184   1.575   3.124  0.00  0.00    +0.000 A 
ATOM      7  C   UNL     1      -8.089   1.451   4.457  0.00  0.00    +0.000 A 
ATOM      8  C   UNL     1      -6.901   1.490   4.369  0.00  0.00    +0.000 A 
ATOM      9  H   UNL     1      -6.626   1.668   1.110  0.00  0.00    +0.000 HD
ATOM     10  H   UNL     1      -9.931   1.446   3.547  0.00  0.00    +0.000 HD
ENDROOT
TORSDOF 0
ENDMDL
MODEL 8
REMARK VINA RESULT:      -2.6     18.605     19.160
REMARK  Name = 1174_Uracil.pdbqt.pdb
REMARK  0 active torsions:
REMARK  status: ('A' for Active; 'I' for Inactive)
REMARK                            x       y       z     vdW  Elec       q    Type
REMARK                         _______ _______ _______ _____ _____    ______ ____
ROOT
ATOM      1  O   UNL     1     -10.105   1.867  -1.528  0.00  0.00    +0.000 OA
ATOM      2  O   UNL     1      -9.332   1.170   2.988  0.00  0.00    +0.000 OA
ATOM      3  N   UNL     1      -9.653   1.540   0.715  0.00  0.00    +0.000 N 
ATOM      4  N   UNL     1     -11.794   1.118  -0.140  0.00  0.00    +0.000 N 
ATOM      5  C   UNL     1     -10.487   1.536  -0.413  0.00  0.00    +0.000 A 
ATOM      6  C   UNL     1     -10.050   1.171   1.999  0.00  0.00    +0.000 A 
ATOM      7  C   UNL     1     -12.160   0.765   1.104  0.00  0.00    +0.000 A 
ATOM      8  C   UNL     1     -11.434   0.777   2.049  0.00  0.00    +0.000 A 
ATOM      9  H   UNL     1      -8.698   1.832   0.587  0.00  0.00    +0.000 HD
ATOM     10  H   UNL     1     -12.458   1.087  -0.904  0.00  0.00    +0.000 HD
ENDROOT
TORSDOF 0
ENDMDL
MODEL 9
REMARK VINA RESULT:      -2.4     17.298     17.732
REMARK  Name = 1174_Uracil.pdbqt.pdb
REMARK  0 active torsions:
REMARK  status: ('A' for Active; 'I' for Inactive)
REMARK                            x       y       z     vdW  Elec       q    Type
REMARK                         _______ _______ _______ _____ _____    ______ ____
ROOT
ATOM      1  O   UNL     1      -9.019  16.950  17.130  0.00  0.00    +0.000 OA
ATOM      2  O   UNL     1      -7.606  13.003  19.105  0.00  0.00    +0.000 OA
ATOM      3  N   UNL     1      -8.339  15.005  18.176  0.00  0.00    +0.000 N 
ATOM      4  N   UNL     1      -7.981  15.307  15.880  0.00  0.00    +0.000 N 
ATOM      5  C   UNL     1      -8.490  15.847  17.065  0.00  0.00    +0.000 A 
ATOM      6  C   UNL     1      -7.744  13.745  18.144  0.00  0.00    +0.000 A 
ATOM      7  C   UNL     1      -7.411  14.090  15.866  0.00  0.00    +0.000 A 
ATOM      8  C   UNL     1      -7.292  13.391  16.824  0.00  0.00    +0.000 A 
ATOM      9  H   UNL     1      -8.686  15.336  19.062  0.00  0.00    +0.000 HD
ATOM     10  H   UNL     1      -8.052  15.855  15.032  0.00  0.00    +0.000 HD
ENDROOT
TORSDOF 0
ENDMDL
