MODEL 1
REMARK VINA RESULT:      -5.0      0.000      0.000
REMARK  Name = 122178712_SalternamideA.pdbqt.pdb
REMARK  8 active torsions:
REMARK  status: ('A' for Active; 'I' for Inactive)
REMARK    1  A    between atoms: C_3  and  O_24
REMARK    2  A    between atoms: C_3  and  C_26
REMARK    3  A    between atoms: C_6  and  N_10
REMARK    4  A    between atoms: C_11  and  C_14
REMARK    5  A    between atoms: C_13  and  C_15
REMARK    6  A    between atoms: C_27  and  C_28
REMARK    7  A    between atoms: C_29  and  C_31
REMARK    8  A    between atoms: C_31  and  O_32
REMARK                            x       y       z     vdW  Elec       q    Type
REMARK                         _______ _______ _______ _____ _____    ______ ____
ROOT
ATOM      1 CL   UNL     1     -16.102   2.948  -5.766  0.00  0.00    +0.000 Cl
ATOM      2  O   UNL     1     -15.708   6.048  -5.351  0.00  0.00    +0.000 OA
ATOM      3  C   UNL     1     -14.956   3.568  -1.909  0.00  0.00    +0.000 C 
ATOM      4  C   UNL     1     -14.828   5.021  -2.109  0.00  0.00    +0.000 C 
ATOM      5  C   UNL     1     -15.423   3.207  -3.258  0.00  0.00    +0.000 C 
ATOM      6  C   UNL     1     -15.019   5.900  -3.051  0.00  0.00    +0.000 C 
ATOM      7  C   UNL     1     -15.707   3.820  -4.369  0.00  0.00    +0.000 C 
ATOM      8  C   UNL     1     -15.512   5.324  -4.383  0.00  0.00    +0.000 C 
ENDROOT
BRANCH   6  10
ATOM      9  O   UNL     1     -16.710   7.932  -1.803  0.00  0.00    +0.000 OA
ATOM     10  N   UNL     1     -14.812   7.251  -2.953  0.00  0.00    +0.000 N 
ATOM     11  C   UNL     1     -15.643   8.164  -2.352  0.00  0.00    +0.000 C 
ATOM     12  H   UNL     1     -13.951   7.589  -3.377  0.00  0.00    +0.000 HD
BRANCH  11  14
ATOM     13  C   UNL     1     -14.766  10.659  -2.430  0.00  0.00    +0.000 C 
ATOM     14  C   UNL     1     -15.171   9.528  -2.393  0.00  0.00    +0.000 C 
BRANCH  13  15
ATOM     15  C   UNL     1     -14.283  11.989  -2.478  0.00  0.00    +0.000 C 
ATOM     16  C   UNL     1     -14.408  12.833  -1.241  0.00  0.00    +0.000 C 
ATOM     17  C   UNL     1     -13.736  12.605  -3.622  0.00  0.00    +0.000 C 
ATOM     18  C   UNL     1     -13.184  13.232  -4.757  0.00  0.00    +0.000 C 
ATOM     19  C   UNL     1     -12.691  12.349  -5.865  0.00  0.00    +0.000 C 
ATOM     20  C   UNL     1     -13.087  14.622  -4.933  0.00  0.00    +0.000 C 
ATOM     21  C   UNL     1     -13.003  15.898  -5.099  0.00  0.00    +0.000 C 
ATOM     22  C   UNL     1     -11.797  16.627  -4.593  0.00  0.00    +0.000 C 
ATOM     23  C   UNL     1     -14.230  16.667  -5.477  0.00  0.00    +0.000 C 
ENDBRANCH  13  15
ENDBRANCH  11  14
ENDBRANCH   6  10
BRANCH   3  24
ATOM     24  O   UNL     1     -15.986   3.313  -0.977  0.00  0.00    +0.000 OA
ATOM     25  H   UNL     1     -16.126   2.351  -0.990  0.00  0.00    +0.000 HD
ENDBRANCH   3  24
BRANCH   3  26
ATOM     26  C   UNL     1     -13.724   2.904  -1.503  0.00  0.00    +0.000 C 
ATOM     27  C   UNL     1     -12.425   2.212  -1.079  0.00  0.00    +0.000 C 
BRANCH  27  28
ATOM     28  C   UNL     1     -11.125   1.523  -0.656  0.00  0.00    +0.000 C 
ATOM     29  C   UNL     1      -9.825   0.831  -0.235  0.00  0.00    +0.000 C 
BRANCH  29  31
ATOM     30  O   UNL     1      -8.327  -0.961  -0.145  0.00  0.00    +0.000 OA
ATOM     31  C   UNL     1      -8.609   0.186   0.158  0.00  0.00    +0.000 C 
BRANCH  31  32
ATOM     32  O   UNL     1      -7.794   0.958   0.898  0.00  0.00    +0.000 OA
ATOM     33  H   UNL     1      -7.056   0.358   1.131  0.00  0.00    +0.000 HD
ENDBRANCH  31  32
ENDBRANCH  29  31
ENDBRANCH  27  28
ENDBRANCH   3  26
TORSDOF 8
ENDMDL
MODEL 2
REMARK VINA RESULT:      -4.9      7.455      9.425
REMARK  Name = 122178712_SalternamideA.pdbqt.pdb
REMARK  8 active torsions:
REMARK  status: ('A' for Active; 'I' for Inactive)
REMARK    1  A    between atoms: C_3  and  O_24
REMARK    2  A    between atoms: C_3  and  C_26
REMARK    3  A    between atoms: C_6  and  N_10
REMARK    4  A    between atoms: C_11  and  C_14
REMARK    5  A    between atoms: C_13  and  C_15
REMARK    6  A    between atoms: C_27  and  C_28
REMARK    7  A    between atoms: C_29  and  C_31
REMARK    8  A    between atoms: C_31  and  O_32
REMARK                            x       y       z     vdW  Elec       q    Type
REMARK                         _______ _______ _______ _____ _____    ______ ____
ROOT
ATOM      1 CL   UNL     1     -19.268  -4.975  -0.828  0.00  0.00    +0.000 Cl
ATOM      2  O   UNL     1     -18.095  -2.171  -1.666  0.00  0.00    +0.000 OA
ATOM      3  C   UNL     1     -20.022  -2.342   2.183  0.00  0.00    +0.000 C 
ATOM      4  C   UNL     1     -19.325  -1.245   1.491  0.00  0.00    +0.000 C 
ATOM      5  C   UNL     1     -19.861  -3.382   1.154  0.00  0.00    +0.000 C 
ATOM      6  C   UNL     1     -18.717  -1.032   0.359  0.00  0.00    +0.000 C 
ATOM      7  C   UNL     1     -19.336  -3.482  -0.032  0.00  0.00    +0.000 C 
ATOM      8  C   UNL     1     -18.658  -2.242  -0.581  0.00  0.00    +0.000 C 
ENDROOT
BRANCH   6  10
ATOM      9  O   UNL     1     -19.645   0.888  -1.640  0.00  0.00    +0.000 OA
ATOM     10  N   UNL     1     -18.137   0.143  -0.041  0.00  0.00    +0.000 N 
ATOM     11  C   UNL     1     -18.618   1.012  -0.988  0.00  0.00    +0.000 C 
ATOM     12  H   UNL     1     -17.260   0.373   0.423  0.00  0.00    +0.000 HD
BRANCH  11  14
ATOM     13  C   UNL     1     -17.108   3.147  -1.384  0.00  0.00    +0.000 C 
ATOM     14  C   UNL     1     -17.800   2.181  -1.208  0.00  0.00    +0.000 C 
BRANCH  13  15
ATOM     15  C   UNL     1     -16.286   4.281  -1.594  0.00  0.00    +0.000 C 
ATOM     16  C   UNL     1     -14.821   4.058  -1.843  0.00  0.00    +0.000 C 
ATOM     17  C   UNL     1     -16.730   5.617  -1.535  0.00  0.00    +0.000 C 
ATOM     18  C   UNL     1     -17.160   6.958  -1.482  0.00  0.00    +0.000 C 
ATOM     19  C   UNL     1     -18.631   7.220  -1.624  0.00  0.00    +0.000 C 
ATOM     20  C   UNL     1     -16.314   8.062  -1.283  0.00  0.00    +0.000 C 
ATOM     21  C   UNL     1     -15.540   9.075  -1.094  0.00  0.00    +0.000 C 
ATOM     22  C   UNL     1     -14.894   9.737  -2.271  0.00  0.00    +0.000 C 
ATOM     23  C   UNL     1     -15.032   9.358   0.286  0.00  0.00    +0.000 C 
ENDBRANCH  13  15
ENDBRANCH  11  14
ENDBRANCH   6  10
BRANCH   3  24
ATOM     24  O   UNL     1     -21.392  -2.020   2.308  0.00  0.00    +0.000 OA
ATOM     25  H   UNL     1     -21.720  -2.537   3.064  0.00  0.00    +0.000 HD
ENDBRANCH   3  24
BRANCH   3  26
ATOM     26  C   UNL     1     -19.458  -2.690   3.481  0.00  0.00    +0.000 C 
ATOM     27  C   UNL     1     -18.860  -3.055   4.843  0.00  0.00    +0.000 C 
BRANCH  27  28
ATOM     28  C   UNL     1     -18.259  -3.417   6.204  0.00  0.00    +0.000 C 
ATOM     29  C   UNL     1     -17.658  -3.783   7.565  0.00  0.00    +0.000 C 
BRANCH  29  31
ATOM     30  O   UNL     1     -15.899  -4.121   9.064  0.00  0.00    +0.000 OA
ATOM     31  C   UNL     1     -17.096  -4.124   8.836  0.00  0.00    +0.000 C 
BRANCH  31  32
ATOM     32  O   UNL     1     -18.009  -4.453   9.767  0.00  0.00    +0.000 OA
ATOM     33  H   UNL     1     -18.186  -5.400   9.592  0.00  0.00    +0.000 HD
ENDBRANCH  31  32
ENDBRANCH  29  31
ENDBRANCH  27  28
ENDBRANCH   3  26
TORSDOF 8
ENDMDL
MODEL 3
REMARK VINA RESULT:      -4.9      2.918      3.419
REMARK  Name = 122178712_SalternamideA.pdbqt.pdb
REMARK  8 active torsions:
REMARK  status: ('A' for Active; 'I' for Inactive)
REMARK    1  A    between atoms: C_3  and  O_24
REMARK    2  A    between atoms: C_3  and  C_26
REMARK    3  A    between atoms: C_6  and  N_10
REMARK    4  A    between atoms: C_11  and  C_14
REMARK    5  A    between atoms: C_13  and  C_15
REMARK    6  A    between atoms: C_27  and  C_28
REMARK    7  A    between atoms: C_29  and  C_31
REMARK    8  A    between atoms: C_31  and  O_32
REMARK                            x       y       z     vdW  Elec       q    Type
REMARK                         _______ _______ _______ _____ _____    ______ ____
ROOT
ATOM      1 CL   UNL     1     -20.602   5.980  -2.888  0.00  0.00    +0.000 Cl
ATOM      2  O   UNL     1     -18.928   8.648  -3.014  0.00  0.00    +0.000 OA
ATOM      3  C   UNL     1     -17.126   5.385  -0.855  0.00  0.00    +0.000 C 
ATOM      4  C   UNL     1     -16.632   6.737  -1.166  0.00  0.00    +0.000 C 
ATOM      5  C   UNL     1     -18.439   5.479  -1.513  0.00  0.00    +0.000 C 
ATOM      6  C   UNL     1     -17.042   7.811  -1.778  0.00  0.00    +0.000 C 
ATOM      7  C   UNL     1     -19.118   6.372  -2.172  0.00  0.00    +0.000 C 
ATOM      8  C   UNL     1     -18.442   7.710  -2.395  0.00  0.00    +0.000 C 
ENDROOT
BRANCH   6  10
ATOM      9  O   UNL     1     -14.913   8.464  -3.671  0.00  0.00    +0.000 OA
ATOM     10  N   UNL     1     -16.342   8.981  -1.917  0.00  0.00    +0.000 N 
ATOM     11  C   UNL     1     -15.348   9.235  -2.829  0.00  0.00    +0.000 C 
ATOM     12  H   UNL     1     -16.602   9.721  -1.268  0.00  0.00    +0.000 HD
BRANCH  11  14
ATOM     13  C   UNL     1     -14.316  11.666  -2.677  0.00  0.00    +0.000 C 
ATOM     14  C   UNL     1     -14.784  10.563  -2.754  0.00  0.00    +0.000 C 
BRANCH  13  15
ATOM     15  C   UNL     1     -13.759  12.965  -2.580  0.00  0.00    +0.000 C 
ATOM     16  C   UNL     1     -14.026  13.759  -1.333  0.00  0.00    +0.000 C 
ATOM     17  C   UNL     1     -13.010  13.596  -3.594  0.00  0.00    +0.000 C 
ATOM     18  C   UNL     1     -12.257  14.238  -4.597  0.00  0.00    +0.000 C 
ATOM     19  C   UNL     1     -11.649  13.377  -5.665  0.00  0.00    +0.000 C 
ATOM     20  C   UNL     1     -12.058  15.626  -4.682  0.00  0.00    +0.000 C 
ATOM     21  C   UNL     1     -11.879  16.900  -4.764  0.00  0.00    +0.000 C 
ATOM     22  C   UNL     1     -10.728  17.529  -4.043  0.00  0.00    +0.000 C 
ATOM     23  C   UNL     1     -12.991  17.761  -5.280  0.00  0.00    +0.000 C 
ENDBRANCH  13  15
ENDBRANCH  11  14
ENDBRANCH   6  10
BRANCH   3  24
ATOM     24  O   UNL     1     -17.312   5.265   0.540  0.00  0.00    +0.000 OA
ATOM     25  H   UNL     1     -18.237   4.990   0.663  0.00  0.00    +0.000 HD
ENDBRANCH   3  24
BRANCH   3  26
ATOM     26  C   UNL     1     -16.281   4.306  -1.352  0.00  0.00    +0.000 C 
ATOM     27  C   UNL     1     -15.397   3.169  -1.871  0.00  0.00    +0.000 C 
BRANCH  27  28
ATOM     28  C   UNL     1     -14.515   2.028  -2.388  0.00  0.00    +0.000 C 
ATOM     29  C   UNL     1     -13.631   0.890  -2.907  0.00  0.00    +0.000 C 
BRANCH  29  31
ATOM     30  O   UNL     1     -11.913  -0.015  -4.207  0.00  0.00    +0.000 OA
ATOM     31  C   UNL     1     -12.805  -0.173  -3.392  0.00  0.00    +0.000 C 
BRANCH  31  32
ATOM     32  O   UNL     1     -13.098  -1.376  -2.866  0.00  0.00    +0.000 OA
ATOM     33  H   UNL     1     -13.113  -1.209  -1.901  0.00  0.00    +0.000 HD
ENDBRANCH  31  32
ENDBRANCH  29  31
ENDBRANCH  27  28
ENDBRANCH   3  26
TORSDOF 8
ENDMDL
MODEL 4
REMARK VINA RESULT:      -4.7     12.099     14.633
REMARK  Name = 122178712_SalternamideA.pdbqt.pdb
REMARK  8 active torsions:
REMARK  status: ('A' for Active; 'I' for Inactive)
REMARK    1  A    between atoms: C_3  and  O_24
REMARK    2  A    between atoms: C_3  and  C_26
REMARK    3  A    between atoms: C_6  and  N_10
REMARK    4  A    between atoms: C_11  and  C_14
REMARK    5  A    between atoms: C_13  and  C_15
REMARK    6  A    between atoms: C_27  and  C_28
REMARK    7  A    between atoms: C_29  and  C_31
REMARK    8  A    between atoms: C_31  and  O_32
REMARK                            x       y       z     vdW  Elec       q    Type
REMARK                         _______ _______ _______ _____ _____    ______ ____
ROOT
ATOM      1 CL   UNL     1     -16.289  -7.617   3.923  0.00  0.00    +0.000 Cl
ATOM      2  O   UNL     1     -13.824  -5.970   2.848  0.00  0.00    +0.000 OA
ATOM      3  C   UNL     1     -16.045  -4.168   6.071  0.00  0.00    +0.000 C 
ATOM      4  C   UNL     1     -14.830  -3.732   5.362  0.00  0.00    +0.000 C 
ATOM      5  C   UNL     1     -16.279  -5.425   5.341  0.00  0.00    +0.000 C 
ATOM      6  C   UNL     1     -14.063  -4.141   4.392  0.00  0.00    +0.000 C 
ATOM      7  C   UNL     1     -15.728  -6.081   4.362  0.00  0.00    +0.000 C 
ATOM      8  C   UNL     1     -14.479  -5.472   3.756  0.00  0.00    +0.000 C 
ENDROOT
BRANCH   6  10
ATOM      9  O   UNL     1     -13.799  -2.388   2.067  0.00  0.00    +0.000 OA
ATOM     10  N   UNL     1     -12.948  -3.502   3.917  0.00  0.00    +0.000 N 
ATOM     11  C   UNL     1     -12.880  -2.686   2.815  0.00  0.00    +0.000 C 
ATOM     12  H   UNL     1     -12.095  -3.667   4.449  0.00  0.00    +0.000 HD
BRANCH  11  14
ATOM     13  C   UNL     1     -10.477  -1.698   2.314  0.00  0.00    +0.000 C 
ATOM     14  C   UNL     1     -11.569  -2.141   2.547  0.00  0.00    +0.000 C 
BRANCH  13  15
ATOM     15  C   UNL     1      -9.191  -1.178   2.032  0.00  0.00    +0.000 C 
ATOM     16  C   UNL     1      -8.530  -1.581   0.744  0.00  0.00    +0.000 C 
ATOM     17  C   UNL     1      -8.454  -0.344   2.897  0.00  0.00    +0.000 C 
ATOM     18  C   UNL     1      -7.707   0.493   3.751  0.00  0.00    +0.000 C 
ATOM     19  C   UNL     1      -8.450   1.219   4.833  0.00  0.00    +0.000 C 
ATOM     20  C   UNL     1      -6.316   0.674   3.674  0.00  0.00    +0.000 C 
ATOM     21  C   UNL     1      -5.038   0.836   3.610  0.00  0.00    +0.000 C 
ATOM     22  C   UNL     1      -4.476   1.899   2.718  0.00  0.00    +0.000 C 
ATOM     23  C   UNL     1      -4.139  -0.234   4.146  0.00  0.00    +0.000 C 
ENDBRANCH  13  15
ENDBRANCH  11  14
ENDBRANCH   6  10
BRANCH   3  24
ATOM     24  O   UNL     1     -17.096  -3.266   5.794  0.00  0.00    +0.000 OA
ATOM     25  H   UNL     1     -17.757  -3.404   6.494  0.00  0.00    +0.000 HD
ENDBRANCH   3  24
BRANCH   3  26
ATOM     26  C   UNL     1     -15.878  -4.332   7.509  0.00  0.00    +0.000 C 
ATOM     27  C   UNL     1     -15.705  -4.499   9.022  0.00  0.00    +0.000 C 
BRANCH  27  28
ATOM     28  C   UNL     1     -15.535  -4.663  10.535  0.00  0.00    +0.000 C 
ATOM     29  C   UNL     1     -15.369  -4.827  12.049  0.00  0.00    +0.000 C 
BRANCH  29  31
ATOM     30  O   UNL     1     -15.071  -6.062  14.010  0.00  0.00    +0.000 OA
ATOM     31  C   UNL     1     -15.213  -4.982  13.463  0.00  0.00    +0.000 C 
BRANCH  31  32
ATOM     32  O   UNL     1     -15.237  -3.824  14.146  0.00  0.00    +0.000 OA
ATOM     33  H   UNL     1     -14.591  -3.968  14.868  0.00  0.00    +0.000 HD
ENDBRANCH  31  32
ENDBRANCH  29  31
ENDBRANCH  27  28
ENDBRANCH   3  26
TORSDOF 8
ENDMDL
MODEL 5
REMARK VINA RESULT:      -4.7      7.460      9.831
REMARK  Name = 122178712_SalternamideA.pdbqt.pdb
REMARK  8 active torsions:
REMARK  status: ('A' for Active; 'I' for Inactive)
REMARK    1  A    between atoms: C_3  and  O_24
REMARK    2  A    between atoms: C_3  and  C_26
REMARK    3  A    between atoms: C_6  and  N_10
REMARK    4  A    between atoms: C_11  and  C_14
REMARK    5  A    between atoms: C_13  and  C_15
REMARK    6  A    between atoms: C_27  and  C_28
REMARK    7  A    between atoms: C_29  and  C_31
REMARK    8  A    between atoms: C_31  and  O_32
REMARK                            x       y       z     vdW  Elec       q    Type
REMARK                         _______ _______ _______ _____ _____    ______ ____
ROOT
ATOM      1 CL   UNL     1     -16.920  -6.095  -0.154  0.00  0.00    +0.000 Cl
ATOM      2  O   UNL     1     -17.056  -3.113  -1.169  0.00  0.00    +0.000 OA
ATOM      3  C   UNL     1     -18.253  -3.778   2.916  0.00  0.00    +0.000 C 
ATOM      4  C   UNL     1     -18.136  -2.542   2.124  0.00  0.00    +0.000 C 
ATOM      5  C   UNL     1     -17.831  -4.736   1.881  0.00  0.00    +0.000 C 
ATOM      6  C   UNL     1     -17.810  -2.181   0.916  0.00  0.00    +0.000 C 
ATOM      7  C   UNL     1     -17.465  -4.698   0.633  0.00  0.00    +0.000 C 
ATOM      8  C   UNL     1     -17.403  -3.329  -0.015  0.00  0.00    +0.000 C 
ENDROOT
BRANCH   6  10
ATOM      9  O   UNL     1     -19.847  -0.779  -0.643  0.00  0.00    +0.000 OA
ATOM     10  N   UNL     1     -17.793  -0.900   0.430  0.00  0.00    +0.000 N 
ATOM     11  C   UNL     1     -18.782  -0.288  -0.299  0.00  0.00    +0.000 C 
ATOM     12  H   UNL     1     -16.950  -0.368   0.641  0.00  0.00    +0.000 HD
BRANCH  11  14
ATOM     13  C   UNL     1     -18.265   2.207  -1.008  0.00  0.00    +0.000 C 
ATOM     14  C   UNL     1     -18.497   1.075  -0.679  0.00  0.00    +0.000 C 
BRANCH  13  15
ATOM     15  C   UNL     1     -17.997   3.541  -1.401  0.00  0.00    +0.000 C 
ATOM     16  C   UNL     1     -19.151   4.500  -1.483  0.00  0.00    +0.000 C 
ATOM     17  C   UNL     1     -16.730   4.031  -1.773  0.00  0.00    +0.000 C 
ATOM     18  C   UNL     1     -15.467   4.535  -2.145  0.00  0.00    +0.000 C 
ATOM     19  C   UNL     1     -14.257   3.756  -1.719  0.00  0.00    +0.000 C 
ATOM     20  C   UNL     1     -15.263   5.698  -2.906  0.00  0.00    +0.000 C 
ATOM     21  C   UNL     1     -15.075   6.762  -3.609  0.00  0.00    +0.000 C 
ATOM     22  C   UNL     1     -14.968   8.088  -2.922  0.00  0.00    +0.000 C 
ATOM     23  C   UNL     1     -15.305   6.710  -5.088  0.00  0.00    +0.000 C 
ENDBRANCH  13  15
ENDBRANCH  11  14
ENDBRANCH   6  10
BRANCH   3  24
ATOM     24  O   UNL     1     -19.611  -4.004   3.232  0.00  0.00    +0.000 OA
ATOM     25  H   UNL     1     -19.619  -4.360   4.136  0.00  0.00    +0.000 HD
ENDBRANCH   3  24
BRANCH   3  26
ATOM     26  C   UNL     1     -17.437  -3.800   4.123  0.00  0.00    +0.000 C 
ATOM     27  C   UNL     1     -16.584  -3.822   5.395  0.00  0.00    +0.000 C 
BRANCH  27  28
ATOM     28  C   UNL     1     -15.734  -3.842   6.668  0.00  0.00    +0.000 C 
ATOM     29  C   UNL     1     -14.884  -3.858   7.942  0.00  0.00    +0.000 C 
BRANCH  29  31
ATOM     30  O   UNL     1     -14.537  -3.637  10.243  0.00  0.00    +0.000 OA
ATOM     31  C   UNL     1     -14.091  -3.874   9.134  0.00  0.00    +0.000 C 
BRANCH  31  32
ATOM     32  O   UNL     1     -12.797  -4.176   8.925  0.00  0.00    +0.000 OA
ATOM     33  H   UNL     1     -12.315  -3.476   9.412  0.00  0.00    +0.000 HD
ENDBRANCH  31  32
ENDBRANCH  29  31
ENDBRANCH  27  28
ENDBRANCH   3  26
TORSDOF 8
ENDMDL
MODEL 6
REMARK VINA RESULT:      -4.6     15.952     17.531
REMARK  Name = 122178712_SalternamideA.pdbqt.pdb
REMARK  8 active torsions:
REMARK  status: ('A' for Active; 'I' for Inactive)
REMARK    1  A    between atoms: C_3  and  O_24
REMARK    2  A    between atoms: C_3  and  C_26
REMARK    3  A    between atoms: C_6  and  N_10
REMARK    4  A    between atoms: C_11  and  C_14
REMARK    5  A    between atoms: C_13  and  C_15
REMARK    6  A    between atoms: C_27  and  C_28
REMARK    7  A    between atoms: C_29  and  C_31
REMARK    8  A    between atoms: C_31  and  O_32
REMARK                            x       y       z     vdW  Elec       q    Type
REMARK                         _______ _______ _______ _____ _____    ______ ____
ROOT
ATOM      1 CL   UNL     1     -29.289   1.922  11.308  0.00  0.00    +0.000 Cl
ATOM      2  O   UNL     1     -28.332   3.323   8.651  0.00  0.00    +0.000 OA
ATOM      3  C   UNL     1     -27.442   5.407  12.315  0.00  0.00    +0.000 C 
ATOM      4  C   UNL     1     -27.113   5.717  10.913  0.00  0.00    +0.000 C 
ATOM      5  C   UNL     1     -28.176   4.151  12.090  0.00  0.00    +0.000 C 
ATOM      6  C   UNL     1     -27.309   5.215   9.728  0.00  0.00    +0.000 C 
ATOM      7  C   UNL     1     -28.534   3.420  11.075  0.00  0.00    +0.000 C 
ATOM      8  C   UNL     1     -28.101   3.902   9.705  0.00  0.00    +0.000 C 
ENDROOT
BRANCH   6  10
ATOM      9  O   UNL     1     -25.295   4.170   7.885  0.00  0.00    +0.000 OA
ATOM     10  N   UNL     1     -26.871   5.742   8.541  0.00  0.00    +0.000 N 
ATOM     11  C   UNL     1     -25.919   5.207   7.710  0.00  0.00    +0.000 C 
ATOM     12  H   UNL     1     -27.309   6.620   8.270  0.00  0.00    +0.000 HD
BRANCH  11  14
ATOM     13  C   UNL     1     -25.445   6.608   5.517  0.00  0.00    +0.000 C 
ATOM     14  C   UNL     1     -25.656   5.977   6.517  0.00  0.00    +0.000 C 
BRANCH  13  15
ATOM     15  C   UNL     1     -25.205   7.352   4.336  0.00  0.00    +0.000 C 
ATOM     16  C   UNL     1     -25.450   6.680   3.015  0.00  0.00    +0.000 C 
ATOM     17  C   UNL     1     -24.699   8.666   4.303  0.00  0.00    +0.000 C 
ATOM     18  C   UNL     1     -24.196   9.982   4.255  0.00  0.00    +0.000 C 
ATOM     19  C   UNL     1     -24.302  10.810   5.501  0.00  0.00    +0.000 C 
ATOM     20  C   UNL     1     -23.584  10.563   3.132  0.00  0.00    +0.000 C 
ATOM     21  C   UNL     1     -23.015  11.094   2.104  0.00  0.00    +0.000 C 
ATOM     22  C   UNL     1     -23.853  11.793   1.079  0.00  0.00    +0.000 C 
ATOM     23  C   UNL     1     -21.602  10.721   1.777  0.00  0.00    +0.000 C 
ENDBRANCH  13  15
ENDBRANCH  11  14
ENDBRANCH   6  10
BRANCH   3  24
ATOM     24  O   UNL     1     -28.333   6.384  12.812  0.00  0.00    +0.000 OA
ATOM     25  H   UNL     1     -27.786   7.157  13.033  0.00  0.00    +0.000 HD
ENDBRANCH   3  24
BRANCH   3  26
ATOM     26  C   UNL     1     -26.284   5.277  13.191  0.00  0.00    +0.000 C 
ATOM     27  C   UNL     1     -25.072   5.142  14.116  0.00  0.00    +0.000 C 
BRANCH  27  28
ATOM     28  C   UNL     1     -23.861   5.009  15.045  0.00  0.00    +0.000 C 
ATOM     29  C   UNL     1     -22.649   4.874  15.971  0.00  0.00    +0.000 C 
BRANCH  29  31
ATOM     30  O   UNL     1     -21.434   3.914  17.721  0.00  0.00    +0.000 OA
ATOM     31  C   UNL     1     -21.516   4.748  16.836  0.00  0.00    +0.000 C 
BRANCH  31  32
ATOM     32  O   UNL     1     -20.538   5.638  16.589  0.00  0.00    +0.000 OA
ATOM     33  H   UNL     1     -20.685   5.888  15.654  0.00  0.00    +0.000 HD
ENDBRANCH  31  32
ENDBRANCH  29  31
ENDBRANCH  27  28
ENDBRANCH   3  26
TORSDOF 8
ENDMDL
MODEL 7
REMARK VINA RESULT:      -4.5     16.572     19.917
REMARK  Name = 122178712_SalternamideA.pdbqt.pdb
REMARK  8 active torsions:
REMARK  status: ('A' for Active; 'I' for Inactive)
REMARK    1  A    between atoms: C_3  and  O_24
REMARK    2  A    between atoms: C_3  and  C_26
REMARK    3  A    between atoms: C_6  and  N_10
REMARK    4  A    between atoms: C_11  and  C_14
REMARK    5  A    between atoms: C_13  and  C_15
REMARK    6  A    between atoms: C_27  and  C_28
REMARK    7  A    between atoms: C_29  and  C_31
REMARK    8  A    between atoms: C_31  and  O_32
REMARK                            x       y       z     vdW  Elec       q    Type
REMARK                         _______ _______ _______ _____ _____    ______ ____
ROOT
ATOM      1 CL   UNL     1      -3.417  17.538   7.826  0.00  0.00    +0.000 Cl
ATOM      2  O   UNL     1      -0.415  17.678   6.871  0.00  0.00    +0.000 OA
ATOM      3  C   UNL     1      -3.029  15.176   4.533  0.00  0.00    +0.000 C 
ATOM      4  C   UNL     1      -1.608  15.524   4.367  0.00  0.00    +0.000 C 
ATOM      5  C   UNL     1      -3.298  15.951   5.755  0.00  0.00    +0.000 C 
ATOM      6  C   UNL     1      -0.697  16.233   4.969  0.00  0.00    +0.000 C 
ATOM      7  C   UNL     1      -2.633  16.720   6.567  0.00  0.00    +0.000 C 
ATOM      8  C   UNL     1      -1.175  16.964   6.230  0.00  0.00    +0.000 C 
ENDROOT
BRANCH   6  10
ATOM      9  O   UNL     1       0.415  18.000   2.923  0.00  0.00    +0.000 OA
ATOM     10  N   UNL     1       0.607  16.381   4.575  0.00  0.00    +0.000 N 
ATOM     11  C   UNL     1       1.076  17.231   3.605  0.00  0.00    +0.000 C 
ATOM     12  H   UNL     1       1.277  15.790   5.064  0.00  0.00    +0.000 HD
BRANCH  11  14
ATOM     13  C   UNL     1       3.695  17.151   3.239  0.00  0.00    +0.000 C 
ATOM     14  C   UNL     1       2.505  17.183   3.399  0.00  0.00    +0.000 C 
BRANCH  13  15
ATOM     15  C   UNL     1       5.099  17.115   3.058  0.00  0.00    +0.000 C 
ATOM     16  C   UNL     1       5.908  18.278   3.558  0.00  0.00    +0.000 C 
ATOM     17  C   UNL     1       5.797  16.087   2.393  0.00  0.00    +0.000 C 
ATOM     18  C   UNL     1       6.509  15.065   1.733  0.00  0.00    +0.000 C 
ATOM     19  C   UNL     1       5.824  13.740   1.567  0.00  0.00    +0.000 C 
ATOM     20  C   UNL     1       7.801  15.207   1.200  0.00  0.00    +0.000 C 
ATOM     21  C   UNL     1       8.984  15.338   0.704  0.00  0.00    +0.000 C 
ATOM     22  C   UNL     1      10.177  15.074   1.569  0.00  0.00    +0.000 C 
ATOM     23  C   UNL     1       9.155  16.066  -0.593  0.00  0.00    +0.000 C 
ENDBRANCH  13  15
ENDBRANCH  11  14
ENDBRANCH   6  10
BRANCH   3  24
ATOM     24  O   UNL     1      -3.142  13.798   4.823  0.00  0.00    +0.000 OA
ATOM     25  H   UNL     1      -4.093  13.596   4.793  0.00  0.00    +0.000 HD
ENDBRANCH   3  24
BRANCH   3  26
ATOM     26  C   UNL     1      -3.873  15.531   3.400  0.00  0.00    +0.000 C 
ATOM     27  C   UNL     1      -4.760  15.899   2.206  0.00  0.00    +0.000 C 
BRANCH  27  28
ATOM     28  C   UNL     1      -5.646  16.263   1.011  0.00  0.00    +0.000 C 
ATOM     29  C   UNL     1      -6.533  16.624  -0.184  0.00  0.00    +0.000 C 
BRANCH  29  31
ATOM     30  O   UNL     1      -7.338  16.365  -2.362  0.00  0.00    +0.000 OA
ATOM     31  C   UNL     1      -7.363  16.961  -1.300  0.00  0.00    +0.000 C 
BRANCH  31  32
ATOM     32  O   UNL     1      -8.182  18.005  -1.077  0.00  0.00    +0.000 OA
ATOM     33  H   UNL     1      -8.325  17.983  -0.108  0.00  0.00    +0.000 HD
ENDBRANCH  31  32
ENDBRANCH  29  31
ENDBRANCH  27  28
ENDBRANCH   3  26
TORSDOF 8
ENDMDL
MODEL 8
REMARK VINA RESULT:      -4.5      9.739     12.381
REMARK  Name = 122178712_SalternamideA.pdbqt.pdb
REMARK  8 active torsions:
REMARK  status: ('A' for Active; 'I' for Inactive)
REMARK    1  A    between atoms: C_3  and  O_24
REMARK    2  A    between atoms: C_3  and  C_26
REMARK    3  A    between atoms: C_6  and  N_10
REMARK    4  A    between atoms: C_11  and  C_14
REMARK    5  A    between atoms: C_13  and  C_15
REMARK    6  A    between atoms: C_27  and  C_28
REMARK    7  A    between atoms: C_29  and  C_31
REMARK    8  A    between atoms: C_31  and  O_32
REMARK                            x       y       z     vdW  Elec       q    Type
REMARK                         _______ _______ _______ _____ _____    ______ ____
ROOT
ATOM      1 CL   UNL     1     -17.288  -3.827  -2.605  0.00  0.00    +0.000 Cl
ATOM      2  O   UNL     1     -14.586  -2.923  -1.255  0.00  0.00    +0.000 OA
ATOM      3  C   UNL     1     -18.071  -0.598  -0.254  0.00  0.00    +0.000 C 
ATOM      4  C   UNL     1     -16.677  -0.513   0.212  0.00  0.00    +0.000 C 
ATOM      5  C   UNL     1     -17.920  -1.734  -1.177  0.00  0.00    +0.000 C 
ATOM      6  C   UNL     1     -15.539  -1.112   0.007  0.00  0.00    +0.000 C 
ATOM      7  C   UNL     1     -16.962  -2.511  -1.591  0.00  0.00    +0.000 C 
ATOM      8  C   UNL     1     -15.588  -2.270  -0.995  0.00  0.00    +0.000 C 
ENDROOT
BRANCH   6  10
ATOM      9  O   UNL     1     -13.526   0.845  -0.808  0.00  0.00    +0.000 OA
ATOM     10  N   UNL     1     -14.343  -0.806   0.603  0.00  0.00    +0.000 N 
ATOM     11  C   UNL     1     -13.432   0.127   0.177  0.00  0.00    +0.000 C 
ATOM     12  H   UNL     1     -14.130  -1.339   1.445  0.00  0.00    +0.000 HD
BRANCH  11  14
ATOM     13  C   UNL     1     -11.281   0.350   1.701  0.00  0.00    +0.000 C 
ATOM     14  C   UNL     1     -12.254   0.244   1.004  0.00  0.00    +0.000 C 
BRANCH  13  15
ATOM     15  C   UNL     1     -10.138   0.475   2.528  0.00  0.00    +0.000 C 
ATOM     16  C   UNL     1     -10.326   1.020   3.916  0.00  0.00    +0.000 C 
ATOM     17  C   UNL     1      -8.821   0.174   2.130  0.00  0.00    +0.000 C 
ATOM     18  C   UNL     1      -7.498  -0.126   1.746  0.00  0.00    +0.000 C 
ATOM     19  C   UNL     1      -7.308  -1.013   0.551  0.00  0.00    +0.000 C 
ATOM     20  C   UNL     1      -6.349   0.365   2.388  0.00  0.00    +0.000 C 
ATOM     21  C   UNL     1      -5.294   0.820   2.973  0.00  0.00    +0.000 C 
ATOM     22  C   UNL     1      -4.714   0.071   4.132  0.00  0.00    +0.000 C 
ATOM     23  C   UNL     1      -4.871   2.234   2.717  0.00  0.00    +0.000 C 
ENDBRANCH  13  15
ENDBRANCH  11  14
ENDBRANCH   6  10
BRANCH   3  24
ATOM     24  O   UNL     1     -18.389   0.563  -0.993  0.00  0.00    +0.000 OA
ATOM     25  H   UNL     1     -17.741   0.604  -1.717  0.00  0.00    +0.000 HD
ENDBRANCH   3  24
BRANCH   3  26
ATOM     26  C   UNL     1     -19.049  -0.813   0.806  0.00  0.00    +0.000 C 
ATOM     27  C   UNL     1     -20.078  -1.033   1.919  0.00  0.00    +0.000 C 
BRANCH  27  28
ATOM     28  C   UNL     1     -21.109  -1.249   3.031  0.00  0.00    +0.000 C 
ATOM     29  C   UNL     1     -22.142  -1.466   4.140  0.00  0.00    +0.000 C 
BRANCH  29  31
ATOM     30  O   UNL     1     -23.342  -2.759   5.673  0.00  0.00    +0.000 OA
ATOM     31  C   UNL     1     -23.107  -1.671   5.177  0.00  0.00    +0.000 C 
BRANCH  31  32
ATOM     32  O   UNL     1     -23.741  -0.549   5.563  0.00  0.00    +0.000 OA
ATOM     33  H   UNL     1     -23.012   0.081   5.734  0.00  0.00    +0.000 HD
ENDBRANCH  31  32
ENDBRANCH  29  31
ENDBRANCH  27  28
ENDBRANCH   3  26
TORSDOF 8
ENDMDL
MODEL 9
REMARK VINA RESULT:      -4.4     10.202     15.124
REMARK  Name = 122178712_SalternamideA.pdbqt.pdb
REMARK  8 active torsions:
REMARK  status: ('A' for Active; 'I' for Inactive)
REMARK    1  A    between atoms: C_3  and  O_24
REMARK    2  A    between atoms: C_3  and  C_26
REMARK    3  A    between atoms: C_6  and  N_10
REMARK    4  A    between atoms: C_11  and  C_14
REMARK    5  A    between atoms: C_13  and  C_15
REMARK    6  A    between atoms: C_27  and  C_28
REMARK    7  A    between atoms: C_29  and  C_31
REMARK    8  A    between atoms: C_31  and  O_32
REMARK                            x       y       z     vdW  Elec       q    Type
REMARK                         _______ _______ _______ _____ _____    ______ ____
ROOT
ATOM      1 CL   UNL     1      -8.839  -7.971   7.771  0.00  0.00    +0.000 Cl
ATOM      2  O   UNL     1      -9.310  -5.934   5.411  0.00  0.00    +0.000 OA
ATOM      3  C   UNL     1     -12.838  -7.257   7.502  0.00  0.00    +0.000 C 
ATOM      4  C   UNL     1     -12.660  -6.290   6.406  0.00  0.00    +0.000 C 
ATOM      5  C   UNL     1     -11.428  -7.643   7.677  0.00  0.00    +0.000 C 
ATOM      6  C   UNL     1     -11.697  -5.801   5.678  0.00  0.00    +0.000 C 
ATOM      7  C   UNL     1     -10.282  -7.357   7.132  0.00  0.00    +0.000 C 
ATOM      8  C   UNL     1     -10.299  -6.334   6.013  0.00  0.00    +0.000 C 
ENDROOT
BRANCH   6  10
ATOM      9  O   UNL     1     -12.506  -2.998   5.867  0.00  0.00    +0.000 OA
ATOM     10  N   UNL     1     -11.827  -4.873   4.679  0.00  0.00    +0.000 N 
ATOM     11  C   UNL     1     -12.211  -3.563   4.824  0.00  0.00    +0.000 C 
ATOM     12  H   UNL     1     -11.614  -5.212   3.742  0.00  0.00    +0.000 HD
BRANCH  11  14
ATOM     13  C   UNL     1     -12.287  -2.186   2.566  0.00  0.00    +0.000 C 
ATOM     14  C   UNL     1     -12.259  -2.808   3.594  0.00  0.00    +0.000 C 
BRANCH  13  15
ATOM     15  C   UNL     1     -12.318  -1.460   1.351  0.00  0.00    +0.000 C 
ATOM     16  C   UNL     1     -13.293  -1.893   0.292  0.00  0.00    +0.000 C 
ATOM     17  C   UNL     1     -11.463  -0.386   1.034  0.00  0.00    +0.000 C 
ATOM     18  C   UNL     1     -10.617   0.692   0.705  0.00  0.00    +0.000 C 
ATOM     19  C   UNL     1      -9.919   1.395   1.833  0.00  0.00    +0.000 C 
ATOM     20  C   UNL     1     -10.363   1.138  -0.602  0.00  0.00    +0.000 C 
ATOM     21  C   UNL     1     -10.123   1.545  -1.802  0.00  0.00    +0.000 C 
ATOM     22  C   UNL     1     -11.021   2.568  -2.425  0.00  0.00    +0.000 C 
ATOM     23  C   UNL     1      -9.183   0.760  -2.664  0.00  0.00    +0.000 C 
ENDBRANCH  13  15
ENDBRANCH  11  14
ENDBRANCH   6  10
BRANCH   3  24
ATOM     24  O   UNL     1     -13.569  -8.370   7.030  0.00  0.00    +0.000 OA
ATOM     25  H   UNL     1     -12.948  -8.887   6.490  0.00  0.00    +0.000 HD
ENDBRANCH   3  24
BRANCH   3  26
ATOM     26  C   UNL     1     -13.461  -6.705   8.698  0.00  0.00    +0.000 C 
ATOM     27  C   UNL     1     -14.121  -6.122   9.951  0.00  0.00    +0.000 C 
BRANCH  27  28
ATOM     28  C   UNL     1     -14.783  -5.537  11.202  0.00  0.00    +0.000 C 
ATOM     29  C   UNL     1     -15.443  -4.953  12.454  0.00  0.00    +0.000 C 
BRANCH  29  31
ATOM     30  O   UNL     1     -17.247  -4.517  13.874  0.00  0.00    +0.000 OA
ATOM     31  C   UNL     1     -16.059  -4.405  13.624  0.00  0.00    +0.000 C 
BRANCH  31  32
ATOM     32  O   UNL     1     -15.209  -3.748  14.434  0.00  0.00    +0.000 OA
ATOM     33  H   UNL     1     -14.947  -2.966  13.907  0.00  0.00    +0.000 HD
ENDBRANCH  31  32
ENDBRANCH  29  31
ENDBRANCH  27  28
ENDBRANCH   3  26
TORSDOF 8
ENDMDL
