MODEL 1
REMARK VINA RESULT:      -5.0      0.000      0.000
REMARK  Name = 122180587_TripolinolateA.pdbqt.pdb
REMARK  9 active torsions:
REMARK  status: ('A' for Active; 'I' for Inactive)
REMARK    1  A    between atoms: C_1  and  O_16
REMARK    2  A    between atoms: C_2  and  O_7
REMARK    3  A    between atoms: C_3  and  C_9
REMARK    4  A    between atoms: C_10  and  C_11
REMARK    5  A    between atoms: C_11  and  O_12
REMARK    6  A    between atoms: O_12  and  C_14
REMARK    7  A    between atoms: O_16  and  C_18
REMARK    8  A    between atoms: C_18  and  C_19
REMARK    9  A    between atoms: C_19  and  C_21
REMARK                            x       y       z     vdW  Elec       q    Type
REMARK                         _______ _______ _______ _____ _____    ______ ____
ROOT
ATOM      1  C   UNL     1      -9.406   5.840  18.626  0.00  0.00    +0.000 A 
ATOM      2  C   UNL     1      -9.502   4.641  19.339  0.00  0.00    +0.000 A 
ATOM      3  C   UNL     1     -11.735   5.293  20.026  0.00  0.00    +0.000 A 
ATOM      4  C   UNL     1     -10.443   6.776  18.631  0.00  0.00    +0.000 A 
ATOM      5  C   UNL     1     -10.684   4.376  20.036  0.00  0.00    +0.000 A 
ATOM      6  C   UNL     1     -11.614   6.493  19.327  0.00  0.00    +0.000 A 
ENDROOT
BRANCH   2   7
ATOM      7  O   UNL     1      -8.410   3.809  19.320  0.00  0.00    +0.000 OA
ATOM      8  C   UNL     1      -7.914   3.431  20.574  0.00  0.00    +0.000 C 
ENDBRANCH   2   7
BRANCH   3   9
ATOM      9  C   UNL     1     -12.936   5.003  20.739  0.00  0.00    +0.000 C 
ATOM     10  C   UNL     1     -13.946   4.760  21.340  0.00  0.00    +0.000 C 
BRANCH  10  11
ATOM     11  C   UNL     1     -15.232   4.447  22.111  0.00  0.00    +0.000 C 
BRANCH  11  12
ATOM     12  O   UNL     1     -16.351   4.177  22.780  0.00  0.00    +0.000 OA
BRANCH  12  14
ATOM     13  O   UNL     1     -17.210   6.210  23.552  0.00  0.00    +0.000 OA
ATOM     14  C   UNL     1     -17.223   5.200  22.872  0.00  0.00    +0.000 C 
ATOM     15  C   UNL     1     -18.416   5.075  21.986  0.00  0.00    +0.000 C 
ENDBRANCH  12  14
ENDBRANCH  11  12
ENDBRANCH  10  11
ENDBRANCH   3   9
BRANCH   1  16
ATOM     16  O   UNL     1      -8.217   6.162  17.959  0.00  0.00    +0.000 OA
BRANCH  16  18
ATOM     17  O   UNL     1      -8.404   7.745  16.264  0.00  0.00    +0.000 OA
ATOM     18  C   UNL     1      -8.415   6.582  16.649  0.00  0.00    +0.000 C 
BRANCH  18  19
ATOM     19  C   UNL     1      -8.664   5.420  15.759  0.00  0.00    +0.000 C 
ATOM     20  C   UNL     1      -9.993   5.171  15.058  0.00  0.00    +0.000 C 
BRANCH  19  21
ATOM     21  C   UNL     1      -7.618   4.487  15.536  0.00  0.00    +0.000 C 
ATOM     22  C   UNL     1      -6.484   3.472  15.301  0.00  0.00    +0.000 C 
ENDBRANCH  19  21
ENDBRANCH  18  19
ENDBRANCH  16  18
ENDBRANCH   1  16
TORSDOF 9
ENDMDL
MODEL 2
REMARK VINA RESULT:      -4.8      5.083      7.839
REMARK  Name = 122180587_TripolinolateA.pdbqt.pdb
REMARK  9 active torsions:
REMARK  status: ('A' for Active; 'I' for Inactive)
REMARK    1  A    between atoms: C_1  and  O_16
REMARK    2  A    between atoms: C_2  and  O_7
REMARK    3  A    between atoms: C_3  and  C_9
REMARK    4  A    between atoms: C_10  and  C_11
REMARK    5  A    between atoms: C_11  and  O_12
REMARK    6  A    between atoms: O_12  and  C_14
REMARK    7  A    between atoms: O_16  and  C_18
REMARK    8  A    between atoms: C_18  and  C_19
REMARK    9  A    between atoms: C_19  and  C_21
REMARK                            x       y       z     vdW  Elec       q    Type
REMARK                         _______ _______ _______ _____ _____    ______ ____
ROOT
ATOM      1  C   UNL     1     -15.490   4.866  23.529  0.00  0.00    +0.000 A 
ATOM      2  C   UNL     1     -15.242   4.579  22.183  0.00  0.00    +0.000 A 
ATOM      3  C   UNL     1     -17.560   5.109  21.703  0.00  0.00    +0.000 A 
ATOM      4  C   UNL     1     -16.760   5.239  23.974  0.00  0.00    +0.000 A 
ATOM      5  C   UNL     1     -16.295   4.711  21.273  0.00  0.00    +0.000 A 
ATOM      6  C   UNL     1     -17.795   5.369  23.052  0.00  0.00    +0.000 A 
ENDROOT
BRANCH   2   7
ATOM      7  O   UNL     1     -13.977   4.165  21.850  0.00  0.00    +0.000 OA
ATOM      8  C   UNL     1     -13.354   4.886  20.823  0.00  0.00    +0.000 C 
ENDBRANCH   2   7
BRANCH   3   9
ATOM      9  C   UNL     1     -18.621   5.243  20.759  0.00  0.00    +0.000 C 
ATOM     10  C   UNL     1     -19.515   5.357  19.965  0.00  0.00    +0.000 C 
BRANCH  10  11
ATOM     11  C   UNL     1     -20.657   5.504  18.955  0.00  0.00    +0.000 C 
BRANCH  11  12
ATOM     12  O   UNL     1     -21.649   5.633  18.076  0.00  0.00    +0.000 OA
BRANCH  12  14
ATOM     13  O   UNL     1     -23.248   7.336  17.975  0.00  0.00    +0.000 OA
ATOM     14  C   UNL     1     -22.118   6.887  17.923  0.00  0.00    +0.000 C 
ATOM     15  C   UNL     1     -21.067   7.907  17.638  0.00  0.00    +0.000 C 
ENDBRANCH  12  14
ENDBRANCH  11  12
ENDBRANCH  10  11
ENDBRANCH   3   9
BRANCH   1  16
ATOM     16  O   UNL     1     -14.472   4.694  24.477  0.00  0.00    +0.000 OA
BRANCH  16  18
ATOM     17  O   UNL     1     -14.360   6.837  25.375  0.00  0.00    +0.000 OA
ATOM     18  C   UNL     1     -13.834   5.879  24.822  0.00  0.00    +0.000 C 
BRANCH  18  19
ATOM     19  C   UNL     1     -12.408   5.843  24.412  0.00  0.00    +0.000 C 
ATOM     20  C   UNL     1     -11.432   4.764  24.865  0.00  0.00    +0.000 C 
BRANCH  19  21
ATOM     21  C   UNL     1     -11.913   6.856  23.550  0.00  0.00    +0.000 C 
ATOM     22  C   UNL     1     -11.378   7.950  22.607  0.00  0.00    +0.000 C 
ENDBRANCH  19  21
ENDBRANCH  18  19
ENDBRANCH  16  18
ENDBRANCH   1  16
TORSDOF 9
ENDMDL
MODEL 3
REMARK VINA RESULT:      -4.3      4.758      9.588
REMARK  Name = 122180587_TripolinolateA.pdbqt.pdb
REMARK  9 active torsions:
REMARK  status: ('A' for Active; 'I' for Inactive)
REMARK    1  A    between atoms: C_1  and  O_16
REMARK    2  A    between atoms: C_2  and  O_7
REMARK    3  A    between atoms: C_3  and  C_9
REMARK    4  A    between atoms: C_10  and  C_11
REMARK    5  A    between atoms: C_11  and  O_12
REMARK    6  A    between atoms: O_12  and  C_14
REMARK    7  A    between atoms: O_16  and  C_18
REMARK    8  A    between atoms: C_18  and  C_19
REMARK    9  A    between atoms: C_19  and  C_21
REMARK                            x       y       z     vdW  Elec       q    Type
REMARK                         _______ _______ _______ _____ _____    ______ ____
ROOT
ATOM      1  C   UNL     1      -7.191   6.617  16.993  0.00  0.00    +0.000 A 
ATOM      2  C   UNL     1      -5.814   6.844  16.905  0.00  0.00    +0.000 A 
ATOM      3  C   UNL     1      -6.289   9.164  16.380  0.00  0.00    +0.000 A 
ATOM      4  C   UNL     1      -8.116   7.634  16.748  0.00  0.00    +0.000 A 
ATOM      5  C   UNL     1      -5.374   8.135  16.600  0.00  0.00    +0.000 A 
ATOM      6  C   UNL     1      -7.658   8.914  16.450  0.00  0.00    +0.000 A 
ENDROOT
BRANCH   2   7
ATOM      7  O   UNL     1      -4.985   5.770  17.107  0.00  0.00    +0.000 OA
ATOM      8  C   UNL     1      -4.169   5.420  16.023  0.00  0.00    +0.000 C 
ENDBRANCH   2   7
BRANCH   3   9
ATOM      9  C   UNL     1      -5.820  10.476  16.075  0.00  0.00    +0.000 C 
ATOM     10  C   UNL     1      -5.425  11.581  15.819  0.00  0.00    +0.000 C 
BRANCH  10  11
ATOM     11  C   UNL     1      -4.922  12.992  15.498  0.00  0.00    +0.000 C 
BRANCH  11  12
ATOM     12  O   UNL     1      -4.486  14.219  15.219  0.00  0.00    +0.000 OA
BRANCH  12  14
ATOM     13  O   UNL     1      -6.118  15.868  14.927  0.00  0.00    +0.000 OA
ATOM     14  C   UNL     1      -5.359  14.996  14.547  0.00  0.00    +0.000 C 
ATOM     15  C   UNL     1      -5.403  14.744  13.077  0.00  0.00    +0.000 C 
ENDBRANCH  12  14
ENDBRANCH  11  12
ENDBRANCH  10  11
ENDBRANCH   3   9
BRANCH   1  16
ATOM     16  O   UNL     1      -7.670   5.324  17.245  0.00  0.00    +0.000 OA
BRANCH  16  18
ATOM     17  O   UNL     1      -7.494   4.130  15.257  0.00  0.00    +0.000 OA
ATOM     18  C   UNL     1      -8.167   4.689  16.113  0.00  0.00    +0.000 C 
BRANCH  18  19
ATOM     19  C   UNL     1      -9.647   4.790  16.065  0.00  0.00    +0.000 C 
ATOM     20  C   UNL     1     -10.428   5.062  14.785  0.00  0.00    +0.000 C 
BRANCH  19  21
ATOM     21  C   UNL     1     -10.390   4.621  17.263  0.00  0.00    +0.000 C 
ATOM     22  C   UNL     1     -11.190   4.442  18.567  0.00  0.00    +0.000 C 
ENDBRANCH  19  21
ENDBRANCH  18  19
ENDBRANCH  16  18
ENDBRANCH   1  16
TORSDOF 9
ENDMDL
MODEL 4
REMARK VINA RESULT:      -4.1      4.414      9.688
REMARK  Name = 122180587_TripolinolateA.pdbqt.pdb
REMARK  9 active torsions:
REMARK  status: ('A' for Active; 'I' for Inactive)
REMARK    1  A    between atoms: C_1  and  O_16
REMARK    2  A    between atoms: C_2  and  O_7
REMARK    3  A    between atoms: C_3  and  C_9
REMARK    4  A    between atoms: C_10  and  C_11
REMARK    5  A    between atoms: C_11  and  O_12
REMARK    6  A    between atoms: O_12  and  C_14
REMARK    7  A    between atoms: O_16  and  C_18
REMARK    8  A    between atoms: C_18  and  C_19
REMARK    9  A    between atoms: C_19  and  C_21
REMARK                            x       y       z     vdW  Elec       q    Type
REMARK                         _______ _______ _______ _____ _____    ______ ____
ROOT
ATOM      1  C   UNL     1      -8.649   7.145  18.580  0.00  0.00    +0.000 A 
ATOM      2  C   UNL     1      -8.205   7.020  17.260  0.00  0.00    +0.000 A 
ATOM      3  C   UNL     1      -7.159   9.199  17.466  0.00  0.00    +0.000 A 
ATOM      4  C   UNL     1      -8.386   8.292  19.332  0.00  0.00    +0.000 A 
ATOM      5  C   UNL     1      -7.450   8.062  16.713  0.00  0.00    +0.000 A 
ATOM      6  C   UNL     1      -7.629   9.317  18.773  0.00  0.00    +0.000 A 
ENDROOT
BRANCH   2   7
ATOM      7  O   UNL     1      -8.560   5.882  16.581  0.00  0.00    +0.000 OA
ATOM      8  C   UNL     1      -9.510   6.052  15.566  0.00  0.00    +0.000 C 
ENDBRANCH   2   7
BRANCH   3   9
ATOM      9  C   UNL     1      -6.383  10.250  16.893  0.00  0.00    +0.000 C 
ATOM     10  C   UNL     1      -5.728  11.134  16.412  0.00  0.00    +0.000 C 
BRANCH  10  11
ATOM     11  C   UNL     1      -4.892  12.263  15.802  0.00  0.00    +0.000 C 
BRANCH  11  12
ATOM     12  O   UNL     1      -4.165  13.244  15.270  0.00  0.00    +0.000 OA
BRANCH  12  14
ATOM     13  O   UNL     1      -4.457  14.444  13.285  0.00  0.00    +0.000 OA
ATOM     14  C   UNL     1      -4.809  14.006  14.364  0.00  0.00    +0.000 C 
ATOM     15  C   UNL     1      -6.200  14.380  14.751  0.00  0.00    +0.000 C 
ENDBRANCH  12  14
ENDBRANCH  11  12
ENDBRANCH  10  11
ENDBRANCH   3   9
BRANCH   1  16
ATOM     16  O   UNL     1      -9.452   6.144  19.143  0.00  0.00    +0.000 OA
BRANCH  16  18
ATOM     17  O   UNL     1     -11.482   6.897  18.294  0.00  0.00    +0.000 OA
ATOM     18  C   UNL     1     -10.795   6.494  19.223  0.00  0.00    +0.000 C 
BRANCH  18  19
ATOM     19  C   UNL     1     -11.297   6.328  20.610  0.00  0.00    +0.000 C 
ATOM     20  C   UNL     1     -12.050   5.094  21.087  0.00  0.00    +0.000 C 
BRANCH  19  21
ATOM     21  C   UNL     1     -11.065   7.362  21.555  0.00  0.00    +0.000 C 
ATOM     22  C   UNL     1     -10.822   8.486  22.580  0.00  0.00    +0.000 C 
ENDBRANCH  19  21
ENDBRANCH  18  19
ENDBRANCH  16  18
ENDBRANCH   1  16
TORSDOF 9
ENDMDL
MODEL 5
REMARK VINA RESULT:      -4.1     19.713     21.736
REMARK  Name = 122180587_TripolinolateA.pdbqt.pdb
REMARK  9 active torsions:
REMARK  status: ('A' for Active; 'I' for Inactive)
REMARK    1  A    between atoms: C_1  and  O_16
REMARK    2  A    between atoms: C_2  and  O_7
REMARK    3  A    between atoms: C_3  and  C_9
REMARK    4  A    between atoms: C_10  and  C_11
REMARK    5  A    between atoms: C_11  and  O_12
REMARK    6  A    between atoms: O_12  and  C_14
REMARK    7  A    between atoms: O_16  and  C_18
REMARK    8  A    between atoms: C_18  and  C_19
REMARK    9  A    between atoms: C_19  and  C_21
REMARK                            x       y       z     vdW  Elec       q    Type
REMARK                         _______ _______ _______ _____ _____    ______ ____
ROOT
ATOM      1  C   UNL     1     -13.757   2.029  -2.168  0.00  0.00    +0.000 A 
ATOM      2  C   UNL     1     -15.107   2.386  -2.092  0.00  0.00    +0.000 A 
ATOM      3  C   UNL     1     -14.429   4.714  -2.027  0.00  0.00    +0.000 A 
ATOM      4  C   UNL     1     -12.746   2.992  -2.142  0.00  0.00    +0.000 A 
ATOM      5  C   UNL     1     -15.431   3.744  -2.027  0.00  0.00    +0.000 A 
ATOM      6  C   UNL     1     -13.088   4.340  -2.081  0.00  0.00    +0.000 A 
ENDROOT
BRANCH   2   7
ATOM      7  O   UNL     1     -16.027   1.368  -2.067  0.00  0.00    +0.000 OA
ATOM      8  C   UNL     1     -16.855   1.271  -3.193  0.00  0.00    +0.000 C 
ENDBRANCH   2   7
BRANCH   3   9
ATOM      9  C   UNL     1     -14.779   6.095  -1.965  0.00  0.00    +0.000 C 
ATOM     10  C   UNL     1     -15.075   7.258  -1.912  0.00  0.00    +0.000 C 
BRANCH  10  11
ATOM     11  C   UNL     1     -15.457   8.740  -1.845  0.00  0.00    +0.000 C 
BRANCH  11  12
ATOM     12  O   UNL     1     -15.788  10.028  -1.784  0.00  0.00    +0.000 OA
BRANCH  12  14
ATOM     13  O   UNL     1     -14.867  11.845  -0.636  0.00  0.00    +0.000 OA
ATOM     14  C   UNL     1     -15.274  10.702  -0.737  0.00  0.00    +0.000 C 
ATOM     15  C   UNL     1     -15.186   9.909   0.524  0.00  0.00    +0.000 C 
ENDBRANCH  12  14
ENDBRANCH  11  12
ENDBRANCH  10  11
ENDBRANCH   3   9
BRANCH   1  16
ATOM     16  O   UNL     1     -13.393   0.676  -2.182  0.00  0.00    +0.000 OA
BRANCH  16  18
ATOM     17  O   UNL     1     -13.611   0.119   0.065  0.00  0.00    +0.000 OA
ATOM     18  C   UNL     1     -12.938   0.214  -0.953  0.00  0.00    +0.000 C 
BRANCH  18  19
ATOM     19  C   UNL     1     -11.499  -0.141  -1.028  0.00  0.00    +0.000 C 
ATOM     20  C   UNL     1     -10.957  -1.263  -1.904  0.00  0.00    +0.000 C 
BRANCH  19  21
ATOM     21  C   UNL     1     -10.565   0.597  -0.254  0.00  0.00    +0.000 C 
ATOM     22  C   UNL     1      -9.555   1.404   0.583  0.00  0.00    +0.000 C 
ENDBRANCH  19  21
ENDBRANCH  18  19
ENDBRANCH  16  18
ENDBRANCH   1  16
TORSDOF 9
ENDMDL
MODEL 6
REMARK VINA RESULT:      -4.0     20.105     23.308
REMARK  Name = 122180587_TripolinolateA.pdbqt.pdb
REMARK  9 active torsions:
REMARK  status: ('A' for Active; 'I' for Inactive)
REMARK    1  A    between atoms: C_1  and  O_16
REMARK    2  A    between atoms: C_2  and  O_7
REMARK    3  A    between atoms: C_3  and  C_9
REMARK    4  A    between atoms: C_10  and  C_11
REMARK    5  A    between atoms: C_11  and  O_12
REMARK    6  A    between atoms: O_12  and  C_14
REMARK    7  A    between atoms: O_16  and  C_18
REMARK    8  A    between atoms: C_18  and  C_19
REMARK    9  A    between atoms: C_19  and  C_21
REMARK                            x       y       z     vdW  Elec       q    Type
REMARK                         _______ _______ _______ _____ _____    ______ ____
ROOT
ATOM      1  C   UNL     1      -4.686  15.819   2.306  0.00  0.00    +0.000 A 
ATOM      2  C   UNL     1      -5.371  15.340   1.185  0.00  0.00    +0.000 A 
ATOM      3  C   UNL     1      -6.048  17.618   0.696  0.00  0.00    +0.000 A 
ATOM      4  C   UNL     1      -4.701  17.173   2.646  0.00  0.00    +0.000 A 
ATOM      5  C   UNL     1      -6.049  16.259   0.380  0.00  0.00    +0.000 A 
ATOM      6  C   UNL     1      -5.378  18.075   1.830  0.00  0.00    +0.000 A 
ENDROOT
BRANCH   2   7
ATOM      7  O   UNL     1      -5.345  13.986   0.963  0.00  0.00    +0.000 OA
ATOM      8  C   UNL     1      -4.602  13.568  -0.149  0.00  0.00    +0.000 C 
ENDBRANCH   2   7
BRANCH   3   9
ATOM      9  C   UNL     1      -6.741  18.542  -0.140  0.00  0.00    +0.000 C 
ATOM     10  C   UNL     1      -7.324  19.321  -0.844  0.00  0.00    +0.000 C 
BRANCH  10  11
ATOM     11  C   UNL     1      -8.064  20.317  -1.741  0.00  0.00    +0.000 C 
BRANCH  11  12
ATOM     12  O   UNL     1      -8.706  21.185  -2.521  0.00  0.00    +0.000 OA
BRANCH  12  14
ATOM     13  O   UNL     1     -10.171  21.792  -0.803  0.00  0.00    +0.000 OA
ATOM     14  C   UNL     1      -9.767  21.789  -1.951  0.00  0.00    +0.000 C 
ATOM     15  C   UNL     1     -10.595  22.597  -2.892  0.00  0.00    +0.000 C 
ENDBRANCH  12  14
ENDBRANCH  11  12
ENDBRANCH  10  11
ENDBRANCH   3   9
BRANCH   1  16
ATOM     16  O   UNL     1      -4.038  14.920   3.165  0.00  0.00    +0.000 OA
BRANCH  16  18
ATOM     17  O   UNL     1      -2.042  14.550   2.031  0.00  0.00    +0.000 OA
ATOM     18  C   UNL     1      -2.656  14.920   3.023  0.00  0.00    +0.000 C 
BRANCH  18  19
ATOM     19  C   UNL     1      -2.004  15.420   4.259  0.00  0.00    +0.000 C 
ATOM     20  C   UNL     1      -2.777  15.883   5.487  0.00  0.00    +0.000 C 
BRANCH  19  21
ATOM     21  C   UNL     1      -0.586  15.471   4.318  0.00  0.00    +0.000 C 
ATOM     22  C   UNL     1       0.951  15.534   4.385  0.00  0.00    +0.000 C 
ENDBRANCH  19  21
ENDBRANCH  18  19
ENDBRANCH  16  18
ENDBRANCH   1  16
TORSDOF 9
ENDMDL
MODEL 7
REMARK VINA RESULT:      -3.9     11.012     12.242
REMARK  Name = 122180587_TripolinolateA.pdbqt.pdb
REMARK  9 active torsions:
REMARK  status: ('A' for Active; 'I' for Inactive)
REMARK    1  A    between atoms: C_1  and  O_16
REMARK    2  A    between atoms: C_2  and  O_7
REMARK    3  A    between atoms: C_3  and  C_9
REMARK    4  A    between atoms: C_10  and  C_11
REMARK    5  A    between atoms: C_11  and  O_12
REMARK    6  A    between atoms: O_12  and  C_14
REMARK    7  A    between atoms: O_16  and  C_18
REMARK    8  A    between atoms: C_18  and  C_19
REMARK    9  A    between atoms: C_19  and  C_21
REMARK                            x       y       z     vdW  Elec       q    Type
REMARK                         _______ _______ _______ _____ _____    ______ ____
ROOT
ATOM      1  C   UNL     1      -8.753  16.963  18.717  0.00  0.00    +0.000 A 
ATOM      2  C   UNL     1      -9.166  16.571  19.995  0.00  0.00    +0.000 A 
ATOM      3  C   UNL     1     -11.102  18.011  19.748  0.00  0.00    +0.000 A 
ATOM      4  C   UNL     1      -9.480  17.891  17.968  0.00  0.00    +0.000 A 
ATOM      5  C   UNL     1     -10.355  17.104  20.499  0.00  0.00    +0.000 A 
ATOM      6  C   UNL     1     -10.665  18.407  18.486  0.00  0.00    +0.000 A 
ENDROOT
BRANCH   2   7
ATOM      7  O   UNL     1      -8.357  15.698  20.677  0.00  0.00    +0.000 OA
ATOM      8  C   UNL     1      -8.806  15.322  21.949  0.00  0.00    +0.000 C 
ENDBRANCH   2   7
BRANCH   3   9
ATOM      9  C   UNL     1     -12.316  18.540  20.278  0.00  0.00    +0.000 C 
ATOM     10  C   UNL     1     -13.338  18.986  20.725  0.00  0.00    +0.000 C 
BRANCH  10  11
ATOM     11  C   UNL     1     -14.639  19.555  21.300  0.00  0.00    +0.000 C 
BRANCH  11  12
ATOM     12  O   UNL     1     -15.771  20.048  21.797  0.00  0.00    +0.000 OA
BRANCH  12  14
ATOM     13  O   UNL     1     -16.533  18.749  23.585  0.00  0.00    +0.000 OA
ATOM     14  C   UNL     1     -16.551  19.156  22.438  0.00  0.00    +0.000 C 
ATOM     15  C   UNL     1     -17.627  18.560  21.595  0.00  0.00    +0.000 C 
ENDBRANCH  12  14
ENDBRANCH  11  12
ENDBRANCH  10  11
ENDBRANCH   3   9
BRANCH   1  16
ATOM     16  O   UNL     1      -7.539  16.490  18.200  0.00  0.00    +0.000 OA
BRANCH  16  18
ATOM     17  O   UNL     1      -8.404  14.620  17.121  0.00  0.00    +0.000 OA
ATOM     18  C   UNL     1      -7.698  15.621  17.128  0.00  0.00    +0.000 C 
BRANCH  18  19
ATOM     19  C   UNL     1      -6.874  16.057  15.974  0.00  0.00    +0.000 C 
ATOM     20  C   UNL     1      -6.685  17.517  15.582  0.00  0.00    +0.000 C 
BRANCH  19  21
ATOM     21  C   UNL     1      -6.215  15.076  15.186  0.00  0.00    +0.000 C 
ATOM     22  C   UNL     1      -5.504  14.006  14.337  0.00  0.00    +0.000 C 
ENDBRANCH  19  21
ENDBRANCH  18  19
ENDBRANCH  16  18
ENDBRANCH   1  16
TORSDOF 9
ENDMDL
MODEL 8
REMARK VINA RESULT:      -3.9      5.381     10.415
REMARK  Name = 122180587_TripolinolateA.pdbqt.pdb
REMARK  9 active torsions:
REMARK  status: ('A' for Active; 'I' for Inactive)
REMARK    1  A    between atoms: C_1  and  O_16
REMARK    2  A    between atoms: C_2  and  O_7
REMARK    3  A    between atoms: C_3  and  C_9
REMARK    4  A    between atoms: C_10  and  C_11
REMARK    5  A    between atoms: C_11  and  O_12
REMARK    6  A    between atoms: O_12  and  C_14
REMARK    7  A    between atoms: O_16  and  C_18
REMARK    8  A    between atoms: C_18  and  C_19
REMARK    9  A    between atoms: C_19  and  C_21
REMARK                            x       y       z     vdW  Elec       q    Type
REMARK                         _______ _______ _______ _____ _____    ______ ____
ROOT
ATOM      1  C   UNL     1      -7.747   8.308  18.071  0.00  0.00    +0.000 A 
ATOM      2  C   UNL     1      -7.553   9.488  18.796  0.00  0.00    +0.000 A 
ATOM      3  C   UNL     1      -6.476  10.444  16.844  0.00  0.00    +0.000 A 
ATOM      4  C   UNL     1      -7.288   8.175  16.758  0.00  0.00    +0.000 A 
ATOM      5  C   UNL     1      -6.915  10.558  18.163  0.00  0.00    +0.000 A 
ATOM      6  C   UNL     1      -6.659   9.254  16.143  0.00  0.00    +0.000 A 
ENDROOT
BRANCH   2   7
ATOM      7  O   UNL     1      -7.988   9.505  20.097  0.00  0.00    +0.000 OA
ATOM      8  C   UNL     1      -6.985   9.475  21.074  0.00  0.00    +0.000 C 
ENDBRANCH   2   7
BRANCH   3   9
ATOM      9  C   UNL     1      -5.832  11.549  16.213  0.00  0.00    +0.000 C 
ATOM     10  C   UNL     1      -5.292  12.480  15.681  0.00  0.00    +0.000 C 
BRANCH  10  11
ATOM     11  C   UNL     1      -4.605  13.668  14.999  0.00  0.00    +0.000 C 
BRANCH  11  12
ATOM     12  O   UNL     1      -4.007  14.699  14.407  0.00  0.00    +0.000 OA
BRANCH  12  14
ATOM     13  O   UNL     1      -5.058  16.481  13.318  0.00  0.00    +0.000 OA
ATOM     14  C   UNL     1      -4.738  15.315  13.457  0.00  0.00    +0.000 C 
ATOM     15  C   UNL     1      -5.245  14.410  12.385  0.00  0.00    +0.000 C 
ENDBRANCH  12  14
ENDBRANCH  11  12
ENDBRANCH  10  11
ENDBRANCH   3   9
BRANCH   1  16
ATOM     16  O   UNL     1      -8.336   7.197  18.690  0.00  0.00    +0.000 OA
BRANCH  16  18
ATOM     17  O   UNL     1     -10.177   7.256  17.270  0.00  0.00    +0.000 OA
ATOM     18  C   UNL     1      -9.676   7.030  18.365  0.00  0.00    +0.000 C 
BRANCH  18  19
ATOM     19  C   UNL     1     -10.444   6.550  19.540  0.00  0.00    +0.000 C 
ATOM     20  C   UNL     1     -11.037   5.151  19.640  0.00  0.00    +0.000 C 
BRANCH  19  21
ATOM     21  C   UNL     1     -10.639   7.425  20.641  0.00  0.00    +0.000 C 
ATOM     22  C   UNL     1     -10.856   8.370  21.838  0.00  0.00    +0.000 C 
ENDBRANCH  19  21
ENDBRANCH  18  19
ENDBRANCH  16  18
ENDBRANCH   1  16
TORSDOF 9
ENDMDL
MODEL 9
REMARK VINA RESULT:      -3.9      6.440      9.313
REMARK  Name = 122180587_TripolinolateA.pdbqt.pdb
REMARK  9 active torsions:
REMARK  status: ('A' for Active; 'I' for Inactive)
REMARK    1  A    between atoms: C_1  and  O_16
REMARK    2  A    between atoms: C_2  and  O_7
REMARK    3  A    between atoms: C_3  and  C_9
REMARK    4  A    between atoms: C_10  and  C_11
REMARK    5  A    between atoms: C_11  and  O_12
REMARK    6  A    between atoms: O_12  and  C_14
REMARK    7  A    between atoms: O_16  and  C_18
REMARK    8  A    between atoms: C_18  and  C_19
REMARK    9  A    between atoms: C_19  and  C_21
REMARK                            x       y       z     vdW  Elec       q    Type
REMARK                         _______ _______ _______ _____ _____    ______ ____
ROOT
ATOM      1  C   UNL     1      -5.325  12.798  16.603  0.00  0.00    +0.000 A 
ATOM      2  C   UNL     1      -6.173  12.653  17.707  0.00  0.00    +0.000 A 
ATOM      3  C   UNL     1      -6.597  10.369  17.008  0.00  0.00    +0.000 A 
ATOM      4  C   UNL     1      -5.133  11.760  15.690  0.00  0.00    +0.000 A 
ATOM      5  C   UNL     1      -6.802  11.420  17.901  0.00  0.00    +0.000 A 
ATOM      6  C   UNL     1      -5.766  10.539  15.901  0.00  0.00    +0.000 A 
ENDROOT
BRANCH   2   7
ATOM      7  O   UNL     1      -6.342  13.746  18.518  0.00  0.00    +0.000 OA
ATOM      8  C   UNL     1      -7.641  14.268  18.569  0.00  0.00    +0.000 C 
ENDBRANCH   2   7
BRANCH   3   9
ATOM      9  C   UNL     1      -7.244   9.117  17.225  0.00  0.00    +0.000 C 
ATOM     10  C   UNL     1      -7.791   8.063  17.408  0.00  0.00    +0.000 C 
BRANCH  10  11
ATOM     11  C   UNL     1      -8.490   6.721  17.646  0.00  0.00    +0.000 C 
BRANCH  11  12
ATOM     12  O   UNL     1      -9.095   5.554  17.854  0.00  0.00    +0.000 OA
BRANCH  12  14
ATOM     13  O   UNL     1     -11.016   4.733  16.804  0.00  0.00    +0.000 OA
ATOM     14  C   UNL     1      -9.862   5.118  16.835  0.00  0.00    +0.000 C 
ATOM     15  C   UNL     1      -9.177   5.105  15.510  0.00  0.00    +0.000 C 
ENDBRANCH  12  14
ENDBRANCH  11  12
ENDBRANCH  10  11
ENDBRANCH   3   9
BRANCH   1  16
ATOM     16  O   UNL     1      -4.718  14.035  16.349  0.00  0.00    +0.000 OA
BRANCH  16  18
ATOM     17  O   UNL     1      -6.351  15.457  15.502  0.00  0.00    +0.000 OA
ATOM     18  C   UNL     1      -5.351  14.766  15.352  0.00  0.00    +0.000 C 
BRANCH  18  19
ATOM     19  C   UNL     1      -4.659  14.587  14.051  0.00  0.00    +0.000 C 
ATOM     20  C   UNL     1      -5.390  14.480  12.720  0.00  0.00    +0.000 C 
BRANCH  19  21
ATOM     21  C   UNL     1      -3.241  14.517  14.029  0.00  0.00    +0.000 C 
ATOM     22  C   UNL     1      -1.704  14.432  14.002  0.00  0.00    +0.000 C 
ENDBRANCH  19  21
ENDBRANCH  18  19
ENDBRANCH  16  18
ENDBRANCH   1  16
TORSDOF 9
ENDMDL
