MODEL 1
REMARK VINA RESULT:      -5.9      0.000      0.000
REMARK  Name = 135403648_CalciumFolinate.pdbqt.pdb
REMARK  10 active torsions:
REMARK  status: ('A' for Active; 'I' for Inactive)
REMARK    1  A    between atoms: N_1  and  C_3
REMARK    2  A    between atoms: N_1  and  C_24
REMARK    3  A    between atoms: C_6  and  C_11
REMARK    4  A    between atoms: CA_13  and  C_15
REMARK    5  A    between atoms: CA_13  and  CB_18
REMARK    6  A    between atoms: C_15  and  O_16
REMARK    7  A    between atoms: CG_19  and  CD_21
REMARK    8  A    between atoms: CD_21  and  OE1_22
REMARK    9  A    between atoms: C_24  and  C_32
REMARK   10  A    between atoms: N_27  and  C_37
REMARK                            x       y       z     vdW  Elec       q    Type
REMARK                         _______ _______ _______ _____ _____    ______ ____
ROOT
ATOM      1  N   UNL     1      -7.012  12.637  19.392  0.00  0.00    +0.000 N 
ATOM      2  H   UNL     1      -7.361  12.596  20.349  0.00  0.00    +0.000 HD
ENDROOT
BRANCH   1   3
ATOM      3  C   UNL     1      -7.091  11.388  18.742  0.00  0.00    +0.000 A 
ATOM      4  C   UNL     1      -7.529  10.272  19.463  0.00  0.00    +0.000 A 
ATOM      5  C   UNL     1      -6.579  11.183  17.456  0.00  0.00    +0.000 A 
ATOM      6  C   UNL     1      -7.053   8.819  17.593  0.00  0.00    +0.000 A 
ATOM      7  C   UNL     1      -7.526   9.000  18.890  0.00  0.00    +0.000 A 
ATOM      8  C   UNL     1      -6.574   9.916  16.877  0.00  0.00    +0.000 A 
BRANCH   6  11
ATOM      9  O   UNL     1      -5.952   6.977  16.672  0.00  0.00    +0.000 OA
ATOM     10  N   UNL     1      -8.268   6.917  16.683  0.00  0.00    +0.000 N 
ATOM     11  C   ACE A   0      -7.035   7.486  16.941  0.00  0.00    +0.000 C 
ATOM     12  H   UNL     1      -9.114   7.420  16.939  0.00  0.00    +0.000 HD
ATOM     13  CA  UNL     1      -8.513   5.693  16.086  0.00  0.00    +0.000 C 
BRANCH  13  15
ATOM     14  OXT UNL     1     -10.732   5.249  16.856  0.00  0.00    +0.000 OA
ATOM     15  C   UNL     1      -9.942   5.328  15.927  0.00  0.00    +0.000 C 
BRANCH  15  16
ATOM     16  O   UNL     1     -10.311   5.087  14.659  0.00  0.00    +0.000 OA
ATOM     17  H   UNL     1     -10.034   4.163  14.488  0.00  0.00    +0.000 HD
ENDBRANCH  15  16
ENDBRANCH  13  15
BRANCH  13  18
ATOM     18  CB  UNL     1      -7.467   4.837  15.652  0.00  0.00    +0.000 C 
ATOM     19  CG  UNL     1      -6.331   3.915  15.195  0.00  0.00    +0.000 C 
BRANCH  19  21
ATOM     20  OE2 UNL     1      -4.084   3.313  14.963  0.00  0.00    +0.000 OA
ATOM     21  CD  UNL     1      -5.262   3.056  14.784  0.00  0.00    +0.000 C 
BRANCH  21  22
ATOM     22  OE1 UNL     1      -5.667   1.937  14.158  0.00  0.00    +0.000 OA
ATOM     23  HE1 UNL     1      -4.842   1.587  13.764  0.00  0.00    +0.000 HD
ENDBRANCH  21  22
ENDBRANCH  19  21
ENDBRANCH  13  18
ENDBRANCH   6  11
ENDBRANCH   1   3
BRANCH   1  24
ATOM     24  C   UNL     1      -7.355  13.839  18.641  0.00  0.00    +0.000 C 
BRANCH  24  31
ATOM     25  O   UNL     1      -9.646  18.521  19.351  0.00  0.00    +0.000 OA
ATOM     26  N   UNL     1      -8.267  16.126  18.452  0.00  0.00    +0.000 N 
ATOM     27  N   UNL     1      -7.778  16.182  15.577  0.00  0.00    +0.000 N 
ATOM     28  N   UNL     1      -8.903  18.249  15.428  0.00  0.00    +0.000 NA
ATOM     29  N   UNL     1      -9.653  19.394  17.293  0.00  0.00    +0.000 N 
ATOM     30  N   UNL     1      -9.900  20.305  15.193  0.00  0.00    +0.000 N 
ATOM     31  C   UNL     1      -7.721  14.981  17.880  0.00  0.00    +0.000 C 
ATOM     32  C   UNL     1      -7.559  15.106  16.491  0.00  0.00    +0.000 C 
ATOM     33  C   UNL     1      -8.644  17.200  17.600  0.00  0.00    +0.000 A 
ATOM     34  C   UNL     1      -8.449  17.228  16.236  0.00  0.00    +0.000 A 
ATOM     35  C   UNL     1      -9.340  18.401  18.169  0.00  0.00    +0.000 A 
ATOM     36  C   UNL     1      -9.467  19.278  15.961  0.00  0.00    +0.000 A 
ATOM     37  H   UNL     1      -8.158  16.043  14.645  0.00  0.00    +0.000 HD
ATOM     38  H   UNL     1     -10.162  20.176  17.674  0.00  0.00    +0.000 HD
ATOM     39  H   UNL     1      -9.544  20.250  14.243  0.00  0.00    +0.000 HD
ATOM     40  H   UNL     1      -9.819  21.235  15.584  0.00  0.00    +0.000 HD
BRANCH  26  42
ATOM     41  O   UNL     1      -8.668  16.134  20.945  0.00  0.00    +0.000 OA
ATOM     42  C   UNL     1      -8.453  16.156  19.790  0.00  0.00    +0.000 C 
ENDBRANCH  26  42
ENDBRANCH  24  31
ENDBRANCH   1  24
TORSDOF 10
ENDMDL
MODEL 2
REMARK VINA RESULT:      -5.8     16.458     20.267
REMARK  Name = 135403648_CalciumFolinate.pdbqt.pdb
REMARK  10 active torsions:
REMARK  status: ('A' for Active; 'I' for Inactive)
REMARK    1  A    between atoms: N_1  and  C_3
REMARK    2  A    between atoms: N_1  and  C_24
REMARK    3  A    between atoms: C_6  and  C_11
REMARK    4  A    between atoms: CA_13  and  C_15
REMARK    5  A    between atoms: CA_13  and  CB_18
REMARK    6  A    between atoms: C_15  and  O_16
REMARK    7  A    between atoms: CG_19  and  CD_21
REMARK    8  A    between atoms: CD_21  and  OE1_22
REMARK    9  A    between atoms: C_24  and  C_32
REMARK   10  A    between atoms: N_27  and  C_37
REMARK                            x       y       z     vdW  Elec       q    Type
REMARK                         _______ _______ _______ _____ _____    ______ ____
ROOT
ATOM      1  N   UNL     1     -27.477   4.662  12.889  0.00  0.00    +0.000 N 
ATOM      2  H   UNL     1     -28.100   3.927  13.222  0.00  0.00    +0.000 HD
ENDROOT
BRANCH   1   3
ATOM      3  C   UNL     1     -26.451   4.950  13.814  0.00  0.00    +0.000 A 
ATOM      4  C   UNL     1     -25.912   6.239  13.853  0.00  0.00    +0.000 A 
ATOM      5  C   UNL     1     -25.827   3.950  14.569  0.00  0.00    +0.000 A 
ATOM      6  C   UNL     1     -24.246   5.546  15.458  0.00  0.00    +0.000 A 
ATOM      7  C   UNL     1     -24.830   6.541  14.679  0.00  0.00    +0.000 A 
ATOM      8  C   UNL     1     -24.746   4.244  15.397  0.00  0.00    +0.000 A 
BRANCH   6  11
ATOM      9  O   UNL     1     -22.648   4.903  17.034  0.00  0.00    +0.000 OA
ATOM     10  N   UNL     1     -22.615   7.116  16.350  0.00  0.00    +0.000 N 
ATOM     11  C   ACE A   0     -23.095   5.820  16.355  0.00  0.00    +0.000 C 
ATOM     12  H   UNL     1     -23.057   7.810  15.753  0.00  0.00    +0.000 HD
ATOM     13  CA  UNL     1     -21.562   7.617  17.094  0.00  0.00    +0.000 C 
BRANCH  13  15
ATOM     14  OXT UNL     1     -20.304   9.469  16.256  0.00  0.00    +0.000 OA
ATOM     15  C   UNL     1     -21.260   9.056  16.896  0.00  0.00    +0.000 C 
BRANCH  15  16
ATOM     16  O   UNL     1     -22.133   9.888  17.484  0.00  0.00    +0.000 OA
ATOM     17  H   UNL     1     -22.893   9.933  16.866  0.00  0.00    +0.000 HD
ENDBRANCH  15  16
ENDBRANCH  13  15
BRANCH  13  18
ATOM     18  CB  UNL     1     -20.814   6.809  17.990  0.00  0.00    +0.000 C 
ATOM     19  CG  UNL     1     -19.998   5.945  18.959  0.00  0.00    +0.000 C 
BRANCH  19  21
ATOM     20  OE2 UNL     1     -19.349   3.947  19.982  0.00  0.00    +0.000 OA
ATOM     21  CD  UNL     1     -19.224   5.153  19.866  0.00  0.00    +0.000 C 
BRANCH  21  22
ATOM     22  OE1 UNL     1     -18.351   5.861  20.605  0.00  0.00    +0.000 OA
ATOM     23  HE1 UNL     1     -18.754   6.752  20.638  0.00  0.00    +0.000 HD
ENDBRANCH  21  22
ENDBRANCH  19  21
ENDBRANCH  13  18
ENDBRANCH   6  11
ENDBRANCH   1   3
BRANCH   1  24
ATOM     24  C   UNL     1     -27.149   4.624  11.469  0.00  0.00    +0.000 C 
BRANCH  24  31
ATOM     25  O   UNL     1     -28.883   6.756   6.983  0.00  0.00    +0.000 OA
ATOM     26  N   UNL     1     -27.490   5.421   9.157  0.00  0.00    +0.000 N 
ATOM     27  N   UNL     1     -25.239   3.843   8.183  0.00  0.00    +0.000 N 
ATOM     28  N   UNL     1     -25.787   4.433   5.967  0.00  0.00    +0.000 NA
ATOM     29  N   UNL     1     -27.459   5.949   5.460  0.00  0.00    +0.000 N 
ATOM     30  N   UNL     1     -26.184   5.021   3.782  0.00  0.00    +0.000 N 
ATOM     31  C   UNL     1     -26.817   4.637  10.088  0.00  0.00    +0.000 C 
ATOM     32  C   UNL     1     -25.775   3.897   9.507  0.00  0.00    +0.000 C 
ATOM     33  C   UNL     1     -27.113   5.330   7.789  0.00  0.00    +0.000 A 
ATOM     34  C   UNL     1     -26.073   4.564   7.309  0.00  0.00    +0.000 A 
ATOM     35  C   UNL     1     -27.892   6.073   6.744  0.00  0.00    +0.000 A 
ATOM     36  C   UNL     1     -26.460   5.114   5.104  0.00  0.00    +0.000 A 
ATOM     37  H   UNL     1     -24.928   2.978   7.751  0.00  0.00    +0.000 HD
ATOM     38  H   UNL     1     -28.015   6.412   4.759  0.00  0.00    +0.000 HD
ATOM     39  H   UNL     1     -25.301   4.549   3.607  0.00  0.00    +0.000 HD
ATOM     40  H   UNL     1     -26.289   5.864   3.233  0.00  0.00    +0.000 HD
BRANCH  26  42
ATOM     41  O   UNL     1     -29.335   6.927   9.999  0.00  0.00    +0.000 OA
ATOM     42  C   UNL     1     -28.502   6.209   9.584  0.00  0.00    +0.000 C 
ENDBRANCH  26  42
ENDBRANCH  24  31
ENDBRANCH   1  24
TORSDOF 10
ENDMDL
MODEL 3
REMARK VINA RESULT:      -5.8      1.986      2.411
REMARK  Name = 135403648_CalciumFolinate.pdbqt.pdb
REMARK  10 active torsions:
REMARK  status: ('A' for Active; 'I' for Inactive)
REMARK    1  A    between atoms: N_1  and  C_3
REMARK    2  A    between atoms: N_1  and  C_24
REMARK    3  A    between atoms: C_6  and  C_11
REMARK    4  A    between atoms: CA_13  and  C_15
REMARK    5  A    between atoms: CA_13  and  CB_18
REMARK    6  A    between atoms: C_15  and  O_16
REMARK    7  A    between atoms: CG_19  and  CD_21
REMARK    8  A    between atoms: CD_21  and  OE1_22
REMARK    9  A    between atoms: C_24  and  C_32
REMARK   10  A    between atoms: N_27  and  C_37
REMARK                            x       y       z     vdW  Elec       q    Type
REMARK                         _______ _______ _______ _____ _____    ______ ____
ROOT
ATOM      1  N   UNL     1      -6.737  12.504  18.959  0.00  0.00    +0.000 N 
ATOM      2  H   UNL     1      -7.032  12.501  19.934  0.00  0.00    +0.000 HD
ENDROOT
BRANCH   1   3
ATOM      3  C   UNL     1      -6.853  11.230  18.364  0.00  0.00    +0.000 A 
ATOM      4  C   UNL     1      -7.393  10.177  19.109  0.00  0.00    +0.000 A 
ATOM      5  C   UNL     1      -6.285  10.934  17.119  0.00  0.00    +0.000 A 
ATOM      6  C   UNL     1      -6.904   8.609  17.339  0.00  0.00    +0.000 A 
ATOM      7  C   UNL     1      -7.434   8.881  18.597  0.00  0.00    +0.000 A 
ATOM      8  C   UNL     1      -6.323   9.641  16.601  0.00  0.00    +0.000 A 
BRANCH   6  11
ATOM      9  O   UNL     1      -5.862   6.697  16.495  0.00  0.00    +0.000 OA
ATOM     10  N   UNL     1      -8.178   6.699  16.533  0.00  0.00    +0.000 N 
ATOM     11  C   ACE A   0      -6.928   7.247  16.751  0.00  0.00    +0.000 C 
ATOM     12  H   UNL     1      -9.008   7.237  16.774  0.00  0.00    +0.000 HD
ATOM     13  CA  UNL     1      -8.463   5.456  15.998  0.00  0.00    +0.000 C 
BRANCH  13  15
ATOM     14  OXT UNL     1     -10.647   4.947  16.825  0.00  0.00    +0.000 OA
ATOM     15  C   UNL     1      -9.903   5.122  15.871  0.00  0.00    +0.000 C 
BRANCH  15  16
ATOM     16  O   UNL     1     -10.336   5.026  14.605  0.00  0.00    +0.000 OA
ATOM     17  H   UNL     1     -10.394   4.064  14.431  0.00  0.00    +0.000 HD
ENDBRANCH  15  16
ENDBRANCH  13  15
BRANCH  13  18
ATOM     18  CB  UNL     1      -7.444   4.552  15.595  0.00  0.00    +0.000 C 
ATOM     19  CG  UNL     1      -6.351   3.568  15.165  0.00  0.00    +0.000 C 
BRANCH  19  21
ATOM     20  OE2 UNL     1      -4.162   2.756  15.054  0.00  0.00    +0.000 OA
ATOM     21  CD  UNL     1      -5.340   2.635  14.770  0.00  0.00    +0.000 C 
BRANCH  21  22
ATOM     22  OE1 UNL     1      -5.800   1.610  14.029  0.00  0.00    +0.000 OA
ATOM     23  HE1 UNL     1      -4.989   1.244  13.621  0.00  0.00    +0.000 HD
ENDBRANCH  21  22
ENDBRANCH  19  21
ENDBRANCH  13  18
ENDBRANCH   6  11
ENDBRANCH   1   3
BRANCH   1  24
ATOM     24  C   UNL     1      -7.119  13.676  18.181  0.00  0.00    +0.000 C 
BRANCH  24  31
ATOM     25  O   UNL     1      -5.458  16.564  14.108  0.00  0.00    +0.000 OA
ATOM     26  N   UNL     1      -6.827  15.288  16.333  0.00  0.00    +0.000 N 
ATOM     27  N   UNL     1      -9.175  16.807  17.164  0.00  0.00    +0.000 N 
ATOM     28  N   UNL     1      -8.682  18.450  15.547  0.00  0.00    +0.000 NA
ATOM     29  N   UNL     1      -6.967  18.211  14.012  0.00  0.00    +0.000 N 
ATOM     30  N   UNL     1      -8.338  20.059  13.944  0.00  0.00    +0.000 N 
ATOM     31  C   UNL     1      -7.499  14.844  17.467  0.00  0.00    +0.000 C 
ATOM     32  C   UNL     1      -8.590  15.665  17.794  0.00  0.00    +0.000 C 
ATOM     33  C   UNL     1      -7.256  16.495  15.715  0.00  0.00    +0.000 A 
ATOM     34  C   UNL     1      -8.343  17.241  16.115  0.00  0.00    +0.000 A 
ATOM     35  C   UNL     1      -6.485  17.062  14.560  0.00  0.00    +0.000 A 
ATOM     36  C   UNL     1      -8.012  18.886  14.536  0.00  0.00    +0.000 A 
ATOM     37  H   UNL     1      -9.536  17.599  17.687  0.00  0.00    +0.000 HD
ATOM     38  H   UNL     1      -6.418  18.611  13.268  0.00  0.00    +0.000 HD
ATOM     39  H   UNL     1      -9.246  20.403  14.247  0.00  0.00    +0.000 HD
ATOM     40  H   UNL     1      -8.218  20.115  12.941  0.00  0.00    +0.000 HD
BRANCH  26  42
ATOM     41  O   UNL     1      -4.849  13.922  15.560  0.00  0.00    +0.000 OA
ATOM     42  C   UNL     1      -5.770  14.576  15.886  0.00  0.00    +0.000 C 
ENDBRANCH  26  42
ENDBRANCH  24  31
ENDBRANCH   1  24
TORSDOF 10
ENDMDL
MODEL 4
REMARK VINA RESULT:      -5.6     21.209     23.994
REMARK  Name = 135403648_CalciumFolinate.pdbqt.pdb
REMARK  10 active torsions:
REMARK  status: ('A' for Active; 'I' for Inactive)
REMARK    1  A    between atoms: N_1  and  C_3
REMARK    2  A    between atoms: N_1  and  C_24
REMARK    3  A    between atoms: C_6  and  C_11
REMARK    4  A    between atoms: CA_13  and  C_15
REMARK    5  A    between atoms: CA_13  and  CB_18
REMARK    6  A    between atoms: C_15  and  O_16
REMARK    7  A    between atoms: CG_19  and  CD_21
REMARK    8  A    between atoms: CD_21  and  OE1_22
REMARK    9  A    between atoms: C_24  and  C_32
REMARK   10  A    between atoms: N_27  and  C_37
REMARK                            x       y       z     vdW  Elec       q    Type
REMARK                         _______ _______ _______ _____ _____    ______ ____
ROOT
ATOM      1  N   UNL     1     -15.764   8.516  -0.349  0.00  0.00    +0.000 N 
ATOM      2  H   UNL     1     -15.043   7.848  -0.076  0.00  0.00    +0.000 HD
ENDROOT
BRANCH   1   3
ATOM      3  C   UNL     1     -15.223   9.655  -0.982  0.00  0.00    +0.000 A 
ATOM      4  C   UNL     1     -14.997  10.810  -0.228  0.00  0.00    +0.000 A 
ATOM      5  C   UNL     1     -15.071   9.733  -2.371  0.00  0.00    +0.000 A 
ATOM      6  C   UNL     1     -14.371  12.039  -2.210  0.00  0.00    +0.000 A 
ATOM      7  C   UNL     1     -14.560  11.989  -0.832  0.00  0.00    +0.000 A 
ATOM      8  C   UNL     1     -14.633  10.906  -2.982  0.00  0.00    +0.000 A 
BRANCH   6  11
ATOM      9  O   UNL     1     -12.851  13.783  -2.531  0.00  0.00    +0.000 OA
ATOM     10  N   UNL     1     -14.711  13.745  -3.913  0.00  0.00    +0.000 N 
ATOM     11  C   ACE A   0     -13.903  13.269  -2.897  0.00  0.00    +0.000 C 
ATOM     12  H   UNL     1     -15.569  13.250  -4.141  0.00  0.00    +0.000 HD
ATOM     13  CA  UNL     1     -14.494  14.866  -4.695  0.00  0.00    +0.000 C 
BRANCH  13  15
ATOM     14  OXT UNL     1     -15.401  14.900  -6.906  0.00  0.00    +0.000 OA
ATOM     15  C   UNL     1     -15.532  15.149  -5.716  0.00  0.00    +0.000 C 
BRANCH  15  16
ATOM     16  O   UNL     1     -16.648  15.709  -5.227  0.00  0.00    +0.000 OA
ATOM     17  H   UNL     1     -16.846  15.204  -4.410  0.00  0.00    +0.000 HD
ENDBRANCH  15  16
ENDBRANCH  13  15
BRANCH  13  18
ATOM     18  CB  UNL     1     -13.353  15.694  -4.534  0.00  0.00    +0.000 C 
ATOM     19  CG  UNL     1     -12.125  16.596  -4.367  0.00  0.00    +0.000 C 
BRANCH  19  21
ATOM     20  OE2 UNL     1      -9.853  17.124  -4.526  0.00  0.00    +0.000 OA
ATOM     21  CD  UNL     1     -10.987  17.452  -4.222  0.00  0.00    +0.000 C 
BRANCH  21  22
ATOM     22  OE1 UNL     1     -11.270  18.657  -3.696  0.00  0.00    +0.000 OA
ATOM     23  HE1 UNL     1     -12.235  18.743  -3.835  0.00  0.00    +0.000 HD
ENDBRANCH  21  22
ENDBRANCH  19  21
ENDBRANCH  13  18
ENDBRANCH   6  11
ENDBRANCH   1   3
BRANCH   1  24
ATOM     24  C   UNL     1     -16.996   7.942  -0.876  0.00  0.00    +0.000 C 
BRANCH  24  31
ATOM     25  O   UNL     1     -21.443   9.703  -3.068  0.00  0.00    +0.000 OA
ATOM     26  N   UNL     1     -19.170   8.231  -2.011  0.00  0.00    +0.000 N 
ATOM     27  N   UNL     1     -19.660   5.356  -2.005  0.00  0.00    +0.000 N 
ATOM     28  N   UNL     1     -21.832   5.726  -2.843  0.00  0.00    +0.000 NA
ATOM     29  N   UNL     1     -22.583   7.823  -3.469  0.00  0.00    +0.000 N 
ATOM     30  N   UNL     1     -23.931   5.976  -3.742  0.00  0.00    +0.000 N 
ATOM     31  C   UNL     1     -18.204   7.426  -1.416  0.00  0.00    +0.000 C 
ATOM     32  C   UNL     1     -18.556   6.067  -1.440  0.00  0.00    +0.000 C 
ATOM     33  C   UNL     1     -20.367   7.626  -2.481  0.00  0.00    +0.000 A 
ATOM     34  C   UNL     1     -20.627   6.273  -2.456  0.00  0.00    +0.000 A 
ATOM     35  C   UNL     1     -21.477   8.477  -3.023  0.00  0.00    +0.000 A 
ATOM     36  C   UNL     1     -22.748   6.490  -3.333  0.00  0.00    +0.000 A 
ATOM     37  H   UNL     1     -20.101   4.568  -1.540  0.00  0.00    +0.000 HD
ATOM     38  H   UNL     1     -23.343   8.404  -3.787  0.00  0.00    +0.000 HD
ATOM     39  H   UNL     1     -23.907   4.962  -3.807  0.00  0.00    +0.000 HD
ATOM     40  H   UNL     1     -24.362   6.406  -4.550  0.00  0.00    +0.000 HD
BRANCH  26  42
ATOM     41  O   UNL     1     -18.687  10.707  -2.135  0.00  0.00    +0.000 OA
ATOM     42  C   UNL     1     -18.949   9.562  -2.083  0.00  0.00    +0.000 C 
ENDBRANCH  26  42
ENDBRANCH  24  31
ENDBRANCH   1  24
TORSDOF 10
ENDMDL
MODEL 5
REMARK VINA RESULT:      -5.6      7.677     15.624
REMARK  Name = 135403648_CalciumFolinate.pdbqt.pdb
REMARK  10 active torsions:
REMARK  status: ('A' for Active; 'I' for Inactive)
REMARK    1  A    between atoms: N_1  and  C_3
REMARK    2  A    between atoms: N_1  and  C_24
REMARK    3  A    between atoms: C_6  and  C_11
REMARK    4  A    between atoms: CA_13  and  C_15
REMARK    5  A    between atoms: CA_13  and  CB_18
REMARK    6  A    between atoms: C_15  and  O_16
REMARK    7  A    between atoms: CG_19  and  CD_21
REMARK    8  A    between atoms: CD_21  and  OE1_22
REMARK    9  A    between atoms: C_24  and  C_32
REMARK   10  A    between atoms: N_27  and  C_37
REMARK                            x       y       z     vdW  Elec       q    Type
REMARK                         _______ _______ _______ _____ _____    ______ ____
ROOT
ATOM      1  N   UNL     1      -5.278   0.072  14.874  0.00  0.00    +0.000 N 
ATOM      2  H   UNL     1      -4.425   0.463  14.475  0.00  0.00    +0.000 HD
ENDROOT
BRANCH   1   3
ATOM      3  C   UNL     1      -6.017   1.032  15.597  0.00  0.00    +0.000 A 
ATOM      4  C   UNL     1      -6.760   0.624  16.709  0.00  0.00    +0.000 A 
ATOM      5  C   UNL     1      -6.179   2.346  15.142  0.00  0.00    +0.000 A 
ATOM      6  C   UNL     1      -7.701   2.834  16.952  0.00  0.00    +0.000 A 
ATOM      7  C   UNL     1      -7.583   1.519  17.392  0.00  0.00    +0.000 A 
ATOM      8  C   UNL     1      -6.998   3.246  15.819  0.00  0.00    +0.000 A 
BRANCH   6  11
ATOM      9  O   UNL     1      -9.283   3.436  18.560  0.00  0.00    +0.000 OA
ATOM     10  N   UNL     1      -8.475   5.128  17.200  0.00  0.00    +0.000 N 
ATOM     11  C   ACE A   0      -8.561   3.824  17.649  0.00  0.00    +0.000 C 
ATOM     12  H   UNL     1      -7.848   5.352  16.432  0.00  0.00    +0.000 HD
ATOM     13  CA  UNL     1      -9.171   6.223  17.681  0.00  0.00    +0.000 C 
BRANCH  13  15
ATOM     14  OXT UNL     1      -8.122   8.358  17.450  0.00  0.00    +0.000 OA
ATOM     15  C   UNL     1      -8.887   7.514  17.008  0.00  0.00    +0.000 C 
BRANCH  15  16
ATOM     16  O   UNL     1      -9.546   7.689  15.852  0.00  0.00    +0.000 OA
ATOM     17  H   UNL     1     -10.439   7.997  16.116  0.00  0.00    +0.000 HD
ENDBRANCH  15  16
ENDBRANCH  13  15
BRANCH  13  18
ATOM     18  CB  UNL     1     -10.099   6.122  18.751  0.00  0.00    +0.000 C 
ATOM     19  CG  UNL     1     -11.093   6.020  19.913  0.00  0.00    +0.000 C 
BRANCH  19  21
ATOM     20  OE2 UNL     1     -13.029   5.269  20.985  0.00  0.00    +0.000 OA
ATOM     21  CD  UNL     1     -12.012   5.939  21.008  0.00  0.00    +0.000 C 
BRANCH  21  22
ATOM     22  OE1 UNL     1     -11.668   6.689  22.070  0.00  0.00    +0.000 OA
ATOM     23  HE1 UNL     1     -11.730   6.062  22.819  0.00  0.00    +0.000 HD
ENDBRANCH  21  22
ENDBRANCH  19  21
ENDBRANCH  13  18
ENDBRANCH   6  11
ENDBRANCH   1   3
BRANCH   1  24
ATOM     24  C   UNL     1      -5.999  -0.874  14.031  0.00  0.00    +0.000 C 
BRANCH  24  31
ATOM     25  O   UNL     1      -7.779  -5.810  14.413  0.00  0.00    +0.000 OA
ATOM     26  N   UNL     1      -7.097  -3.066  13.738  0.00  0.00    +0.000 N 
ATOM     27  N   UNL     1      -7.951  -2.381  11.035  0.00  0.00    +0.000 N 
ATOM     28  N   UNL     1      -8.741  -4.581  10.728  0.00  0.00    +0.000 NA
ATOM     29  N   UNL     1      -8.762  -6.144  12.433  0.00  0.00    +0.000 N 
ATOM     30  N   UNL     1      -9.622  -6.671  10.363  0.00  0.00    +0.000 N 
ATOM     31  C   UNL     1      -6.720  -1.819  13.253  0.00  0.00    +0.000 C 
ATOM     32  C   UNL     1      -7.155  -1.607  11.935  0.00  0.00    +0.000 C 
ATOM     33  C   UNL     1      -7.776  -3.961  12.866  0.00  0.00    +0.000 A 
ATOM     34  C   UNL     1      -8.158  -3.663  11.576  0.00  0.00    +0.000 A 
ATOM     35  C   UNL     1      -8.096  -5.355  13.319  0.00  0.00    +0.000 A 
ATOM     36  C   UNL     1      -9.028  -5.758  11.167  0.00  0.00    +0.000 A 
ATOM     37  H   UNL     1      -7.757  -2.438  10.039  0.00  0.00    +0.000 HD
ATOM     38  H   UNL     1      -8.931  -7.093  12.727  0.00  0.00    +0.000 HD
ATOM     39  H   UNL     1      -9.978  -6.254   9.508  0.00  0.00    +0.000 HD
ATOM     40  H   UNL     1     -10.287  -7.298  10.796  0.00  0.00    +0.000 HD
BRANCH  26  42
ATOM     41  O   UNL     1      -6.412  -3.679  16.090  0.00  0.00    +0.000 OA
ATOM     42  C   UNL     1      -6.768  -3.395  15.006  0.00  0.00    +0.000 C 
ENDBRANCH  26  42
ENDBRANCH  24  31
ENDBRANCH   1  24
TORSDOF 10
ENDMDL
MODEL 6
REMARK VINA RESULT:      -5.5     14.243     19.677
REMARK  Name = 135403648_CalciumFolinate.pdbqt.pdb
REMARK  10 active torsions:
REMARK  status: ('A' for Active; 'I' for Inactive)
REMARK    1  A    between atoms: N_1  and  C_3
REMARK    2  A    between atoms: N_1  and  C_24
REMARK    3  A    between atoms: C_6  and  C_11
REMARK    4  A    between atoms: CA_13  and  C_15
REMARK    5  A    between atoms: CA_13  and  CB_18
REMARK    6  A    between atoms: C_15  and  O_16
REMARK    7  A    between atoms: CG_19  and  CD_21
REMARK    8  A    between atoms: CD_21  and  OE1_22
REMARK    9  A    between atoms: C_24  and  C_32
REMARK   10  A    between atoms: N_27  and  C_37
REMARK                            x       y       z     vdW  Elec       q    Type
REMARK                         _______ _______ _______ _____ _____    ______ ____
ROOT
ATOM      1  N   UNL     1     -15.783  18.741  31.284  0.00  0.00    +0.000 N 
ATOM      2  H   UNL     1     -15.147  19.537  31.255  0.00  0.00    +0.000 HD
ENDROOT
BRANCH   1   3
ATOM      3  C   UNL     1     -17.021  19.025  30.670  0.00  0.00    +0.000 A 
ATOM      4  C   UNL     1     -17.260  18.561  29.373  0.00  0.00    +0.000 A 
ATOM      5  C   UNL     1     -17.950  19.906  31.237  0.00  0.00    +0.000 A 
ATOM      6  C   UNL     1     -19.362  19.746  29.284  0.00  0.00    +0.000 A 
ATOM      7  C   UNL     1     -18.427  18.903  28.690  0.00  0.00    +0.000 A 
ATOM      8  C   UNL     1     -19.118  20.252  30.561  0.00  0.00    +0.000 A 
BRANCH   6  11
ATOM      9  O   UNL     1     -20.603  21.099  27.841  0.00  0.00    +0.000 OA
ATOM     10  N   UNL     1     -21.731  19.362  28.879  0.00  0.00    +0.000 N 
ATOM     11  C   ACE A   0     -20.620  20.135  28.599  0.00  0.00    +0.000 C 
ATOM     12  H   UNL     1     -21.646  18.582  29.527  0.00  0.00    +0.000 HD
ATOM     13  CA  UNL     1     -23.008  19.522  28.372  0.00  0.00    +0.000 C 
BRANCH  13  15
ATOM     14  OXT UNL     1     -24.409  18.480  30.005  0.00  0.00    +0.000 OA
ATOM     15  C   UNL     1     -24.018  18.546  28.848  0.00  0.00    +0.000 C 
BRANCH  15  16
ATOM     16  O   UNL     1     -24.482  17.723  27.895  0.00  0.00    +0.000 OA
ATOM     17  H   UNL     1     -23.686  17.279  27.537  0.00  0.00    +0.000 HD
ENDBRANCH  15  16
ENDBRANCH  13  15
BRANCH  13  18
ATOM     18  CB  UNL     1     -23.335  20.553  27.453  0.00  0.00    +0.000 C 
ATOM     19  CG  UNL     1     -23.683  21.674  26.467  0.00  0.00    +0.000 C 
BRANCH  19  21
ATOM     20  OE2 UNL     1     -25.100  22.893  25.063  0.00  0.00    +0.000 OA
ATOM     21  CD  UNL     1     -23.997  22.734  25.557  0.00  0.00    +0.000 C 
BRANCH  21  22
ATOM     22  OE1 UNL     1     -22.958  23.538  25.271  0.00  0.00    +0.000 OA
ATOM     23  HE1 UNL     1     -22.906  24.127  26.051  0.00  0.00    +0.000 HD
ENDBRANCH  21  22
ENDBRANCH  19  21
ENDBRANCH  13  18
ENDBRANCH   6  11
ENDBRANCH   1   3
BRANCH   1  24
ATOM     24  C   UNL     1     -15.177  17.433  31.064  0.00  0.00    +0.000 C 
BRANCH  24  31
ATOM     25  O   UNL     1     -13.499  14.297  27.188  0.00  0.00    +0.000 OA
ATOM     26  N   UNL     1     -14.190  15.656  29.662  0.00  0.00    +0.000 N 
ATOM     27  N   UNL     1     -13.687  13.972  31.990  0.00  0.00    +0.000 N 
ATOM     28  N   UNL     1     -13.007  12.217  30.571  0.00  0.00    +0.000 NA
ATOM     29  N   UNL     1     -12.800  12.476  28.282  0.00  0.00    +0.000 N 
ATOM     30  N   UNL     1     -12.241  10.478  29.279  0.00  0.00    +0.000 N 
ATOM     31  C   UNL     1     -14.594  16.149  30.899  0.00  0.00    +0.000 C 
ATOM     32  C   UNL     1     -14.334  15.246  31.942  0.00  0.00    +0.000 C 
ATOM     33  C   UNL     1     -13.658  14.339  29.594  0.00  0.00    +0.000 A 
ATOM     34  C   UNL     1     -13.445  13.519  30.681  0.00  0.00    +0.000 A 
ATOM     35  C   UNL     1     -13.320  13.734  28.263  0.00  0.00    +0.000 A 
ATOM     36  C   UNL     1     -12.696  11.746  29.412  0.00  0.00    +0.000 A 
ATOM     37  H   UNL     1     -14.015  13.212  32.579  0.00  0.00    +0.000 HD
ATOM     38  H   UNL     1     -12.620  12.059  27.383  0.00  0.00    +0.000 HD
ATOM     39  H   UNL     1     -11.991  10.065  30.174  0.00  0.00    +0.000 HD
ATOM     40  H   UNL     1     -11.541  10.316  28.568  0.00  0.00    +0.000 HD
BRANCH  26  42
ATOM     41  O   UNL     1     -14.490  17.167  27.661  0.00  0.00    +0.000 OA
ATOM     42  C   UNL     1     -14.355  16.434  28.570  0.00  0.00    +0.000 C 
ENDBRANCH  26  42
ENDBRANCH  24  31
ENDBRANCH   1  24
TORSDOF 10
ENDMDL
MODEL 7
REMARK VINA RESULT:      -5.4      7.179     11.706
REMARK  Name = 135403648_CalciumFolinate.pdbqt.pdb
REMARK  10 active torsions:
REMARK  status: ('A' for Active; 'I' for Inactive)
REMARK    1  A    between atoms: N_1  and  C_3
REMARK    2  A    between atoms: N_1  and  C_24
REMARK    3  A    between atoms: C_6  and  C_11
REMARK    4  A    between atoms: CA_13  and  C_15
REMARK    5  A    between atoms: CA_13  and  CB_18
REMARK    6  A    between atoms: C_15  and  O_16
REMARK    7  A    between atoms: CG_19  and  CD_21
REMARK    8  A    between atoms: CD_21  and  OE1_22
REMARK    9  A    between atoms: C_24  and  C_32
REMARK   10  A    between atoms: N_27  and  C_37
REMARK                            x       y       z     vdW  Elec       q    Type
REMARK                         _______ _______ _______ _____ _____    ______ ____
ROOT
ATOM      1  N   UNL     1      -6.985  16.810  17.907  0.00  0.00    +0.000 N 
ATOM      2  H   UNL     1      -6.195  17.008  18.521  0.00  0.00    +0.000 HD
ENDROOT
BRANCH   1   3
ATOM      3  C   UNL     1      -8.205  17.274  18.443  0.00  0.00    +0.000 A 
ATOM      4  C   UNL     1      -8.195  17.975  19.653  0.00  0.00    +0.000 A 
ATOM      5  C   UNL     1      -9.443  16.905  17.905  0.00  0.00    +0.000 A 
ATOM      6  C   UNL     1     -10.609  18.026  19.699  0.00  0.00    +0.000 A 
ATOM      7  C   UNL     1      -9.384  18.363  20.269  0.00  0.00    +0.000 A 
ATOM      8  C   UNL     1     -10.636  17.290  18.514  0.00  0.00    +0.000 A 
BRANCH   6  11
ATOM      9  O   UNL     1     -12.719  19.022  19.630  0.00  0.00    +0.000 OA
ATOM     10  N   UNL     1     -12.073  18.072  21.642  0.00  0.00    +0.000 N 
ATOM     11  C   ACE A   0     -11.900  18.421  20.316  0.00  0.00    +0.000 C 
ATOM     12  H   UNL     1     -11.331  17.576  22.129  0.00  0.00    +0.000 HD
ATOM     13  CA  UNL     1     -13.179  18.327  22.434  0.00  0.00    +0.000 C 
BRANCH  13  15
ATOM     14  OXT UNL     1     -12.075  17.401  24.341  0.00  0.00    +0.000 OA
ATOM     15  C   UNL     1     -13.096  17.841  23.833  0.00  0.00    +0.000 C 
BRANCH  15  16
ATOM     16  O   UNL     1     -14.250  17.922  24.513  0.00  0.00    +0.000 OA
ATOM     17  H   UNL     1     -14.397  17.020  24.868  0.00  0.00    +0.000 HD
ENDBRANCH  15  16
ENDBRANCH  13  15
BRANCH  13  18
ATOM     18  CB  UNL     1     -14.323  19.010  21.942  0.00  0.00    +0.000 C 
ATOM     19  CG  UNL     1     -15.560  19.738  21.403  0.00  0.00    +0.000 C 
BRANCH  19  21
ATOM     20  OE2 UNL     1     -17.845  19.942  20.956  0.00  0.00    +0.000 OA
ATOM     21  CD  UNL     1     -16.719  20.402  20.890  0.00  0.00    +0.000 C 
BRANCH  21  22
ATOM     22  OE1 UNL     1     -16.457  21.583  20.300  0.00  0.00    +0.000 OA
ATOM     23  HE1 UNL     1     -15.491  21.684  20.416  0.00  0.00    +0.000 HD
ENDBRANCH  21  22
ENDBRANCH  19  21
ENDBRANCH  13  18
ENDBRANCH   6  11
ENDBRANCH   1   3
BRANCH   1  24
ATOM     24  C   UNL     1      -6.740  16.976  16.480  0.00  0.00    +0.000 C 
BRANCH  24  31
ATOM     25  O   UNL     1      -3.986  14.762  12.583  0.00  0.00    +0.000 OA
ATOM     26  N   UNL     1      -5.763  16.260  14.329  0.00  0.00    +0.000 N 
ATOM     27  N   UNL     1      -7.146  18.385  12.887  0.00  0.00    +0.000 N 
ATOM     28  N   UNL     1      -5.972  17.814  10.923  0.00  0.00    +0.000 NA
ATOM     29  N   UNL     1      -4.574  15.975  10.799  0.00  0.00    +0.000 N 
ATOM     30  N   UNL     1      -4.947  17.278   8.938  0.00  0.00    +0.000 N 
ATOM     31  C   UNL     1      -6.551  17.125  15.080  0.00  0.00    +0.000 C 
ATOM     32  C   UNL     1      -7.142  18.126  14.292  0.00  0.00    +0.000 C 
ATOM     33  C   UNL     1      -5.598  16.519  12.940  0.00  0.00    +0.000 A 
ATOM     34  C   UNL     1      -6.219  17.538  12.251  0.00  0.00    +0.000 A 
ATOM     35  C   UNL     1      -4.665  15.675  12.124  0.00  0.00    +0.000 A 
ATOM     36  C   UNL     1      -5.188  17.044  10.250  0.00  0.00    +0.000 A 
ATOM     37  H   UNL     1      -7.098  19.324  12.501  0.00  0.00    +0.000 HD
ATOM     38  H   UNL     1      -3.911  15.435  10.268  0.00  0.00    +0.000 HD
ATOM     39  H   UNL     1      -5.593  17.957   8.545  0.00  0.00    +0.000 HD
ATOM     40  H   UNL     1      -4.826  16.469   8.344  0.00  0.00    +0.000 HD
BRANCH  26  42
ATOM     41  O   UNL     1      -4.688  14.312  15.524  0.00  0.00    +0.000 OA
ATOM     42  C   UNL     1      -5.154  15.229  14.955  0.00  0.00    +0.000 C 
ENDBRANCH  26  42
ENDBRANCH  24  31
ENDBRANCH   1  24
TORSDOF 10
ENDMDL
MODEL 8
REMARK VINA RESULT:      -5.4     18.173     21.469
REMARK  Name = 135403648_CalciumFolinate.pdbqt.pdb
REMARK  10 active torsions:
REMARK  status: ('A' for Active; 'I' for Inactive)
REMARK    1  A    between atoms: N_1  and  C_3
REMARK    2  A    between atoms: N_1  and  C_24
REMARK    3  A    between atoms: C_6  and  C_11
REMARK    4  A    between atoms: CA_13  and  C_15
REMARK    5  A    between atoms: CA_13  and  CB_18
REMARK    6  A    between atoms: C_15  and  O_16
REMARK    7  A    between atoms: CG_19  and  CD_21
REMARK    8  A    between atoms: CD_21  and  OE1_22
REMARK    9  A    between atoms: C_24  and  C_32
REMARK   10  A    between atoms: N_27  and  C_37
REMARK                            x       y       z     vdW  Elec       q    Type
REMARK                         _______ _______ _______ _____ _____    ______ ____
ROOT
ATOM      1  N   UNL     1     -15.709  -4.404   2.868  0.00  0.00    +0.000 N 
ATOM      2  H   UNL     1     -16.083  -4.682   1.961  0.00  0.00    +0.000 HD
ENDROOT
BRANCH   1   3
ATOM      3  C   UNL     1     -14.541  -3.622   2.746  0.00  0.00    +0.000 A 
ATOM      4  C   UNL     1     -13.677  -3.512   3.840  0.00  0.00    +0.000 A 
ATOM      5  C   UNL     1     -14.302  -2.808   1.632  0.00  0.00    +0.000 A 
ATOM      6  C   UNL     1     -12.317  -1.899   2.665  0.00  0.00    +0.000 A 
ATOM      7  C   UNL     1     -12.566  -2.671   3.797  0.00  0.00    +0.000 A 
ATOM      8  C   UNL     1     -13.193  -1.966   1.582  0.00  0.00    +0.000 A 
BRANCH   6  11
ATOM      9  O   UNL     1     -10.362  -0.945   3.514  0.00  0.00    +0.000 OA
ATOM     10  N   UNL     1     -11.033  -0.261   1.405  0.00  0.00    +0.000 N 
ATOM     11  C   ACE A   0     -11.145  -0.993   2.572  0.00  0.00    +0.000 C 
ATOM     12  H   UNL     1     -11.738  -0.366   0.679  0.00  0.00    +0.000 HD
ATOM     13  CA  UNL     1     -10.039   0.646   1.081  0.00  0.00    +0.000 C 
BRANCH  13  15
ATOM     14  OXT UNL     1     -11.057   2.083  -0.535  0.00  0.00    +0.000 OA
ATOM     15  C   UNL     1     -10.167   1.297  -0.245  0.00  0.00    +0.000 C 
BRANCH  15  16
ATOM     16  O   UNL     1      -9.211   0.952  -1.122  0.00  0.00    +0.000 OA
ATOM     17  H   UNL     1      -9.696   0.697  -1.935  0.00  0.00    +0.000 HD
ENDBRANCH  15  16
ENDBRANCH  13  15
BRANCH  13  18
ATOM     18  CB  UNL     1      -8.963   0.937   1.960  0.00  0.00    +0.000 C 
ATOM     19  CG  UNL     1      -7.807   1.261   2.914  0.00  0.00    +0.000 C 
BRANCH  19  21
ATOM     20  OE2 UNL     1      -5.566   1.597   3.484  0.00  0.00    +0.000 OA
ATOM     21  CD  UNL     1      -6.738   1.577   3.812  0.00  0.00    +0.000 C 
BRANCH  21  22
ATOM     22  OE1 UNL     1      -7.138   1.833   5.071  0.00  0.00    +0.000 OA
ATOM     23  HE1 UNL     1      -7.185   2.810   5.099  0.00  0.00    +0.000 HD
ENDBRANCH  21  22
ENDBRANCH  19  21
ENDBRANCH  13  18
ENDBRANCH   6  11
ENDBRANCH   1   3
BRANCH   1  24
ATOM     24  C   UNL     1     -16.695  -4.034   3.877  0.00  0.00    +0.000 C 
BRANCH  24  31
ATOM     25  O   UNL     1     -17.280  -4.522   9.082  0.00  0.00    +0.000 OA
ATOM     26  N   UNL     1     -17.389  -3.909   6.243  0.00  0.00    +0.000 N 
ATOM     27  N   UNL     1     -19.833  -2.477   5.546  0.00  0.00    +0.000 N 
ATOM     28  N   UNL     1     -20.559  -2.631   7.784  0.00  0.00    +0.000 NA
ATOM     29  N   UNL     1     -19.229  -3.496   9.467  0.00  0.00    +0.000 N 
ATOM     30  N   UNL     1     -21.314  -2.649   9.953  0.00  0.00    +0.000 N 
ATOM     31  C   UNL     1     -17.616  -3.665   4.893  0.00  0.00    +0.000 C 
ATOM     32  C   UNL     1     -18.833  -3.001   4.669  0.00  0.00    +0.000 C 
ATOM     33  C   UNL     1     -18.394  -3.544   7.181  0.00  0.00    +0.000 A 
ATOM     34  C   UNL     1     -19.568  -2.896   6.863  0.00  0.00    +0.000 A 
ATOM     35  C   UNL     1     -18.233  -3.895   8.630  0.00  0.00    +0.000 A 
ATOM     36  C   UNL     1     -20.367  -2.920   9.025  0.00  0.00    +0.000 A 
ATOM     37  H   UNL     1     -20.827  -2.536   5.343  0.00  0.00    +0.000 HD
ATOM     38  H   UNL     1     -19.137  -3.777  10.430  0.00  0.00    +0.000 HD
ATOM     39  H   UNL     1     -22.040  -2.036   9.593  0.00  0.00    +0.000 HD
ATOM     40  H   UNL     1     -20.989  -2.369  10.869  0.00  0.00    +0.000 HD
BRANCH  26  42
ATOM     41  O   UNL     1     -15.238  -5.080   6.858  0.00  0.00    +0.000 OA
ATOM     42  C   UNL     1     -16.240  -4.519   6.607  0.00  0.00    +0.000 C 
ENDBRANCH  26  42
ENDBRANCH  24  31
ENDBRANCH   1  24
TORSDOF 10
ENDMDL
MODEL 9
REMARK VINA RESULT:      -5.3     16.318     20.550
REMARK  Name = 135403648_CalciumFolinate.pdbqt.pdb
REMARK  10 active torsions:
REMARK  status: ('A' for Active; 'I' for Inactive)
REMARK    1  A    between atoms: N_1  and  C_3
REMARK    2  A    between atoms: N_1  and  C_24
REMARK    3  A    between atoms: C_6  and  C_11
REMARK    4  A    between atoms: CA_13  and  C_15
REMARK    5  A    between atoms: CA_13  and  CB_18
REMARK    6  A    between atoms: C_15  and  O_16
REMARK    7  A    between atoms: CG_19  and  CD_21
REMARK    8  A    between atoms: CD_21  and  OE1_22
REMARK    9  A    between atoms: C_24  and  C_32
REMARK   10  A    between atoms: N_27  and  C_37
REMARK                            x       y       z     vdW  Elec       q    Type
REMARK                         _______ _______ _______ _____ _____    ______ ____
ROOT
ATOM      1  N   UNL     1     -27.976   4.948  13.584  0.00  0.00    +0.000 N 
ATOM      2  H   UNL     1     -28.581   4.243  14.004  0.00  0.00    +0.000 HD
ENDROOT
BRANCH   1   3
ATOM      3  C   UNL     1     -26.854   5.235  14.391  0.00  0.00    +0.000 A 
ATOM      4  C   UNL     1     -25.985   6.262  14.009  0.00  0.00    +0.000 A 
ATOM      5  C   UNL     1     -26.477   4.416  15.462  0.00  0.00    +0.000 A 
ATOM      6  C   UNL     1     -24.472   5.716  15.810  0.00  0.00    +0.000 A 
ATOM      7  C   UNL     1     -24.812   6.513  14.720  0.00  0.00    +0.000 A 
ATOM      8  C   UNL     1     -25.308   4.661  16.178  0.00  0.00    +0.000 A 
BRANCH   6  11
ATOM      9  O   UNL     1     -22.804   5.036  17.296  0.00  0.00    +0.000 OA
ATOM     10  N   UNL     1     -22.665   7.201  16.483  0.00  0.00    +0.000 N 
ATOM     11  C   ACE A   0     -23.236   5.948  16.600  0.00  0.00    +0.000 C 
ATOM     12  H   UNL     1     -23.101   7.895  15.882  0.00  0.00    +0.000 HD
ATOM     13  CA  UNL     1     -21.521   7.658  17.115  0.00  0.00    +0.000 C 
BRANCH  13  15
ATOM     14  OXT UNL     1     -20.115   9.364  16.207  0.00  0.00    +0.000 OA
ATOM     15  C   UNL     1     -21.132   9.056  16.811  0.00  0.00    +0.000 C 
BRANCH  15  16
ATOM     16  O   UNL     1     -22.000   9.978  17.256  0.00  0.00    +0.000 OA
ATOM     17  H   UNL     1     -21.442  10.668  17.672  0.00  0.00    +0.000 HD
ENDBRANCH  15  16
ENDBRANCH  13  15
BRANCH  13  18
ATOM     18  CB  UNL     1     -20.765   6.842  17.997  0.00  0.00    +0.000 C 
ATOM     19  CG  UNL     1     -19.941   5.971  18.953  0.00  0.00    +0.000 C 
BRANCH  19  21
ATOM     20  OE2 UNL     1     -19.296   3.969  19.969  0.00  0.00    +0.000 OA
ATOM     21  CD  UNL     1     -19.162   5.173  19.849  0.00  0.00    +0.000 C 
BRANCH  21  22
ATOM     22  OE1 UNL     1     -18.272   5.874  20.575  0.00  0.00    +0.000 OA
ATOM     23  HE1 UNL     1     -17.421   5.432  20.377  0.00  0.00    +0.000 HD
ENDBRANCH  21  22
ENDBRANCH  19  21
ENDBRANCH  13  18
ENDBRANCH   6  11
ENDBRANCH   1   3
BRANCH   1  24
ATOM     24  C   UNL     1     -27.793   4.854  12.141  0.00  0.00    +0.000 C 
BRANCH  24  31
ATOM     25  O   UNL     1     -26.065   1.263   8.707  0.00  0.00    +0.000 OA
ATOM     26  N   UNL     1     -27.172   3.528  10.153  0.00  0.00    +0.000 N 
ATOM     27  N   UNL     1     -27.761   5.759   8.368  0.00  0.00    +0.000 N 
ATOM     28  N   UNL     1     -26.902   4.528   6.549  0.00  0.00    +0.000 NA
ATOM     29  N   UNL     1     -26.233   2.322   6.745  0.00  0.00    +0.000 N 
ATOM     30  N   UNL     1     -26.170   3.378   4.700  0.00  0.00    +0.000 N 
ATOM     31  C   UNL     1     -27.594   4.716  10.742  0.00  0.00    +0.000 C 
ATOM     32  C   UNL     1     -27.817   5.729   9.795  0.00  0.00    +0.000 C 
ATOM     33  C   UNL     1     -26.957   3.503   8.747  0.00  0.00    +0.000 A 
ATOM     34  C   UNL     1     -27.200   4.558   7.895  0.00  0.00    +0.000 A 
ATOM     35  C   UNL     1     -26.394   2.275   8.096  0.00  0.00    +0.000 A 
ATOM     36  C   UNL     1     -26.449   3.443   6.023  0.00  0.00    +0.000 A 
ATOM     37  H   UNL     1     -27.399   6.553   7.849  0.00  0.00    +0.000 HD
ATOM     38  H   UNL     1     -25.810   1.512   6.321  0.00  0.00    +0.000 HD
ATOM     39  H   UNL     1     -26.548   4.172   4.190  0.00  0.00    +0.000 HD
ATOM     40  H   UNL     1     -26.350   2.498   4.237  0.00  0.00    +0.000 HD
BRANCH  26  42
ATOM     41  O   UNL     1     -26.686   1.555  11.652  0.00  0.00    +0.000 OA
ATOM     42  C   UNL     1     -26.946   2.457  10.944  0.00  0.00    +0.000 C 
ENDBRANCH  26  42
ENDBRANCH  24  31
ENDBRANCH   1  24
TORSDOF 10
ENDMDL
