MODEL 1
REMARK VINA RESULT:      -7.0      0.000      0.000
REMARK  Name = 135423438_Nintedanib.pdbqt.pdb
REMARK  9 active torsions:
REMARK  status: ('A' for Active; 'I' for Inactive)
REMARK    1  A    between atoms: N_1  and  C_22
REMARK    2  A    between atoms: C_2  and  C_4
REMARK    3  A    between atoms: C_2  and  C_37
REMARK    4  A    between atoms: C_7  and  O_13
REMARK    5  A    between atoms: C_10  and  C_16
REMARK    6  A    between atoms: C_16  and  O_17
REMARK    7  A    between atoms: C_19  and  N_26
REMARK    8  A    between atoms: C_27  and  C_29
REMARK    9  A    between atoms: C_29  and  N_30
REMARK                            x       y       z     vdW  Elec       q    Type
REMARK                         _______ _______ _______ _____ _____    ______ ____
ROOT
ATOM      1  N   UNL     1     -22.278  13.082   9.132  0.00  0.00    +0.000 NA
ATOM      2  C   UNL     1     -23.177  12.935   8.203  0.00  0.00    +0.000 C 
ENDROOT
BRANCH   2   4
ATOM      3  N   UNL     1     -22.926   9.455   7.087  0.00  0.00    +0.000 N 
ATOM      4  C   UNL     1     -23.248  11.618   7.558  0.00  0.00    +0.000 A 
ATOM      5  C   UNL     1     -23.988  11.274   6.372  0.00  0.00    +0.000 A 
ATOM      6  C   UNL     1     -23.768   9.924   6.109  0.00  0.00    +0.000 A 
ATOM      7  C   UNL     1     -22.599  10.459   7.963  0.00  0.00    +0.000 A 
ATOM      8  C   UNL     1     -24.834  11.992   5.501  0.00  0.00    +0.000 A 
ATOM      9  C   UNL     1     -24.341   9.254   5.023  0.00  0.00    +0.000 A 
ATOM     10  C   UNL     1     -25.173   9.996   4.174  0.00  0.00    +0.000 A 
ATOM     11  C   UNL     1     -25.417  11.345   4.411  0.00  0.00    +0.000 A 
ATOM     12  H   UNL     1     -22.596   8.503   7.138  0.00  0.00    +0.000 HD
BRANCH   7  13
ATOM     13  O   UNL     1     -21.779  10.242   8.987  0.00  0.00    +0.000 OA
ATOM     14  H   UNL     1     -21.956   9.376   9.393  0.00  0.00    +0.000 HD
ENDBRANCH   7  13
BRANCH  10  16
ATOM     15  O   UNL     1     -26.004   9.973   1.951  0.00  0.00    +0.000 OA
ATOM     16  C   UNL     1     -25.823   9.373   3.001  0.00  0.00    +0.000 C 
BRANCH  16  17
ATOM     17  O   UNL     1     -26.149   8.087   3.315  0.00  0.00    +0.000 OA
ATOM     18  C   UNL     1     -26.183   7.140   2.279  0.00  0.00    +0.000 C 
ENDBRANCH  16  17
ENDBRANCH  10  16
ENDBRANCH   2   4
BRANCH   1  22
ATOM     19  C   UNL     1     -21.811  16.854  10.993  0.00  0.00    +0.000 A 
ATOM     20  C   UNL     1     -20.874  16.369  10.078  0.00  0.00    +0.000 A 
ATOM     21  C   UNL     1     -22.915  16.037  11.270  0.00  0.00    +0.000 A 
ATOM     22  C   UNL     1     -22.111  14.312   9.781  0.00  0.00    +0.000 A 
ATOM     23  C   UNL     1     -21.020  15.122   9.470  0.00  0.00    +0.000 A 
ATOM     24  C   UNL     1     -23.073  14.789  10.669  0.00  0.00    +0.000 A 
BRANCH  19  26
ATOM     25  O   UNL     1     -19.815  17.510  12.983  0.00  0.00    +0.000 OA
ATOM     26  N   UNL     1     -21.660  18.142  11.631  0.00  0.00    +0.000 N 
ATOM     27  C   UNL     1     -20.638  18.333  12.594  0.00  0.00    +0.000 C 
ATOM     28  C   UNL     1     -22.622  19.165  11.210  0.00  0.00    +0.000 C 
BRANCH  27  29
ATOM     29  C   UNL     1     -20.553  19.655  13.200  0.00  0.00    +0.000 C 
BRANCH  29  30
ATOM     30  N   UNL     1     -20.451  20.970  13.829  0.00  0.00    +0.000 N 
ATOM     31  N   UNL     1     -23.473  22.826  13.982  0.00  0.00    +0.000 N 
ATOM     32  C   UNL     1     -21.072  21.945  12.890  0.00  0.00    +0.000 C 
ATOM     33  C   UNL     1     -21.532  21.034  14.852  0.00  0.00    +0.000 C 
ATOM     34  C   UNL     1     -22.398  22.757  12.955  0.00  0.00    +0.000 C 
ATOM     35  C   UNL     1     -22.859  21.845  14.917  0.00  0.00    +0.000 C 
ATOM     36  C   UNL     1     -24.648  22.184  13.407  0.00  0.00    +0.000 C 
ENDBRANCH  29  30
ENDBRANCH  27  29
ENDBRANCH  19  26
ENDBRANCH   1  22
BRANCH   2  37
ATOM     37  C   UNL     1     -24.110  13.986   7.758  0.00  0.00    +0.000 A 
ATOM     38  C   UNL     1     -25.413  14.000   8.253  0.00  0.00    +0.000 A 
ATOM     39  C   UNL     1     -23.659  14.966   6.875  0.00  0.00    +0.000 A 
ATOM     40  C   UNL     1     -26.280  15.011   7.848  0.00  0.00    +0.000 A 
ATOM     41  C   UNL     1     -24.534  15.971   6.477  0.00  0.00    +0.000 A 
ATOM     42  C   UNL     1     -25.841  15.994   6.962  0.00  0.00    +0.000 A 
ENDBRANCH   2  37
TORSDOF 9
ENDMDL
MODEL 2
REMARK VINA RESULT:      -6.9      1.140      2.055
REMARK  Name = 135423438_Nintedanib.pdbqt.pdb
REMARK  9 active torsions:
REMARK  status: ('A' for Active; 'I' for Inactive)
REMARK    1  A    between atoms: N_1  and  C_22
REMARK    2  A    between atoms: C_2  and  C_4
REMARK    3  A    between atoms: C_2  and  C_37
REMARK    4  A    between atoms: C_7  and  O_13
REMARK    5  A    between atoms: C_10  and  C_16
REMARK    6  A    between atoms: C_16  and  O_17
REMARK    7  A    between atoms: C_19  and  N_26
REMARK    8  A    between atoms: C_27  and  C_29
REMARK    9  A    between atoms: C_29  and  N_30
REMARK                            x       y       z     vdW  Elec       q    Type
REMARK                         _______ _______ _______ _____ _____    ______ ____
ROOT
ATOM      1  N   UNL     1     -22.333  13.031   9.148  0.00  0.00    +0.000 NA
ATOM      2  C   UNL     1     -23.151  12.903   8.144  0.00  0.00    +0.000 C 
ENDROOT
BRANCH   2   4
ATOM      3  N   UNL     1     -22.954   9.389   7.125  0.00  0.00    +0.000 N 
ATOM      4  C   UNL     1     -23.246  11.567   7.539  0.00  0.00    +0.000 A 
ATOM      5  C   UNL     1     -24.009  11.198   6.375  0.00  0.00    +0.000 A 
ATOM      6  C   UNL     1     -23.807   9.838   6.148  0.00  0.00    +0.000 A 
ATOM      7  C   UNL     1     -22.603  10.414   7.967  0.00  0.00    +0.000 A 
ATOM      8  C   UNL     1     -24.861  11.899   5.497  0.00  0.00    +0.000 A 
ATOM      9  C   UNL     1     -24.404   9.144   5.091  0.00  0.00    +0.000 A 
ATOM     10  C   UNL     1     -25.242   9.870   4.234  0.00  0.00    +0.000 A 
ATOM     11  C   UNL     1     -25.468  11.227   4.435  0.00  0.00    +0.000 A 
ATOM     12  H   UNL     1     -22.633   8.435   7.199  0.00  0.00    +0.000 HD
BRANCH   7  13
ATOM     13  O   UNL     1     -21.769  10.218   8.983  0.00  0.00    +0.000 OA
ATOM     14  H   UNL     1     -22.261  10.061   9.808  0.00  0.00    +0.000 HD
ENDBRANCH   7  13
BRANCH  10  16
ATOM     15  O   UNL     1     -26.149   8.020   3.057  0.00  0.00    +0.000 OA
ATOM     16  C   UNL     1     -25.917   9.220   3.090  0.00  0.00    +0.000 C 
BRANCH  16  17
ATOM     17  O   UNL     1     -26.203  10.170   2.155  0.00  0.00    +0.000 OA
ATOM     18  C   UNL     1     -25.875   9.901   0.816  0.00  0.00    +0.000 C 
ENDBRANCH  16  17
ENDBRANCH  10  16
ENDBRANCH   2   4
BRANCH   1  22
ATOM     19  C   UNL     1     -21.813  16.837  10.922  0.00  0.00    +0.000 A 
ATOM     20  C   UNL     1     -20.881  16.316  10.021  0.00  0.00    +0.000 A 
ATOM     21  C   UNL     1     -22.930  16.043  11.216  0.00  0.00    +0.000 A 
ATOM     22  C   UNL     1     -22.148  14.272   9.768  0.00  0.00    +0.000 A 
ATOM     23  C   UNL     1     -21.045  15.059   9.441  0.00  0.00    +0.000 A 
ATOM     24  C   UNL     1     -23.105  14.785  10.643  0.00  0.00    +0.000 A 
BRANCH  19  26
ATOM     25  O   UNL     1     -19.817  17.505  12.909  0.00  0.00    +0.000 OA
ATOM     26  N   UNL     1     -21.643  18.137  11.532  0.00  0.00    +0.000 N 
ATOM     27  C   UNL     1     -20.623  18.333  12.496  0.00  0.00    +0.000 C 
ATOM     28  C   UNL     1     -22.585  19.165  11.081  0.00  0.00    +0.000 C 
BRANCH  27  29
ATOM     29  C   UNL     1     -20.520  19.667  13.071  0.00  0.00    +0.000 C 
BRANCH  29  30
ATOM     30  N   UNL     1     -20.393  21.012  13.629  0.00  0.00    +0.000 N 
ATOM     31  N   UNL     1     -18.869  23.408  11.498  0.00  0.00    +0.000 N 
ATOM     32  C   UNL     1     -18.974  21.422  13.443  0.00  0.00    +0.000 C 
ATOM     33  C   UNL     1     -20.956  21.945  12.613  0.00  0.00    +0.000 C 
ATOM     34  C   UNL     1     -18.305  22.470  12.507  0.00  0.00    +0.000 C 
ATOM     35  C   UNL     1     -20.287  22.993  11.677  0.00  0.00    +0.000 C 
ATOM     36  C   UNL     1     -18.448  22.924  10.191  0.00  0.00    +0.000 C 
ENDBRANCH  29  30
ENDBRANCH  27  29
ENDBRANCH  19  26
ENDBRANCH   1  22
BRANCH   2  37
ATOM     37  C   UNL     1     -23.972  13.989   7.579  0.00  0.00    +0.000 A 
ATOM     38  C   UNL     1     -23.430  14.820   6.601  0.00  0.00    +0.000 A 
ATOM     39  C   UNL     1     -25.288  14.141   8.013  0.00  0.00    +0.000 A 
ATOM     40  C   UNL     1     -24.221  15.827   6.054  0.00  0.00    +0.000 A 
ATOM     41  C   UNL     1     -26.069  15.151   7.461  0.00  0.00    +0.000 A 
ATOM     42  C   UNL     1     -25.537  15.992   6.483  0.00  0.00    +0.000 A 
ENDBRANCH   2  37
TORSDOF 9
ENDMDL
MODEL 3
REMARK VINA RESULT:      -6.7     13.198     15.930
REMARK  Name = 135423438_Nintedanib.pdbqt.pdb
REMARK  9 active torsions:
REMARK  status: ('A' for Active; 'I' for Inactive)
REMARK    1  A    between atoms: N_1  and  C_22
REMARK    2  A    between atoms: C_2  and  C_4
REMARK    3  A    between atoms: C_2  and  C_37
REMARK    4  A    between atoms: C_7  and  O_13
REMARK    5  A    between atoms: C_10  and  C_16
REMARK    6  A    between atoms: C_16  and  O_17
REMARK    7  A    between atoms: C_19  and  N_26
REMARK    8  A    between atoms: C_27  and  C_29
REMARK    9  A    between atoms: C_29  and  N_30
REMARK                            x       y       z     vdW  Elec       q    Type
REMARK                         _______ _______ _______ _____ _____    ______ ____
ROOT
ATOM      1  N   UNL     1     -17.478   6.959  -2.991  0.00  0.00    +0.000 NA
ATOM      2  C   UNL     1     -16.858   6.663  -1.885  0.00  0.00    +0.000 C 
ENDROOT
BRANCH   2   4
ATOM      3  N   UNL     1     -16.613   3.063  -1.252  0.00  0.00    +0.000 N 
ATOM      4  C   UNL     1     -16.496   5.253  -1.690  0.00  0.00    +0.000 A 
ATOM      5  C   UNL     1     -15.183   4.674  -1.808  0.00  0.00    +0.000 A 
ATOM      6  C   UNL     1     -15.293   3.312  -1.533  0.00  0.00    +0.000 A 
ATOM      7  C   UNL     1     -17.350   4.217  -1.338  0.00  0.00    +0.000 A 
ATOM      8  C   UNL     1     -13.910   5.186  -2.133  0.00  0.00    +0.000 A 
ATOM      9  C   UNL     1     -14.201   2.438  -1.559  0.00  0.00    +0.000 A 
ATOM     10  C   UNL     1     -12.949   2.979  -1.881  0.00  0.00    +0.000 A 
ATOM     11  C   UNL     1     -12.806   4.332  -2.165  0.00  0.00    +0.000 A 
ATOM     12  H   UNL     1     -16.977   2.153  -1.013  0.00  0.00    +0.000 HD
BRANCH   7  13
ATOM     13  O   UNL     1     -18.656   4.222  -1.091  0.00  0.00    +0.000 OA
ATOM     14  H   UNL     1     -19.132   4.740  -1.764  0.00  0.00    +0.000 HD
ENDBRANCH   7  13
BRANCH  10  16
ATOM     15  O   UNL     1     -11.379   1.558  -2.952  0.00  0.00    +0.000 OA
ATOM     16  C   UNL     1     -11.738   2.130  -1.933  0.00  0.00    +0.000 C 
BRANCH  16  17
ATOM     17  O   UNL     1     -11.156   2.125  -0.701  0.00  0.00    +0.000 OA
ATOM     18  C   UNL     1      -9.980   1.377  -0.528  0.00  0.00    +0.000 C 
ENDBRANCH  16  17
ENDBRANCH  10  16
ENDBRANCH   2   4
BRANCH   1  22
ATOM     19  C   UNL     1     -18.793  10.882  -3.875  0.00  0.00    +0.000 A 
ATOM     20  C   UNL     1     -17.712  10.304  -4.546  0.00  0.00    +0.000 A 
ATOM     21  C   UNL     1     -19.424  10.107  -2.894  0.00  0.00    +0.000 A 
ATOM     22  C   UNL     1     -17.894   8.270  -3.251  0.00  0.00    +0.000 A 
ATOM     23  C   UNL     1     -17.271   9.015  -4.251  0.00  0.00    +0.000 A 
ATOM     24  C   UNL     1     -18.992   8.817  -2.590  0.00  0.00    +0.000 A 
BRANCH  19  26
ATOM     25  O   UNL     1     -17.084  13.122  -4.541  0.00  0.00    +0.000 OA
ATOM     26  N   UNL     1     -19.249  12.221  -4.173  0.00  0.00    +0.000 N 
ATOM     27  C   UNL     1     -18.305  13.232  -4.484  0.00  0.00    +0.000 C 
ATOM     28  C   UNL     1     -20.701  12.414  -4.114  0.00  0.00    +0.000 C 
BRANCH  27  29
ATOM     29  C   UNL     1     -18.840  14.557  -4.765  0.00  0.00    +0.000 C 
BRANCH  29  30
ATOM     30  N   UNL     1     -19.405  15.875  -5.045  0.00  0.00    +0.000 N 
ATOM     31  N   UNL     1     -22.843  16.262  -4.248  0.00  0.00    +0.000 N 
ATOM     32  C   UNL     1     -20.645  15.652  -5.839  0.00  0.00    +0.000 C 
ATOM     33  C   UNL     1     -20.098  16.312  -3.800  0.00  0.00    +0.000 C 
ATOM     34  C   UNL     1     -22.152  15.818  -5.489  0.00  0.00    +0.000 C 
ATOM     35  C   UNL     1     -21.606  16.477  -3.450  0.00  0.00    +0.000 C 
ATOM     36  C   UNL     1     -23.505  15.090  -3.692  0.00  0.00    +0.000 C 
ENDBRANCH  29  30
ENDBRANCH  27  29
ENDBRANCH  19  26
ENDBRANCH   1  22
BRANCH   2  37
ATOM     37  C   UNL     1     -16.505   7.631  -0.831  0.00  0.00    +0.000 A 
ATOM     38  C   UNL     1     -17.257   7.673   0.342  0.00  0.00    +0.000 A 
ATOM     39  C   UNL     1     -15.401   8.463  -1.015  0.00  0.00    +0.000 A 
ATOM     40  C   UNL     1     -16.900   8.571   1.343  0.00  0.00    +0.000 A 
ATOM     41  C   UNL     1     -15.054   9.357  -0.008  0.00  0.00    +0.000 A 
ATOM     42  C   UNL     1     -15.801   9.412   1.168  0.00  0.00    +0.000 A 
ENDBRANCH   2  37
TORSDOF 9
ENDMDL
MODEL 4
REMARK VINA RESULT:      -6.6     12.825     18.275
REMARK  Name = 135423438_Nintedanib.pdbqt.pdb
REMARK  9 active torsions:
REMARK  status: ('A' for Active; 'I' for Inactive)
REMARK    1  A    between atoms: N_1  and  C_22
REMARK    2  A    between atoms: C_2  and  C_4
REMARK    3  A    between atoms: C_2  and  C_37
REMARK    4  A    between atoms: C_7  and  O_13
REMARK    5  A    between atoms: C_10  and  C_16
REMARK    6  A    between atoms: C_16  and  O_17
REMARK    7  A    between atoms: C_19  and  N_26
REMARK    8  A    between atoms: C_27  and  C_29
REMARK    9  A    between atoms: C_29  and  N_30
REMARK                            x       y       z     vdW  Elec       q    Type
REMARK                         _______ _______ _______ _____ _____    ______ ____
ROOT
ATOM      1  N   UNL     1     -15.044   9.203  -2.817  0.00  0.00    +0.000 NA
ATOM      2  C   UNL     1     -15.319  10.105  -1.919  0.00  0.00    +0.000 C 
ENDROOT
BRANCH   2   4
ATOM      3  N   UNL     1     -13.806  13.440  -1.845  0.00  0.00    +0.000 N 
ATOM      4  C   UNL     1     -14.782  11.451  -2.153  0.00  0.00    +0.000 A 
ATOM      5  C   UNL     1     -14.828  12.199  -3.382  0.00  0.00    +0.000 A 
ATOM      6  C   UNL     1     -14.211  13.428  -3.156  0.00  0.00    +0.000 A 
ATOM      7  C   UNL     1     -14.144  12.264  -1.225  0.00  0.00    +0.000 A 
ATOM      8  C   UNL     1     -15.334  11.936  -4.671  0.00  0.00    +0.000 A 
ATOM      9  C   UNL     1     -14.078  14.408  -4.145  0.00  0.00    +0.000 A 
ATOM     10  C   UNL     1     -14.595  14.118  -5.415  0.00  0.00    +0.000 A 
ATOM     11  C   UNL     1     -15.212  12.900  -5.675  0.00  0.00    +0.000 A 
ATOM     12  H   UNL     1     -13.331  14.216  -1.408  0.00  0.00    +0.000 HD
BRANCH   7  13
ATOM     13  O   UNL     1     -13.866  12.055   0.058  0.00  0.00    +0.000 OA
ATOM     14  H   UNL     1     -13.790  12.899   0.537  0.00  0.00    +0.000 HD
ENDBRANCH   7  13
BRANCH  10  16
ATOM     15  O   UNL     1     -14.521  14.759  -7.698  0.00  0.00    +0.000 OA
ATOM     16  C   UNL     1     -14.499  15.093  -6.523  0.00  0.00    +0.000 C 
BRANCH  16  17
ATOM     17  O   UNL     1     -14.389  16.345  -5.994  0.00  0.00    +0.000 OA
ATOM     18  C   UNL     1     -15.387  17.284  -6.301  0.00  0.00    +0.000 C 
ENDBRANCH  16  17
ENDBRANCH  10  16
ENDBRANCH   2   4
BRANCH   1  22
ATOM     19  C   UNL     1     -16.403   5.237  -2.245  0.00  0.00    +0.000 A 
ATOM     20  C   UNL     1     -15.170   5.667  -1.749  0.00  0.00    +0.000 A 
ATOM     21  C   UNL     1     -17.173   6.177  -2.943  0.00  0.00    +0.000 A 
ATOM     22  C   UNL     1     -15.483   7.883  -2.665  0.00  0.00    +0.000 A 
ATOM     23  C   UNL     1     -14.715   6.970  -1.944  0.00  0.00    +0.000 A 
ATOM     24  C   UNL     1     -16.730   7.483  -3.143  0.00  0.00    +0.000 A 
BRANCH  19  26
ATOM     25  O   UNL     1     -18.446   4.431  -0.359  0.00  0.00    +0.000 OA
ATOM     26  N   UNL     1     -16.875   3.884  -2.052  0.00  0.00    +0.000 N 
ATOM     27  C   UNL     1     -17.884   3.623  -1.092  0.00  0.00    +0.000 C 
ATOM     28  C   UNL     1     -16.234   2.873  -2.897  0.00  0.00    +0.000 C 
BRANCH  27  29
ATOM     29  C   UNL     1     -18.302   2.235  -0.949  0.00  0.00    +0.000 C 
BRANCH  29  30
ATOM     30  N   UNL     1     -18.750   0.851  -0.808  0.00  0.00    +0.000 N 
ATOM     31  N   UNL     1     -16.167  -1.575  -0.604  0.00  0.00    +0.000 N 
ATOM     32  C   UNL     1     -18.039   0.061  -1.850  0.00  0.00    +0.000 C 
ATOM     33  C   UNL     1     -18.006   0.282   0.350  0.00  0.00    +0.000 C 
ATOM     34  C   UNL     1     -16.905  -1.001  -1.762  0.00  0.00    +0.000 C 
ATOM     35  C   UNL     1     -16.871  -0.780   0.438  0.00  0.00    +0.000 C 
ATOM     36  C   UNL     1     -14.804  -1.065  -0.677  0.00  0.00    +0.000 C 
ENDBRANCH  29  30
ENDBRANCH  27  29
ENDBRANCH  19  26
ENDBRANCH   1  22
BRANCH   2  37
ATOM     37  C   UNL     1     -16.115   9.868  -0.701  0.00  0.00    +0.000 A 
ATOM     38  C   UNL     1     -17.488  10.103  -0.723  0.00  0.00    +0.000 A 
ATOM     39  C   UNL     1     -15.481   9.379   0.440  0.00  0.00    +0.000 A 
ATOM     40  C   UNL     1     -18.236   9.852   0.423  0.00  0.00    +0.000 A 
ATOM     41  C   UNL     1     -16.238   9.132   1.581  0.00  0.00    +0.000 A 
ATOM     42  C   UNL     1     -17.613   9.368   1.572  0.00  0.00    +0.000 A 
ENDBRANCH   2  37
TORSDOF 9
ENDMDL
MODEL 5
REMARK VINA RESULT:      -6.6     13.638     19.776
REMARK  Name = 135423438_Nintedanib.pdbqt.pdb
REMARK  9 active torsions:
REMARK  status: ('A' for Active; 'I' for Inactive)
REMARK    1  A    between atoms: N_1  and  C_22
REMARK    2  A    between atoms: C_2  and  C_4
REMARK    3  A    between atoms: C_2  and  C_37
REMARK    4  A    between atoms: C_7  and  O_13
REMARK    5  A    between atoms: C_10  and  C_16
REMARK    6  A    between atoms: C_16  and  O_17
REMARK    7  A    between atoms: C_19  and  N_26
REMARK    8  A    between atoms: C_27  and  C_29
REMARK    9  A    between atoms: C_29  and  N_30
REMARK                            x       y       z     vdW  Elec       q    Type
REMARK                         _______ _______ _______ _____ _____    ______ ____
ROOT
ATOM      1  N   UNL     1     -17.717   6.876  -1.341  0.00  0.00    +0.000 NA
ATOM      2  C   UNL     1     -16.487   7.265  -1.511  0.00  0.00    +0.000 C 
ENDROOT
BRANCH   2   4
ATOM      3  N   UNL     1     -15.730  10.010   0.795  0.00  0.00    +0.000 N 
ATOM      4  C   UNL     1     -16.081   8.489  -0.807  0.00  0.00    +0.000 A 
ATOM      5  C   UNL     1     -15.466   9.655  -1.385  0.00  0.00    +0.000 A 
ATOM      6  C   UNL     1     -15.260  10.579  -0.363  0.00  0.00    +0.000 A 
ATOM      7  C   UNL     1     -16.230   8.757   0.547  0.00  0.00    +0.000 A 
ATOM      8  C   UNL     1     -15.060  10.005  -2.689  0.00  0.00    +0.000 A 
ATOM      9  C   UNL     1     -14.675  11.832  -0.573  0.00  0.00    +0.000 A 
ATOM     10  C   UNL     1     -14.286  12.151  -1.880  0.00  0.00    +0.000 A 
ATOM     11  C   UNL     1     -14.474  11.251  -2.923  0.00  0.00    +0.000 A 
ATOM     12  H   UNL     1     -15.708  10.464   1.696  0.00  0.00    +0.000 HD
BRANCH   7  13
ATOM     13  O   UNL     1     -16.757   8.019   1.519  0.00  0.00    +0.000 OA
ATOM     14  H   UNL     1     -16.423   8.303   2.388  0.00  0.00    +0.000 HD
ENDBRANCH   7  13
BRANCH  10  16
ATOM     15  O   UNL     1     -13.646  14.387  -1.409  0.00  0.00    +0.000 OA
ATOM     16  C   UNL     1     -13.659  13.453  -2.197  0.00  0.00    +0.000 C 
BRANCH  16  17
ATOM     17  O   UNL     1     -13.140  13.392  -3.456  0.00  0.00    +0.000 OA
ATOM     18  C   UNL     1     -12.985  14.593  -4.168  0.00  0.00    +0.000 C 
ENDBRANCH  16  17
ENDBRANCH  10  16
ENDBRANCH   2   4
BRANCH   1  22
ATOM     19  C   UNL     1     -19.298   3.452  -3.259  0.00  0.00    +0.000 A 
ATOM     20  C   UNL     1     -18.749   3.384  -1.977  0.00  0.00    +0.000 A 
ATOM     21  C   UNL     1     -19.303   4.705  -3.887  0.00  0.00    +0.000 A 
ATOM     22  C   UNL     1     -18.207   5.741  -1.997  0.00  0.00    +0.000 A 
ATOM     23  C   UNL     1     -18.219   4.508  -1.345  0.00  0.00    +0.000 A 
ATOM     24  C   UNL     1     -18.777   5.837  -3.265  0.00  0.00    +0.000 A 
BRANCH  19  26
ATOM     25  O   UNL     1     -22.048   2.563  -3.089  0.00  0.00    +0.000 OA
ATOM     26  N   UNL     1     -19.842   2.287  -3.921  0.00  0.00    +0.000 N 
ATOM     27  C   UNL     1     -21.211   1.960  -3.754  0.00  0.00    +0.000 C 
ATOM     28  C   UNL     1     -18.885   1.522  -4.725  0.00  0.00    +0.000 C 
BRANCH  27  29
ATOM     29  C   UNL     1     -21.684   0.768  -4.445  0.00  0.00    +0.000 C 
BRANCH  29  30
ATOM     30  N   UNL     1     -22.186  -0.418  -5.135  0.00  0.00    +0.000 N 
ATOM     31  N   UNL     1     -19.764  -2.259  -6.964  0.00  0.00    +0.000 N 
ATOM     32  C   UNL     1     -21.718  -0.325  -6.546  0.00  0.00    +0.000 C 
ATOM     33  C   UNL     1     -21.289  -1.543  -4.750  0.00  0.00    +0.000 C 
ATOM     34  C   UNL     1     -20.654  -1.130  -7.347  0.00  0.00    +0.000 C 
ATOM     35  C   UNL     1     -20.225  -2.348  -5.552  0.00  0.00    +0.000 C 
ATOM     36  C   UNL     1     -18.406  -1.734  -6.933  0.00  0.00    +0.000 C 
ENDBRANCH  29  30
ENDBRANCH  27  29
ENDBRANCH  19  26
ENDBRANCH   1  22
BRANCH   2  37
ATOM     37  C   UNL     1     -15.492   6.575  -2.351  0.00  0.00    +0.000 A 
ATOM     38  C   UNL     1     -14.677   5.597  -1.785  0.00  0.00    +0.000 A 
ATOM     39  C   UNL     1     -15.409   6.893  -3.706  0.00  0.00    +0.000 A 
ATOM     40  C   UNL     1     -13.758   4.931  -2.591  0.00  0.00    +0.000 A 
ATOM     41  C   UNL     1     -14.487   6.222  -4.502  0.00  0.00    +0.000 A 
ATOM     42  C   UNL     1     -13.663   5.244  -3.946  0.00  0.00    +0.000 A 
ENDBRANCH   2  37
TORSDOF 9
ENDMDL
MODEL 6
REMARK VINA RESULT:      -6.3     13.722     17.221
REMARK  Name = 135423438_Nintedanib.pdbqt.pdb
REMARK  9 active torsions:
REMARK  status: ('A' for Active; 'I' for Inactive)
REMARK    1  A    between atoms: N_1  and  C_22
REMARK    2  A    between atoms: C_2  and  C_4
REMARK    3  A    between atoms: C_2  and  C_37
REMARK    4  A    between atoms: C_7  and  O_13
REMARK    5  A    between atoms: C_10  and  C_16
REMARK    6  A    between atoms: C_16  and  O_17
REMARK    7  A    between atoms: C_19  and  N_26
REMARK    8  A    between atoms: C_27  and  C_29
REMARK    9  A    between atoms: C_29  and  N_30
REMARK                            x       y       z     vdW  Elec       q    Type
REMARK                         _______ _______ _______ _____ _____    ______ ____
ROOT
ATOM      1  N   UNL     1     -15.848   7.216  -3.289  0.00  0.00    +0.000 NA
ATOM      2  C   UNL     1     -15.901   6.821  -2.049  0.00  0.00    +0.000 C 
ENDROOT
BRANCH   2   4
ATOM      3  N   UNL     1     -16.439   3.266  -1.349  0.00  0.00    +0.000 N 
ATOM      4  C   UNL     1     -15.850   5.372  -1.818  0.00  0.00    +0.000 A 
ATOM      5  C   UNL     1     -14.685   4.528  -1.875  0.00  0.00    +0.000 A 
ATOM      6  C   UNL     1     -15.087   3.227  -1.582  0.00  0.00    +0.000 A 
ATOM      7  C   UNL     1     -16.915   4.546  -1.482  0.00  0.00    +0.000 A 
ATOM      8  C   UNL     1     -13.322   4.755  -2.157  0.00  0.00    +0.000 A 
ATOM      9  C   UNL     1     -14.203   2.143  -1.551  0.00  0.00    +0.000 A 
ATOM     10  C   UNL     1     -12.855   2.402  -1.832  0.00  0.00    +0.000 A 
ATOM     11  C   UNL     1     -12.421   3.689  -2.133  0.00  0.00    +0.000 A 
ATOM     12  H   UNL     1     -16.995   2.458  -1.110  0.00  0.00    +0.000 HD
BRANCH   7  13
ATOM     13  O   UNL     1     -18.198   4.830  -1.287  0.00  0.00    +0.000 OA
ATOM     14  H   UNL     1     -18.560   4.304  -0.552  0.00  0.00    +0.000 HD
ENDBRANCH   7  13
BRANCH  10  16
ATOM     15  O   UNL     1     -11.325   0.898  -2.844  0.00  0.00    +0.000 OA
ATOM     16  C   UNL     1     -11.848   1.319  -1.823  0.00  0.00    +0.000 C 
BRANCH  16  17
ATOM     17  O   UNL     1     -11.645   0.922  -0.535  0.00  0.00    +0.000 OA
ATOM     18  C   UNL     1     -10.502   1.393   0.131  0.00  0.00    +0.000 C 
ENDBRANCH  16  17
ENDBRANCH  10  16
ENDBRANCH   2   4
BRANCH   1  22
ATOM     19  C   UNL     1     -16.078  11.297  -4.382  0.00  0.00    +0.000 A 
ATOM     20  C   UNL     1     -14.871  10.595  -4.424  0.00  0.00    +0.000 A 
ATOM     21  C   UNL     1     -17.213  10.592  -3.960  0.00  0.00    +0.000 A 
ATOM     22  C   UNL     1     -15.925   8.576  -3.612  0.00  0.00    +0.000 A 
ATOM     23  C   UNL     1     -14.790   9.253  -4.056  0.00  0.00    +0.000 A 
ATOM     24  C   UNL     1     -17.145   9.249  -3.590  0.00  0.00    +0.000 A 
BRANCH  19  26
ATOM     25  O   UNL     1     -13.863  13.160  -4.420  0.00  0.00    +0.000 OA
ATOM     26  N   UNL     1     -16.165  12.691  -4.755  0.00  0.00    +0.000 N 
ATOM     27  C   UNL     1     -15.000  13.499  -4.730  0.00  0.00    +0.000 C 
ATOM     28  C   UNL     1     -17.504  13.155  -5.130  0.00  0.00    +0.000 C 
BRANCH  27  29
ATOM     29  C   UNL     1     -15.169  14.894  -5.112  0.00  0.00    +0.000 C 
BRANCH  29  30
ATOM     30  N   UNL     1     -15.333  16.287  -5.523  0.00  0.00    +0.000 N 
ATOM     31  N   UNL     1     -14.050  17.089  -8.734  0.00  0.00    +0.000 N 
ATOM     32  C   UNL     1     -13.995  16.762  -5.973  0.00  0.00    +0.000 C 
ATOM     33  C   UNL     1     -15.949  16.257  -6.879  0.00  0.00    +0.000 C 
ATOM     34  C   UNL     1     -13.431  17.111  -7.381  0.00  0.00    +0.000 C 
ATOM     35  C   UNL     1     -15.384  16.606  -8.288  0.00  0.00    +0.000 C 
ATOM     36  C   UNL     1     -13.427  15.994  -9.465  0.00  0.00    +0.000 C 
ENDBRANCH  29  30
ENDBRANCH  27  29
ENDBRANCH  19  26
ENDBRANCH   1  22
BRANCH   2  37
ATOM     37  C   UNL     1     -16.011   7.715  -0.883  0.00  0.00    +0.000 A 
ATOM     38  C   UNL     1     -17.181   7.714  -0.126  0.00  0.00    +0.000 A 
ATOM     39  C   UNL     1     -14.927   8.521  -0.540  0.00  0.00    +0.000 A 
ATOM     40  C   UNL     1     -17.267   8.541   0.990  0.00  0.00    +0.000 A 
ATOM     41  C   UNL     1     -15.023   9.345   0.577  0.00  0.00    +0.000 A 
ATOM     42  C   UNL     1     -16.190   9.355   1.340  0.00  0.00    +0.000 A 
ENDBRANCH   2  37
TORSDOF 9
ENDMDL
MODEL 7
REMARK VINA RESULT:      -6.3     14.369     19.640
REMARK  Name = 135423438_Nintedanib.pdbqt.pdb
REMARK  9 active torsions:
REMARK  status: ('A' for Active; 'I' for Inactive)
REMARK    1  A    between atoms: N_1  and  C_22
REMARK    2  A    between atoms: C_2  and  C_4
REMARK    3  A    between atoms: C_2  and  C_37
REMARK    4  A    between atoms: C_7  and  O_13
REMARK    5  A    between atoms: C_10  and  C_16
REMARK    6  A    between atoms: C_16  and  O_17
REMARK    7  A    between atoms: C_19  and  N_26
REMARK    8  A    between atoms: C_27  and  C_29
REMARK    9  A    between atoms: C_29  and  N_30
REMARK                            x       y       z     vdW  Elec       q    Type
REMARK                         _______ _______ _______ _____ _____    ______ ____
ROOT
ATOM      1  N   UNL     1     -17.171   6.670  -1.534  0.00  0.00    +0.000 NA
ATOM      2  C   UNL     1     -15.958   7.059  -1.802  0.00  0.00    +0.000 C 
ENDROOT
BRANCH   2   4
ATOM      3  N   UNL     1     -15.268  10.297  -0.234  0.00  0.00    +0.000 N 
ATOM      4  C   UNL     1     -15.610   8.435  -1.425  0.00  0.00    +0.000 A 
ATOM      5  C   UNL     1     -15.159   9.484  -2.302  0.00  0.00    +0.000 A 
ATOM      6  C   UNL     1     -14.953  10.625  -1.530  0.00  0.00    +0.000 A 
ATOM      7  C   UNL     1     -15.668   8.988  -0.152  0.00  0.00    +0.000 A 
ATOM      8  C   UNL     1     -14.899   9.562  -3.686  0.00  0.00    +0.000 A 
ATOM      9  C   UNL     1     -14.509  11.839  -2.064  0.00  0.00    +0.000 A 
ATOM     10  C   UNL     1     -14.264  11.885  -3.443  0.00  0.00    +0.000 A 
ATOM     11  C   UNL     1     -14.455  10.763  -4.242  0.00  0.00    +0.000 A 
ATOM     12  H   UNL     1     -15.213  10.942   0.540  0.00  0.00    +0.000 HD
BRANCH   7  13
ATOM     13  O   UNL     1     -16.039   8.450   1.005  0.00  0.00    +0.000 OA
ATOM     14  H   UNL     1     -15.326   8.522   1.663  0.00  0.00    +0.000 HD
ENDBRANCH   7  13
BRANCH  10  16
ATOM     15  O   UNL     1     -14.419  14.172  -4.055  0.00  0.00    +0.000 OA
ATOM     16  C   UNL     1     -13.791  13.125  -4.097  0.00  0.00    +0.000 C 
BRANCH  16  17
ATOM     17  O   UNL     1     -12.599  12.869  -4.706  0.00  0.00    +0.000 OA
ATOM     18  C   UNL     1     -11.491  13.657  -4.352  0.00  0.00    +0.000 C 
ENDBRANCH  16  17
ENDBRANCH  10  16
ENDBRANCH   2   4
BRANCH   1  22
ATOM     19  C   UNL     1     -18.593   2.816  -2.546  0.00  0.00    +0.000 A 
ATOM     20  C   UNL     1     -18.146   3.115  -1.257  0.00  0.00    +0.000 A 
ATOM     21  C   UNL     1     -18.550   3.847  -3.494  0.00  0.00    +0.000 A 
ATOM     22  C   UNL     1     -17.606   5.387  -1.886  0.00  0.00    +0.000 A 
ATOM     23  C   UNL     1     -17.669   4.381  -0.922  0.00  0.00    +0.000 A 
ATOM     24  C   UNL     1     -18.075   5.118  -3.171  0.00  0.00    +0.000 A 
BRANCH  19  26
ATOM     25  O   UNL     1     -21.382   2.082  -2.804  0.00  0.00    +0.000 OA
ATOM     26  N   UNL     1     -19.082   1.502  -2.900  0.00  0.00    +0.000 N 
ATOM     27  C   UNL     1     -20.478   1.273  -2.992  0.00  0.00    +0.000 C 
ATOM     28  C   UNL     1     -18.047   0.491  -3.130  0.00  0.00    +0.000 C 
BRANCH  27  29
ATOM     29  C   UNL     1     -20.894  -0.077  -3.344  0.00  0.00    +0.000 C 
BRANCH  29  30
ATOM     30  N   UNL     1     -21.313  -1.424  -3.727  0.00  0.00    +0.000 N 
ATOM     31  N   UNL     1     -24.788  -2.084  -3.431  0.00  0.00    +0.000 N 
ATOM     32  C   UNL     1     -22.136  -1.954  -2.605  0.00  0.00    +0.000 C 
ATOM     33  C   UNL     1     -22.444  -1.260  -4.682  0.00  0.00    +0.000 C 
ATOM     34  C   UNL     1     -23.659  -2.241  -2.473  0.00  0.00    +0.000 C 
ATOM     35  C   UNL     1     -23.969  -1.546  -4.550  0.00  0.00    +0.000 C 
ATOM     36  C   UNL     1     -25.608  -0.984  -2.940  0.00  0.00    +0.000 C 
ENDBRANCH  29  30
ENDBRANCH  27  29
ENDBRANCH  19  26
ENDBRANCH   1  22
BRANCH   2  37
ATOM     37  C   UNL     1     -14.929   6.227  -2.452  0.00  0.00    +0.000 A 
ATOM     38  C   UNL     1     -14.169   5.350  -1.681  0.00  0.00    +0.000 A 
ATOM     39  C   UNL     1     -14.760   6.312  -3.833  0.00  0.00    +0.000 A 
ATOM     40  C   UNL     1     -13.218   4.549  -2.307  0.00  0.00    +0.000 A 
ATOM     41  C   UNL     1     -13.806   5.508  -4.448  0.00  0.00    +0.000 A 
ATOM     42  C   UNL     1     -13.037   4.628  -3.687  0.00  0.00    +0.000 A 
ENDBRANCH   2  37
TORSDOF 9
ENDMDL
MODEL 8
REMARK VINA RESULT:      -6.2     13.422     18.681
REMARK  Name = 135423438_Nintedanib.pdbqt.pdb
REMARK  9 active torsions:
REMARK  status: ('A' for Active; 'I' for Inactive)
REMARK    1  A    between atoms: N_1  and  C_22
REMARK    2  A    between atoms: C_2  and  C_4
REMARK    3  A    between atoms: C_2  and  C_37
REMARK    4  A    between atoms: C_7  and  O_13
REMARK    5  A    between atoms: C_10  and  C_16
REMARK    6  A    between atoms: C_16  and  O_17
REMARK    7  A    between atoms: C_19  and  N_26
REMARK    8  A    between atoms: C_27  and  C_29
REMARK    9  A    between atoms: C_29  and  N_30
REMARK                            x       y       z     vdW  Elec       q    Type
REMARK                         _______ _______ _______ _____ _____    ______ ____
ROOT
ATOM      1  N   UNL     1     -15.888   7.130  -0.930  0.00  0.00    +0.000 NA
ATOM      2  C   UNL     1     -16.488   8.235  -1.267  0.00  0.00    +0.000 C 
ENDROOT
BRANCH   2   4
ATOM      3  N   UNL     1     -14.818  11.203   0.082  0.00  0.00    +0.000 N 
ATOM      4  C   UNL     1     -15.771   9.485  -0.988  0.00  0.00    +0.000 A 
ATOM      5  C   UNL     1     -15.226  10.403  -1.954  0.00  0.00    +0.000 A 
ATOM      6  C   UNL     1     -14.639  11.457  -1.255  0.00  0.00    +0.000 A 
ATOM      7  C   UNL     1     -15.499  10.026   0.262  0.00  0.00    +0.000 A 
ATOM      8  C   UNL     1     -15.173  10.428  -3.362  0.00  0.00    +0.000 A 
ATOM      9  C   UNL     1     -14.008  12.534  -1.887  0.00  0.00    +0.000 A 
ATOM     10  C   UNL     1     -13.976  12.531  -3.288  0.00  0.00    +0.000 A 
ATOM     11  C   UNL     1     -14.548  11.493  -4.015  0.00  0.00    +0.000 A 
ATOM     12  H   UNL     1     -14.492  11.810   0.820  0.00  0.00    +0.000 HD
BRANCH   7  13
ATOM     13  O   UNL     1     -15.802   9.583   1.477  0.00  0.00    +0.000 OA
ATOM     14  H   UNL     1     -15.667   8.621   1.538  0.00  0.00    +0.000 HD
ENDBRANCH   7  13
BRANCH  10  16
ATOM     15  O   UNL     1     -13.477  14.805  -3.747  0.00  0.00    +0.000 OA
ATOM     16  C   UNL     1     -13.330  13.628  -4.042  0.00  0.00    +0.000 C 
BRANCH  16  17
ATOM     17  O   UNL     1     -12.595  13.087  -5.054  0.00  0.00    +0.000 OA
ATOM     18  C   UNL     1     -11.211  13.325  -5.069  0.00  0.00    +0.000 C 
ENDBRANCH  16  17
ENDBRANCH  10  16
ENDBRANCH   2   4
BRANCH   1  22
ATOM     19  C   UNL     1     -17.660   3.327  -1.477  0.00  0.00    +0.000 A 
ATOM     20  C   UNL     1     -16.719   3.832  -2.378  0.00  0.00    +0.000 A 
ATOM     21  C   UNL     1     -17.994   4.135  -0.382  0.00  0.00    +0.000 A 
ATOM     22  C   UNL     1     -16.507   5.890  -1.125  0.00  0.00    +0.000 A 
ATOM     23  C   UNL     1     -16.140   5.088  -2.205  0.00  0.00    +0.000 A 
ATOM     24  C   UNL     1     -17.422   5.392  -0.199  0.00  0.00    +0.000 A 
BRANCH  19  26
ATOM     25  O   UNL     1     -20.236   2.841  -2.704  0.00  0.00    +0.000 OA
ATOM     26  N   UNL     1     -18.268   2.028  -1.656  0.00  0.00    +0.000 N 
ATOM     27  C   UNL     1     -19.540   1.927  -2.274  0.00  0.00    +0.000 C 
ATOM     28  C   UNL     1     -17.484   0.896  -1.154  0.00  0.00    +0.000 C 
BRANCH  27  29
ATOM     29  C   UNL     1     -20.092   0.586  -2.412  0.00  0.00    +0.000 C 
BRANCH  29  30
ATOM     30  N   UNL     1     -20.621  -0.770  -2.535  0.00  0.00    +0.000 N 
ATOM     31  N   UNL     1     -18.662  -3.315  -1.024  0.00  0.00    +0.000 N 
ATOM     32  C   UNL     1     -19.513  -1.619  -3.055  0.00  0.00    +0.000 C 
ATOM     33  C   UNL     1     -20.625  -1.349  -1.162  0.00  0.00    +0.000 C 
ATOM     34  C   UNL     1     -18.652  -2.732  -2.393  0.00  0.00    +0.000 C 
ATOM     35  C   UNL     1     -19.763  -2.463  -0.499  0.00  0.00    +0.000 C 
ATOM     36  C   UNL     1     -17.437  -2.875  -0.369  0.00  0.00    +0.000 C 
ENDBRANCH  29  30
ENDBRANCH  27  29
ENDBRANCH  19  26
ENDBRANCH   1  22
BRANCH   2  37
ATOM     37  C   UNL     1     -17.819   8.314  -1.896  0.00  0.00    +0.000 A 
ATOM     38  C   UNL     1     -18.924   8.662  -1.121  0.00  0.00    +0.000 A 
ATOM     39  C   UNL     1     -17.939   8.073  -3.264  0.00  0.00    +0.000 A 
ATOM     40  C   UNL     1     -20.172   8.760  -1.729  0.00  0.00    +0.000 A 
ATOM     41  C   UNL     1     -19.192   8.174  -3.861  0.00  0.00    +0.000 A 
ATOM     42  C   UNL     1     -20.306   8.517  -3.095  0.00  0.00    +0.000 A 
ENDBRANCH   2  37
TORSDOF 9
ENDMDL
MODEL 9
REMARK VINA RESULT:      -6.1     16.909     19.495
REMARK  Name = 135423438_Nintedanib.pdbqt.pdb
REMARK  9 active torsions:
REMARK  status: ('A' for Active; 'I' for Inactive)
REMARK    1  A    between atoms: N_1  and  C_22
REMARK    2  A    between atoms: C_2  and  C_4
REMARK    3  A    between atoms: C_2  and  C_37
REMARK    4  A    between atoms: C_7  and  O_13
REMARK    5  A    between atoms: C_10  and  C_16
REMARK    6  A    between atoms: C_16  and  O_17
REMARK    7  A    between atoms: C_19  and  N_26
REMARK    8  A    between atoms: C_27  and  C_29
REMARK    9  A    between atoms: C_29  and  N_30
REMARK                            x       y       z     vdW  Elec       q    Type
REMARK                         _______ _______ _______ _____ _____    ______ ____
ROOT
ATOM      1  N   UNL     1     -14.714  14.329  -4.396  0.00  0.00    +0.000 NA
ATOM      2  C   UNL     1     -13.869  13.411  -4.023  0.00  0.00    +0.000 C 
ENDROOT
BRANCH   2   4
ATOM      3  N   UNL     1     -14.523  12.206  -0.626  0.00  0.00    +0.000 N 
ATOM      4  C   UNL     1     -14.186  12.690  -2.783  0.00  0.00    +0.000 A 
ATOM      5  C   UNL     1     -14.547  11.302  -2.659  0.00  0.00    +0.000 A 
ATOM      6  C   UNL     1     -14.753  11.036  -1.307  0.00  0.00    +0.000 A 
ATOM      7  C   UNL     1     -14.178  13.209  -1.495  0.00  0.00    +0.000 A 
ATOM      8  C   UNL     1     -14.726  10.249  -3.579  0.00  0.00    +0.000 A 
ATOM      9  C   UNL     1     -15.121   9.775  -0.824  0.00  0.00    +0.000 A 
ATOM     10  C   UNL     1     -15.286   8.749  -1.763  0.00  0.00    +0.000 A 
ATOM     11  C   UNL     1     -15.094   8.982  -3.120  0.00  0.00    +0.000 A 
ATOM     12  H   UNL     1     -14.597  12.299   0.376  0.00  0.00    +0.000 HD
BRANCH   7  13
ATOM     13  O   UNL     1     -13.892  14.432  -1.060  0.00  0.00    +0.000 OA
ATOM     14  H   UNL     1     -12.929  14.570  -1.026  0.00  0.00    +0.000 HD
ENDBRANCH   7  13
BRANCH  10  16
ATOM     15  O   UNL     1     -16.646   7.163  -0.637  0.00  0.00    +0.000 OA
ATOM     16  C   UNL     1     -15.675   7.384  -1.346  0.00  0.00    +0.000 C 
BRANCH  16  17
ATOM     17  O   UNL     1     -14.790   6.496  -1.881  0.00  0.00    +0.000 OA
ATOM     18  C   UNL     1     -15.252   5.208  -2.197  0.00  0.00    +0.000 C 
ENDBRANCH  16  17
ENDBRANCH  10  16
ENDBRANCH   2   4
BRANCH   1  22
ATOM     19  C   UNL     1     -14.117  16.690  -7.856  0.00  0.00    +0.000 A 
ATOM     20  C   UNL     1     -14.926  15.551  -7.878  0.00  0.00    +0.000 A 
ATOM     21  C   UNL     1     -13.510  17.019  -6.637  0.00  0.00    +0.000 A 
ATOM     22  C   UNL     1     -14.481  15.093  -5.546  0.00  0.00    +0.000 A 
ATOM     23  C   UNL     1     -15.117  14.765  -6.742  0.00  0.00    +0.000 A 
ATOM     24  C   UNL     1     -13.694  16.242  -5.494  0.00  0.00    +0.000 A 
BRANCH  19  26
ATOM     25  O   UNL     1     -15.763  18.936  -8.649  0.00  0.00    +0.000 OA
ATOM     26  N   UNL     1     -13.910  17.503  -9.033  0.00  0.00    +0.000 N 
ATOM     27  C   UNL     1     -14.792  18.577  -9.309  0.00  0.00    +0.000 C 
ATOM     28  C   UNL     1     -12.767  17.117  -9.865  0.00  0.00    +0.000 C 
BRANCH  27  29
ATOM     29  C   UNL     1     -14.524  19.346 -10.517  0.00  0.00    +0.000 C 
BRANCH  29  30
ATOM     30  N   UNL     1     -14.251  20.141 -11.712  0.00  0.00    +0.000 N 
ATOM     31  N   UNL     1     -11.319  19.245 -13.502  0.00  0.00    +0.000 N 
ATOM     32  C   UNL     1     -12.838  20.601 -11.608  0.00  0.00    +0.000 C 
ATOM     33  C   UNL     1     -14.015  19.173 -12.820  0.00  0.00    +0.000 C 
ATOM     34  C   UNL     1     -11.552  20.206 -12.390  0.00  0.00    +0.000 C 
ATOM     35  C   UNL     1     -12.728  18.778 -13.602  0.00  0.00    +0.000 C 
ATOM     36  C   UNL     1     -10.546  18.141 -12.950  0.00  0.00    +0.000 C 
ENDBRANCH  29  30
ENDBRANCH  27  29
ENDBRANCH  19  26
ENDBRANCH   1  22
BRANCH   2  37
ATOM     37  C   UNL     1     -12.635  13.056  -4.746  0.00  0.00    +0.000 A 
ATOM     38  C   UNL     1     -11.411  13.551  -4.299  0.00  0.00    +0.000 A 
ATOM     39  C   UNL     1     -12.714  12.202  -5.845  0.00  0.00    +0.000 A 
ATOM     40  C   UNL     1     -10.248  13.189  -4.972  0.00  0.00    +0.000 A 
ATOM     41  C   UNL     1     -11.545  11.847  -6.511  0.00  0.00    +0.000 A 
ATOM     42  C   UNL     1     -10.315  12.339  -6.075  0.00  0.00    +0.000 A 
ENDBRANCH   2  37
TORSDOF 9
ENDMDL
