MODEL 1
REMARK VINA RESULT:      -7.3      0.000      0.000
REMARK  Name = 14132199_RiccardinD.pdbqt.pdb
REMARK  3 active torsions:
REMARK  status: ('A' for Active; 'I' for Inactive)
REMARK    1  A    between atoms: C_11  and  O_30
REMARK    2  A    between atoms: C_16  and  O_32
REMARK    3  A    between atoms: C_28  and  O_34
REMARK                            x       y       z     vdW  Elec       q    Type
REMARK                         _______ _______ _______ _____ _____    ______ ____
ROOT
ATOM      1  O   UNL     1     -13.859  12.380  -6.210  0.00  0.00    +0.000 OA
ATOM      2  C   UNL     1     -16.760   6.318  -4.423  0.00  0.00    +0.000 C 
ATOM      3  C   UNL     1     -17.348   5.354  -3.537  0.00  0.00    +0.000 A 
ATOM      4  C   UNL     1     -17.469   5.602  -2.145  0.00  0.00    +0.000 A 
ATOM      5  C   UNL     1     -16.134   7.462  -5.236  0.00  0.00    +0.000 C 
ATOM      6  C   UNL     1     -15.159  10.575  -0.881  0.00  0.00    +0.000 C 
ATOM      7  C   UNL     1     -16.876   6.813  -1.535  0.00  0.00    +0.000 A 
ATOM      8  C   UNL     1     -15.691   9.256  -0.788  0.00  0.00    +0.000 A 
ATOM      9  C   UNL     1     -14.582  11.855  -1.492  0.00  0.00    +0.000 C 
ATOM     10  C   UNL     1     -15.548   8.635  -5.799  0.00  0.00    +0.000 A 
ATOM     11  C   UNL     1     -17.634   7.843  -0.958  0.00  0.00    +0.000 A 
ATOM     12  C   UNL     1     -14.119  12.713  -2.525  0.00  0.00    +0.000 A 
ATOM     13  C   UNL     1     -15.489   7.000  -1.614  0.00  0.00    +0.000 A 
ATOM     14  C   UNL     1     -17.057   9.065  -0.606  0.00  0.00    +0.000 A 
ATOM     15  C   UNL     1     -14.900   8.209  -1.255  0.00  0.00    +0.000 A 
ATOM     16  C   UNL     1     -18.157   4.638  -1.384  0.00  0.00    +0.000 A 
ATOM     17  C   UNL     1     -17.846   4.180  -4.105  0.00  0.00    +0.000 A 
ATOM     18  C   UNL     1     -18.635   3.458  -1.953  0.00  0.00    +0.000 A 
ATOM     19  C   UNL     1     -18.472   3.225  -3.313  0.00  0.00    +0.000 A 
ATOM     20  C   UNL     1     -14.203  12.190  -3.811  0.00  0.00    +0.000 A 
ATOM     21  C   UNL     1     -14.159   8.761  -5.836  0.00  0.00    +0.000 A 
ATOM     22  C   UNL     1     -16.361   9.727  -6.106  0.00  0.00    +0.000 A 
ATOM     23  C   UNL     1     -13.779  12.900  -4.928  0.00  0.00    +0.000 A 
ATOM     24  C   UNL     1     -13.599  13.984  -2.331  0.00  0.00    +0.000 A 
ATOM     25  C   UNL     1     -14.404  11.111  -6.287  0.00  0.00    +0.000 A 
ATOM     26  C   UNL     1     -13.579  10.002  -6.093  0.00  0.00    +0.000 A 
ATOM     27  C   UNL     1     -15.790  10.971  -6.364  0.00  0.00    +0.000 A 
ATOM     28  C   UNL     1     -13.258  14.174  -4.732  0.00  0.00    +0.000 A 
ATOM     29  C   UNL     1     -13.167  14.715  -3.445  0.00  0.00    +0.000 A 
ENDROOT
BRANCH  11  30
ATOM     30  O   UNL     1     -18.975   7.655  -0.750  0.00  0.00    +0.000 OA
ATOM     31  H   UNL     1     -19.289   8.351  -0.142  0.00  0.00    +0.000 HD
ENDBRANCH  11  30
BRANCH  16  32
ATOM     32  O   UNL     1     -18.415   4.808  -0.049  0.00  0.00    +0.000 OA
ATOM     33  H   UNL     1     -19.244   4.329   0.140  0.00  0.00    +0.000 HD
ENDBRANCH  16  32
BRANCH  28  34
ATOM     34  O   UNL     1     -12.821  14.932  -5.781  0.00  0.00    +0.000 OA
ATOM     35  H   UNL     1     -13.598  15.387  -6.154  0.00  0.00    +0.000 HD
ENDBRANCH  28  34
TORSDOF 3
ENDMDL
MODEL 2
REMARK VINA RESULT:      -7.0     22.101     24.361
REMARK  Name = 14132199_RiccardinD.pdbqt.pdb
REMARK  3 active torsions:
REMARK  status: ('A' for Active; 'I' for Inactive)
REMARK    1  A    between atoms: C_11  and  O_30
REMARK    2  A    between atoms: C_16  and  O_32
REMARK    3  A    between atoms: C_28  and  O_34
REMARK                            x       y       z     vdW  Elec       q    Type
REMARK                         _______ _______ _______ _____ _____    ______ ____
ROOT
ATOM      1  O   UNL     1      -6.324  11.541  20.260  0.00  0.00    +0.000 OA
ATOM      2  C   UNL     1     -11.237   6.968  22.079  0.00  0.00    +0.000 C 
ATOM      3  C   UNL     1     -12.103   5.836  21.913  0.00  0.00    +0.000 A 
ATOM      4  C   UNL     1     -12.133   5.094  20.704  0.00  0.00    +0.000 A 
ATOM      5  C   UNL     1     -10.235   8.133  22.104  0.00  0.00    +0.000 C 
ATOM      6  C   UNL     1      -8.663   7.434  16.942  0.00  0.00    +0.000 C 
ATOM      7  C   UNL     1     -11.363   5.540  19.521  0.00  0.00    +0.000 A 
ATOM      8  C   UNL     1      -9.703   6.670  17.546  0.00  0.00    +0.000 A 
ATOM      9  C   UNL     1      -7.564   8.485  16.769  0.00  0.00    +0.000 C 
ATOM     10  C   UNL     1      -9.247   9.147  21.925  0.00  0.00    +0.000 A 
ATOM     11  C   UNL     1     -10.283   4.825  18.982  0.00  0.00    +0.000 A 
ATOM     12  C   UNL     1      -6.719   9.564  17.147  0.00  0.00    +0.000 A 
ATOM     13  C   UNL     1     -11.656   6.788  18.954  0.00  0.00    +0.000 A 
ATOM     14  C   UNL     1      -9.443   5.387  18.018  0.00  0.00    +0.000 A 
ATOM     15  C   UNL     1     -10.833   7.354  17.985  0.00  0.00    +0.000 A 
ATOM     16  C   UNL     1     -12.937   3.940  20.684  0.00  0.00    +0.000 A 
ATOM     17  C   UNL     1     -12.881   5.457  23.009  0.00  0.00    +0.000 A 
ATOM     18  C   UNL     1     -13.727   3.577  21.775  0.00  0.00    +0.000 A 
ATOM     19  C   UNL     1     -13.706   4.341  22.935  0.00  0.00    +0.000 A 
ATOM     20  C   UNL     1      -6.892  10.023  18.448  0.00  0.00    +0.000 A 
ATOM     21  C   UNL     1      -9.605  10.364  21.343  0.00  0.00    +0.000 A 
ATOM     22  C   UNL     1      -7.902   8.836  22.131  0.00  0.00    +0.000 A 
ATOM     23  C   UNL     1      -6.151  11.080  18.964  0.00  0.00    +0.000 A 
ATOM     24  C   UNL     1      -5.780  10.166  16.322  0.00  0.00    +0.000 A 
ATOM     25  C   UNL     1      -7.277  10.860  20.995  0.00  0.00    +0.000 A 
ATOM     26  C   UNL     1      -8.618  11.233  20.885  0.00  0.00    +0.000 A 
ATOM     27  C   UNL     1      -6.909   9.700  21.675  0.00  0.00    +0.000 A 
ATOM     28  C   UNL     1      -5.211  11.683  18.137  0.00  0.00    +0.000 A 
ATOM     29  C   UNL     1      -5.023  11.232  16.826  0.00  0.00    +0.000 A 
ENDROOT
BRANCH  11  30
ATOM     30  O   UNL     1     -10.035   3.551  19.422  0.00  0.00    +0.000 OA
ATOM     31  H   UNL     1     -10.066   2.952  18.651  0.00  0.00    +0.000 HD
ENDBRANCH  11  30
BRANCH  16  32
ATOM     32  O   UNL     1     -12.978   3.095  19.607  0.00  0.00    +0.000 OA
ATOM     33  H   UNL     1     -12.084   2.717  19.512  0.00  0.00    +0.000 HD
ENDBRANCH  16  32
BRANCH  28  34
ATOM     34  O   UNL     1      -4.445  12.727  18.574  0.00  0.00    +0.000 OA
ATOM     35  H   UNL     1      -3.823  12.373  19.236  0.00  0.00    +0.000 HD
ENDBRANCH  28  34
TORSDOF 3
ENDMDL
MODEL 3
REMARK VINA RESULT:      -6.8      3.627      9.178
REMARK  Name = 14132199_RiccardinD.pdbqt.pdb
REMARK  3 active torsions:
REMARK  status: ('A' for Active; 'I' for Inactive)
REMARK    1  A    between atoms: C_11  and  O_30
REMARK    2  A    between atoms: C_16  and  O_32
REMARK    3  A    between atoms: C_28  and  O_34
REMARK                            x       y       z     vdW  Elec       q    Type
REMARK                         _______ _______ _______ _____ _____    ______ ____
ROOT
ATOM      1  O   UNL     1     -19.213   0.456  -3.661  0.00  0.00    +0.000 OA
ATOM      2  C   UNL     1     -17.332   6.185  -0.195  0.00  0.00    +0.000 C 
ATOM      3  C   UNL     1     -16.679   7.448  -0.003  0.00  0.00    +0.000 A 
ATOM      4  C   UNL     1     -15.855   8.019  -1.007  0.00  0.00    +0.000 A 
ATOM      5  C   UNL     1     -17.979   4.841  -0.569  0.00  0.00    +0.000 C 
ATOM      6  C   UNL     1     -15.497   4.520  -5.401  0.00  0.00    +0.000 C 
ATOM      7  C   UNL     1     -15.535   7.269  -2.243  0.00  0.00    +0.000 A 
ATOM      8  C   UNL     1     -15.240   5.563  -4.464  0.00  0.00    +0.000 A 
ATOM      9  C   UNL     1     -16.081   3.241  -6.006  0.00  0.00    +0.000 C 
ATOM     10  C   UNL     1     -18.483   3.622  -1.113  0.00  0.00    +0.000 A 
ATOM     11  C   UNL     1     -15.965   7.657  -3.521  0.00  0.00    +0.000 A 
ATOM     12  C   UNL     1     -16.872   2.061  -6.048  0.00  0.00    +0.000 A 
ATOM     13  C   UNL     1     -14.845   6.053  -2.137  0.00  0.00    +0.000 A 
ATOM     14  C   UNL     1     -15.842   6.808  -4.622  0.00  0.00    +0.000 A 
ATOM     15  C   UNL     1     -14.705   5.203  -3.230  0.00  0.00    +0.000 A 
ATOM     16  C   UNL     1     -15.350   9.309  -0.760  0.00  0.00    +0.000 A 
ATOM     17  C   UNL     1     -16.927   8.123   1.194  0.00  0.00    +0.000 A 
ATOM     18  C   UNL     1     -15.585   9.971   0.445  0.00  0.00    +0.000 A 
ATOM     19  C   UNL     1     -16.367   9.373   1.426  0.00  0.00    +0.000 A 
ATOM     20  C   UNL     1     -17.637   1.820  -4.912  0.00  0.00    +0.000 A 
ATOM     21  C   UNL     1     -17.739   2.449  -0.981  0.00  0.00    +0.000 A 
ATOM     22  C   UNL     1     -19.599   3.656  -1.951  0.00  0.00    +0.000 A 
ATOM     23  C   UNL     1     -18.453   0.701  -4.793  0.00  0.00    +0.000 A 
ATOM     24  C   UNL     1     -16.914   1.169  -7.110  0.00  0.00    +0.000 A 
ATOM     25  C   UNL     1     -19.104   1.416  -2.672  0.00  0.00    +0.000 A 
ATOM     26  C   UNL     1     -18.054   1.334  -1.754  0.00  0.00    +0.000 A 
ATOM     27  C   UNL     1     -19.921   2.546  -2.728  0.00  0.00    +0.000 A 
ATOM     28  C   UNL     1     -18.494  -0.193  -5.857  0.00  0.00    +0.000 A 
ATOM     29  C   UNL     1     -17.732   0.037  -7.009  0.00  0.00    +0.000 A 
ENDROOT
BRANCH  11  30
ATOM     30  O   UNL     1     -16.536   8.891  -3.691  0.00  0.00    +0.000 OA
ATOM     31  H   UNL     1     -17.462   8.761  -3.974  0.00  0.00    +0.000 HD
ENDBRANCH  11  30
BRANCH  16  32
ATOM     32  O   UNL     1     -14.618   9.999  -1.690  0.00  0.00    +0.000 OA
ATOM     33  H   UNL     1     -15.116   9.954  -2.529  0.00  0.00    +0.000 HD
ENDBRANCH  16  32
BRANCH  28  34
ATOM     34  O   UNL     1     -19.273  -1.314  -5.814  0.00  0.00    +0.000 OA
ATOM     35  H   UNL     1     -19.167  -1.774  -6.667  0.00  0.00    +0.000 HD
ENDBRANCH  28  34
TORSDOF 3
ENDMDL
MODEL 4
REMARK VINA RESULT:      -6.7     14.409     16.674
REMARK  Name = 14132199_RiccardinD.pdbqt.pdb
REMARK  3 active torsions:
REMARK  status: ('A' for Active; 'I' for Inactive)
REMARK    1  A    between atoms: C_11  and  O_30
REMARK    2  A    between atoms: C_16  and  O_32
REMARK    3  A    between atoms: C_28  and  O_34
REMARK                            x       y       z     vdW  Elec       q    Type
REMARK                         _______ _______ _______ _____ _____    ______ ____
ROOT
ATOM      1  O   UNL     1     -26.028  20.587   8.151  0.00  0.00    +0.000 OA
ATOM      2  C   UNL     1     -24.460  13.982   6.639  0.00  0.00    +0.000 C 
ATOM      3  C   UNL     1     -23.878  12.689   6.855  0.00  0.00    +0.000 A 
ATOM      4  C   UNL     1     -23.091  12.410   8.002  0.00  0.00    +0.000 A 
ATOM      5  C   UNL     1     -25.032  15.408   6.572  0.00  0.00    +0.000 C 
ATOM      6  C   UNL     1     -22.552  17.061  11.124  0.00  0.00    +0.000 C 
ATOM      7  C   UNL     1     -22.734  13.484   8.956  0.00  0.00    +0.000 A 
ATOM      8  C   UNL     1     -22.351  15.769  10.556  0.00  0.00    +0.000 A 
ATOM      9  C   UNL     1     -23.065  18.493  11.298  0.00  0.00    +0.000 C 
ATOM     10  C   UNL     1     -25.468  16.759   6.707  0.00  0.00    +0.000 A 
ATOM     11  C   UNL     1     -23.189  13.528  10.282  0.00  0.00    +0.000 A 
ATOM     12  C   UNL     1     -23.789  19.669  10.962  0.00  0.00    +0.000 A 
ATOM     13  C   UNL     1     -21.976  14.571   8.499  0.00  0.00    +0.000 A 
ATOM     14  C   UNL     1     -23.022  14.667  11.074  0.00  0.00    +0.000 A 
ATOM     15  C   UNL     1     -21.792  15.706   9.282  0.00  0.00    +0.000 A 
ATOM     16  C   UNL     1     -22.659  11.082   8.171  0.00  0.00    +0.000 A 
ATOM     17  C   UNL     1     -24.160  11.693   5.917  0.00  0.00    +0.000 A 
ATOM     18  C   UNL     1     -22.927  10.096   7.221  0.00  0.00    +0.000 A 
ATOM     19  C   UNL     1     -23.670  10.405   6.089  0.00  0.00    +0.000 A 
ATOM     20  C   UNL     1     -24.535  19.591   9.791  0.00  0.00    +0.000 A 
ATOM     21  C   UNL     1     -24.659  17.795   6.239  0.00  0.00    +0.000 A 
ATOM     22  C   UNL     1     -26.587  17.042   7.492  0.00  0.00    +0.000 A 
ATOM     23  C   UNL     1     -25.287  20.661   9.320  0.00  0.00    +0.000 A 
ATOM     24  C   UNL     1     -23.784  20.844  11.699  0.00  0.00    +0.000 A 
ATOM     25  C   UNL     1     -25.969  19.366   7.505  0.00  0.00    +0.000 A 
ATOM     26  C   UNL     1     -24.914  19.108   6.628  0.00  0.00    +0.000 A 
ATOM     27  C   UNL     1     -26.849  18.352   7.886  0.00  0.00    +0.000 A 
ATOM     28  C   UNL     1     -25.281  21.838  10.059  0.00  0.00    +0.000 A 
ATOM     29  C   UNL     1     -24.537  21.932  11.241  0.00  0.00    +0.000 A 
ENDROOT
BRANCH  11  30
ATOM     30  O   UNL     1     -23.829  12.438  10.810  0.00  0.00    +0.000 OA
ATOM     31  H   UNL     1     -23.655  11.673  10.228  0.00  0.00    +0.000 HD
ENDBRANCH  11  30
BRANCH  16  32
ATOM     32  O   UNL     1     -21.970  10.672   9.282  0.00  0.00    +0.000 OA
ATOM     33  H   UNL     1     -22.310   9.787   9.514  0.00  0.00    +0.000 HD
ENDBRANCH  16  32
BRANCH  28  34
ATOM     34  O   UNL     1     -25.996  22.932   9.660  0.00  0.00    +0.000 OA
ATOM     35  H   UNL     1     -26.020  22.923   8.686  0.00  0.00    +0.000 HD
ENDBRANCH  28  34
TORSDOF 3
ENDMDL
MODEL 5
REMARK VINA RESULT:      -6.7     21.877     24.410
REMARK  Name = 14132199_RiccardinD.pdbqt.pdb
REMARK  3 active torsions:
REMARK  status: ('A' for Active; 'I' for Inactive)
REMARK    1  A    between atoms: C_11  and  O_30
REMARK    2  A    between atoms: C_16  and  O_32
REMARK    3  A    between atoms: C_28  and  O_34
REMARK                            x       y       z     vdW  Elec       q    Type
REMARK                         _______ _______ _______ _____ _____    ______ ____
ROOT
ATOM      1  O   UNL     1      -4.190   6.497  18.247  0.00  0.00    +0.000 OA
ATOM      2  C   UNL     1     -10.040   6.179  21.994  0.00  0.00    +0.000 C 
ATOM      3  C   UNL     1     -11.411   5.852  22.262  0.00  0.00    +0.000 A 
ATOM      4  C   UNL     1     -12.238   5.251  21.278  0.00  0.00    +0.000 A 
ATOM      5  C   UNL     1      -8.590   6.439  21.556  0.00  0.00    +0.000 C 
ATOM      6  C   UNL     1      -9.377   4.686  16.465  0.00  0.00    +0.000 C 
ATOM      7  C   UNL     1     -11.750   5.054  19.895  0.00  0.00    +0.000 A 
ATOM      8  C   UNL     1     -10.428   4.786  17.423  0.00  0.00    +0.000 A 
ATOM      9  C   UNL     1      -7.982   4.789  15.844  0.00  0.00    +0.000 C 
ATOM     10  C   UNL     1      -7.301   6.583  20.960  0.00  0.00    +0.000 A 
ATOM     11  C   UNL     1     -11.537   3.794  19.317  0.00  0.00    +0.000 A 
ATOM     12  C   UNL     1      -6.595   5.097  15.794  0.00  0.00    +0.000 A 
ATOM     13  C   UNL     1     -11.390   6.179  19.139  0.00  0.00    +0.000 A 
ATOM     14  C   UNL     1     -10.862   3.652  18.103  0.00  0.00    +0.000 A 
ATOM     15  C   UNL     1     -10.728   6.051  17.921  0.00  0.00    +0.000 A 
ATOM     16  C   UNL     1     -13.533   4.873  21.679  0.00  0.00    +0.000 A 
ATOM     17  C   UNL     1     -11.890   6.102  23.550  0.00  0.00    +0.000 A 
ATOM     18  C   UNL     1     -14.013   5.142  22.960  0.00  0.00    +0.000 A 
ATOM     19  C   UNL     1     -13.194   5.765  23.894  0.00  0.00    +0.000 A 
ATOM     20  C   UNL     1      -6.061   5.614  16.969  0.00  0.00    +0.000 A 
ATOM     21  C   UNL     1      -7.012   7.724  20.210  0.00  0.00    +0.000 A 
ATOM     22  C   UNL     1      -6.427   5.496  20.950  0.00  0.00    +0.000 A 
ATOM     23  C   UNL     1      -4.724   5.978  17.078  0.00  0.00    +0.000 A 
ATOM     24  C   UNL     1      -5.782   4.929  14.683  0.00  0.00    +0.000 A 
ATOM     25  C   UNL     1      -5.088   6.610  19.292  0.00  0.00    +0.000 A 
ATOM     26  C   UNL     1      -5.894   7.746  19.380  0.00  0.00    +0.000 A 
ATOM     27  C   UNL     1      -5.307   5.509  20.122  0.00  0.00    +0.000 A 
ATOM     28  C   UNL     1      -3.910   5.809  15.963  0.00  0.00    +0.000 A 
ATOM     29  C   UNL     1      -4.431   5.288  14.774  0.00  0.00    +0.000 A 
ENDROOT
BRANCH  11  30
ATOM     30  O   UNL     1     -11.984   2.673  19.967  0.00  0.00    +0.000 OA
ATOM     31  H   UNL     1     -11.882   1.912  19.363  0.00  0.00    +0.000 HD
ENDBRANCH  11  30
BRANCH  16  32
ATOM     32  O   UNL     1     -14.390   4.204  20.846  0.00  0.00    +0.000 OA
ATOM     33  H   UNL     1     -14.201   3.253  20.953  0.00  0.00    +0.000 HD
ENDBRANCH  16  32
BRANCH  28  34
ATOM     34  O   UNL     1      -2.585   6.143  15.994  0.00  0.00    +0.000 OA
ATOM     35  H   UNL     1      -2.307   6.307  15.075  0.00  0.00    +0.000 HD
ENDBRANCH  28  34
TORSDOF 3
ENDMDL
MODEL 6
REMARK VINA RESULT:      -6.6     22.246     23.824
REMARK  Name = 14132199_RiccardinD.pdbqt.pdb
REMARK  3 active torsions:
REMARK  status: ('A' for Active; 'I' for Inactive)
REMARK    1  A    between atoms: C_11  and  O_30
REMARK    2  A    between atoms: C_16  and  O_32
REMARK    3  A    between atoms: C_28  and  O_34
REMARK                            x       y       z     vdW  Elec       q    Type
REMARK                         _______ _______ _______ _____ _____    ______ ____
ROOT
ATOM      1  O   UNL     1      -4.462   8.441  18.204  0.00  0.00    +0.000 OA
ATOM      2  C   UNL     1     -10.704   5.976  20.024  0.00  0.00    +0.000 C 
ATOM      3  C   UNL     1     -11.762   5.010  20.104  0.00  0.00    +0.000 A 
ATOM      4  C   UNL     1     -11.665   3.747  19.463  0.00  0.00    +0.000 A 
ATOM      5  C   UNL     1      -9.475   6.884  19.864  0.00  0.00    +0.000 C 
ATOM      6  C   UNL     1      -6.834   3.428  16.594  0.00  0.00    +0.000 C 
ATOM      7  C   UNL     1     -10.520   3.431  18.580  0.00  0.00    +0.000 A 
ATOM      8  C   UNL     1      -8.160   3.195  17.061  0.00  0.00    +0.000 A 
ATOM      9  C   UNL     1      -5.492   4.127  16.363  0.00  0.00    +0.000 C 
ATOM     10  C   UNL     1      -8.244   7.558  19.605  0.00  0.00    +0.000 A 
ATOM     11  C   UNL     1      -9.564   2.446  18.870  0.00  0.00    +0.000 A 
ATOM     12  C   UNL     1      -4.524   5.163  16.471  0.00  0.00    +0.000 A 
ATOM     13  C   UNL     1     -10.313   4.212  17.434  0.00  0.00    +0.000 A 
ATOM     14  C   UNL     1      -8.381   2.338  18.135  0.00  0.00    +0.000 A 
ATOM     15  C   UNL     1      -9.145   4.105  16.686  0.00  0.00    +0.000 A 
ATOM     16  C   UNL     1     -12.710   2.834  19.694  0.00  0.00    +0.000 A 
ATOM     17  C   UNL     1     -12.874   5.338  20.883  0.00  0.00    +0.000 A 
ATOM     18  C   UNL     1     -13.827   3.173  20.457  0.00  0.00    +0.000 A 
ATOM     19  C   UNL     1     -13.913   4.430  21.044  0.00  0.00    +0.000 A 
ATOM     20  C   UNL     1      -4.908   6.253  17.244  0.00  0.00    +0.000 A 
ATOM     21  C   UNL     1      -8.102   8.311  18.438  0.00  0.00    +0.000 A 
ATOM     22  C   UNL     1      -7.133   7.284  20.403  0.00  0.00    +0.000 A 
ATOM     23  C   UNL     1      -4.080   7.352  17.437  0.00  0.00    +0.000 A 
ATOM     24  C   UNL     1      -3.277   5.152  15.865  0.00  0.00    +0.000 A 
ATOM     25  C   UNL     1      -5.720   8.339  18.769  0.00  0.00    +0.000 A 
ATOM     26  C   UNL     1      -6.836   8.715  18.020  0.00  0.00    +0.000 A 
ATOM     27  C   UNL     1      -5.863   7.685  19.993  0.00  0.00    +0.000 A 
ATOM     28  C   UNL     1      -2.830   7.341  16.829  0.00  0.00    +0.000 A 
ATOM     29  C   UNL     1      -2.427   6.251  16.049  0.00  0.00    +0.000 A 
ENDROOT
BRANCH  11  30
ATOM     30  O   UNL     1      -9.785   1.581  19.909  0.00  0.00    +0.000 OA
ATOM     31  H   UNL     1      -9.343   1.940  20.702  0.00  0.00    +0.000 HD
ENDBRANCH  11  30
BRANCH  16  32
ATOM     32  O   UNL     1     -12.685   1.555  19.204  0.00  0.00    +0.000 OA
ATOM     33  H   UNL     1     -13.015   0.974  19.916  0.00  0.00    +0.000 HD
ENDBRANCH  16  32
BRANCH  28  34
ATOM     34  O   UNL     1      -1.960   8.385  16.972  0.00  0.00    +0.000 OA
ATOM     35  H   UNL     1      -1.183   8.194  16.417  0.00  0.00    +0.000 HD
ENDBRANCH  28  34
TORSDOF 3
ENDMDL
MODEL 7
REMARK VINA RESULT:      -6.3     21.614     23.555
REMARK  Name = 14132199_RiccardinD.pdbqt.pdb
REMARK  3 active torsions:
REMARK  status: ('A' for Active; 'I' for Inactive)
REMARK    1  A    between atoms: C_11  and  O_30
REMARK    2  A    between atoms: C_16  and  O_32
REMARK    3  A    between atoms: C_28  and  O_34
REMARK                            x       y       z     vdW  Elec       q    Type
REMARK                         _______ _______ _______ _____ _____    ______ ____
ROOT
ATOM      1  O   UNL     1       1.485   6.436  14.509  0.00  0.00    +0.000 OA
ATOM      2  C   UNL     1      -5.308   5.182  15.312  0.00  0.00    +0.000 C 
ATOM      3  C   UNL     1      -6.647   5.441  15.759  0.00  0.00    +0.000 A 
ATOM      4  C   UNL     1      -6.960   6.577  16.549  0.00  0.00    +0.000 A 
ATOM      5  C   UNL     1      -3.833   5.066  14.894  0.00  0.00    +0.000 C 
ATOM      6  C   UNL     1      -2.267   9.469  17.682  0.00  0.00    +0.000 C 
ATOM      7  C   UNL     1      -5.892   7.471  17.049  0.00  0.00    +0.000 A 
ATOM      8  C   UNL     1      -3.596   8.955  17.726  0.00  0.00    +0.000 A 
ATOM      9  C   UNL     1      -0.783   9.592  17.331  0.00  0.00    +0.000 C 
ATOM     10  C   UNL     1      -2.438   5.152  14.610  0.00  0.00    +0.000 A 
ATOM     11  C   UNL     1      -5.743   8.806  16.644  0.00  0.00    +0.000 A 
ATOM     12  C   UNL     1       0.450   9.223  16.727  0.00  0.00    +0.000 A 
ATOM     13  C   UNL     1      -4.914   6.944  17.903  0.00  0.00    +0.000 A 
ATOM     14  C   UNL     1      -4.597   9.540  16.957  0.00  0.00    +0.000 A 
ATOM     15  C   UNL     1      -3.773   7.670  18.233  0.00  0.00    +0.000 A 
ATOM     16  C   UNL     1      -8.319   6.794  16.841  0.00  0.00    +0.000 A 
ATOM     17  C   UNL     1      -7.644   4.557  15.342  0.00  0.00    +0.000 A 
ATOM     18  C   UNL     1      -9.309   5.898  16.439  0.00  0.00    +0.000 A 
ATOM     19  C   UNL     1      -8.970   4.773  15.697  0.00  0.00    +0.000 A 
ATOM     20  C   UNL     1       0.404   8.077  15.939  0.00  0.00    +0.000 A 
ATOM     21  C   UNL     1      -1.516   4.615  15.510  0.00  0.00    +0.000 A 
ATOM     22  C   UNL     1      -2.003   5.954  13.554  0.00  0.00    +0.000 A 
ATOM     23  C   UNL     1       1.528   7.578  15.291  0.00  0.00    +0.000 A 
ATOM     24  C   UNL     1       1.647   9.905  16.881  0.00  0.00    +0.000 A 
ATOM     25  C   UNL     1       0.239   5.844  14.416  0.00  0.00    +0.000 A 
ATOM     26  C   UNL     1      -0.168   4.951  15.409  0.00  0.00    +0.000 A 
ATOM     27  C   UNL     1      -0.656   6.295  13.446  0.00  0.00    +0.000 A 
ATOM     28  C   UNL     1       2.728   8.263  15.447  0.00  0.00    +0.000 A 
ATOM     29  C   UNL     1       2.791   9.419  16.234  0.00  0.00    +0.000 A 
ENDROOT
BRANCH  11  30
ATOM     30  O   UNL     1      -6.735   9.400  15.908  0.00  0.00    +0.000 OA
ATOM     31  H   UNL     1      -7.402   9.753  16.527  0.00  0.00    +0.000 HD
ENDBRANCH  11  30
BRANCH  16  32
ATOM     32  O   UNL     1      -8.754   7.903  17.518  0.00  0.00    +0.000 OA
ATOM     33  H   UNL     1      -9.657   7.706  17.832  0.00  0.00    +0.000 HD
ENDBRANCH  16  32
BRANCH  28  34
ATOM     34  O   UNL     1       3.875   7.834  14.841  0.00  0.00    +0.000 OA
ATOM     35  H   UNL     1       4.451   8.612  14.727  0.00  0.00    +0.000 HD
ENDBRANCH  28  34
TORSDOF 3
ENDMDL
MODEL 8
REMARK VINA RESULT:      -6.2     23.242     26.465
REMARK  Name = 14132199_RiccardinD.pdbqt.pdb
REMARK  3 active torsions:
REMARK  status: ('A' for Active; 'I' for Inactive)
REMARK    1  A    between atoms: C_11  and  O_30
REMARK    2  A    between atoms: C_16  and  O_32
REMARK    3  A    between atoms: C_28  and  O_34
REMARK                            x       y       z     vdW  Elec       q    Type
REMARK                         _______ _______ _______ _____ _____    ______ ____
ROOT
ATOM      1  O   UNL     1     -10.767   5.416  19.960  0.00  0.00    +0.000 OA
ATOM      2  C   UNL     1      -8.516  10.785  23.764  0.00  0.00    +0.000 C 
ATOM      3  C   UNL     1      -7.851  12.033  24.009  0.00  0.00    +0.000 A 
ATOM      4  C   UNL     1      -7.156  12.720  22.980  0.00  0.00    +0.000 A 
ATOM      5  C   UNL     1      -9.196   9.477  23.329  0.00  0.00    +0.000 C 
ATOM      6  C   UNL     1      -7.308   9.705  18.231  0.00  0.00    +0.000 C 
ATOM      7  C   UNL     1      -6.983  12.109  21.644  0.00  0.00    +0.000 A 
ATOM      8  C   UNL     1      -6.946  10.650  19.235  0.00  0.00    +0.000 A 
ATOM      9  C   UNL     1      -7.953   8.486  17.568  0.00  0.00    +0.000 C 
ATOM     10  C   UNL     1      -9.754   8.312  22.723  0.00  0.00    +0.000 A 
ATOM     11  C   UNL     1      -7.565  12.621  20.474  0.00  0.00    +0.000 A 
ATOM     12  C   UNL     1      -8.737   7.302  17.495  0.00  0.00    +0.000 A 
ATOM     13  C   UNL     1      -6.278  10.902  21.538  0.00  0.00    +0.000 A 
ATOM     14  C   UNL     1      -7.570  11.892  19.282  0.00  0.00    +0.000 A 
ATOM     15  C   UNL     1      -6.265  10.172  20.352  0.00  0.00    +0.000 A 
ATOM     16  C   UNL     1      -6.633  13.986  23.301  0.00  0.00    +0.000 A 
ATOM     17  C   UNL     1      -7.959  12.576  25.292  0.00  0.00    +0.000 A 
ATOM     18  C   UNL     1      -6.726  14.515  24.588  0.00  0.00    +0.000 A 
ATOM     19  C   UNL     1      -7.381  13.805  25.587  0.00  0.00    +0.000 A 
ATOM     20  C   UNL     1      -9.359   6.930  18.682  0.00  0.00    +0.000 A 
ATOM     21  C   UNL     1      -8.993   7.145  22.641  0.00  0.00    +0.000 A 
ATOM     22  C   UNL     1     -10.962   8.413  22.032  0.00  0.00    +0.000 A 
ATOM     23  C   UNL     1     -10.149   5.791  18.778  0.00  0.00    +0.000 A 
ATOM     24  C   UNL     1      -8.900   6.525  16.358  0.00  0.00    +0.000 A 
ATOM     25  C   UNL     1     -10.545   6.270  21.025  0.00  0.00    +0.000 A 
ATOM     26  C   UNL     1      -9.393   6.111  21.798  0.00  0.00    +0.000 A 
ATOM     27  C   UNL     1     -11.369   7.383  21.186  0.00  0.00    +0.000 A 
ATOM     28  C   UNL     1     -10.312   5.012  17.637  0.00  0.00    +0.000 A 
ATOM     29  C   UNL     1      -9.694   5.374  16.435  0.00  0.00    +0.000 A 
ENDROOT
BRANCH  11  30
ATOM     30  O   UNL     1      -8.159  13.855  20.503  0.00  0.00    +0.000 OA
ATOM     31  H   UNL     1      -9.123  13.726  20.594  0.00  0.00    +0.000 HD
ENDBRANCH  11  30
BRANCH  16  32
ATOM     32  O   UNL     1      -6.021  14.782  22.369  0.00  0.00    +0.000 OA
ATOM     33  H   UNL     1      -6.158  15.706  22.654  0.00  0.00    +0.000 HD
ENDBRANCH  16  32
BRANCH  28  34
ATOM     34  O   UNL     1     -11.074   3.878  17.654  0.00  0.00    +0.000 OA
ATOM     35  H   UNL     1     -11.369   3.714  16.740  0.00  0.00    +0.000 HD
ENDBRANCH  28  34
TORSDOF 3
ENDMDL
MODEL 9
REMARK VINA RESULT:      -6.1     12.426     15.950
REMARK  Name = 14132199_RiccardinD.pdbqt.pdb
REMARK  3 active torsions:
REMARK  status: ('A' for Active; 'I' for Inactive)
REMARK    1  A    between atoms: C_11  and  O_30
REMARK    2  A    between atoms: C_16  and  O_32
REMARK    3  A    between atoms: C_28  and  O_34
REMARK                            x       y       z     vdW  Elec       q    Type
REMARK                         _______ _______ _______ _____ _____    ______ ____
ROOT
ATOM      1  O   UNL     1     -24.452  13.345   8.029  0.00  0.00    +0.000 OA
ATOM      2  C   UNL     1     -23.076  17.429   2.571  0.00  0.00    +0.000 C 
ATOM      3  C   UNL     1     -22.563  18.584   1.892  0.00  0.00    +0.000 A 
ATOM      4  C   UNL     1     -21.962  19.657   2.600  0.00  0.00    +0.000 A 
ATOM      5  C   UNL     1     -23.550  16.255   3.444  0.00  0.00    +0.000 C 
ATOM      6  C   UNL     1     -22.209  18.666   8.134  0.00  0.00    +0.000 C 
ATOM      7  C   UNL     1     -21.959  19.681   4.080  0.00  0.00    +0.000 A 
ATOM      8  C   UNL     1     -22.089  19.310   6.868  0.00  0.00    +0.000 A 
ATOM      9  C   UNL     1     -22.537  17.597   9.179  0.00  0.00    +0.000 C 
ATOM     10  C   UNL     1     -23.904  15.280   4.423  0.00  0.00    +0.000 A 
ATOM     11  C   UNL     1     -20.795  19.589   4.856  0.00  0.00    +0.000 A 
ATOM     12  C   UNL     1     -23.014  16.348   9.663  0.00  0.00    +0.000 A 
ATOM     13  C   UNL     1     -23.186  19.704   4.759  0.00  0.00    +0.000 A 
ATOM     14  C   UNL     1     -20.852  19.383   6.236  0.00  0.00    +0.000 A 
ATOM     15  C   UNL     1     -23.255  19.511   6.135  0.00  0.00    +0.000 A 
ATOM     16  C   UNL     1     -21.395  20.690   1.831  0.00  0.00    +0.000 A 
ATOM     17  C   UNL     1     -22.628  18.590   0.496  0.00  0.00    +0.000 A 
ATOM     18  C   UNL     1     -21.481  20.701   0.439  0.00  0.00    +0.000 A 
ATOM     19  C   UNL     1     -22.106  19.654  -0.228  0.00  0.00    +0.000 A 
ATOM     20  C   UNL     1     -23.477  15.473   8.687  0.00  0.00    +0.000 A 
ATOM     21  C   UNL     1     -25.138  15.368   5.069  0.00  0.00    +0.000 A 
ATOM     22  C   UNL     1     -22.935  14.384   4.877  0.00  0.00    +0.000 A 
ATOM     23  C   UNL     1     -23.987  14.218   9.000  0.00  0.00    +0.000 A 
ATOM     24  C   UNL     1     -23.051  15.974  10.998  0.00  0.00    +0.000 A 
ATOM     25  C   UNL     1     -24.356  13.817   6.732  0.00  0.00    +0.000 A 
ATOM     26  C   UNL     1     -25.373  14.625   6.223  0.00  0.00    +0.000 A 
ATOM     27  C   UNL     1     -23.163  13.638   6.031  0.00  0.00    +0.000 A 
ATOM     28  C   UNL     1     -24.024  13.844  10.338  0.00  0.00    +0.000 A 
ATOM     29  C   UNL     1     -23.560  14.713  11.332  0.00  0.00    +0.000 A 
ENDROOT
BRANCH  11  30
ATOM     30  O   UNL     1     -19.572  19.685   4.247  0.00  0.00    +0.000 OA
ATOM     31  H   UNL     1     -19.591  20.454   3.645  0.00  0.00    +0.000 HD
ENDBRANCH  11  30
BRANCH  16  32
ATOM     32  O   UNL     1     -20.711  21.732   2.398  0.00  0.00    +0.000 OA
ATOM     33  H   UNL     1     -20.956  21.749   3.342  0.00  0.00    +0.000 HD
ENDBRANCH  16  32
BRANCH  28  34
ATOM     34  O   UNL     1     -24.510  12.627  10.723  0.00  0.00    +0.000 OA
ATOM     35  H   UNL     1     -25.336  12.475  10.228  0.00  0.00    +0.000 HD
ENDBRANCH  28  34
TORSDOF 3
ENDMDL
