MODEL 1
REMARK VINA RESULT:      -4.2      0.000      0.000
REMARK  Name = 146026348_FluorouracilMononitrate.pdbqt.pdb
REMARK  2 active torsions:
REMARK  status: ('A' for Active; 'I' for Inactive)
REMARK    1  A    between atoms: N_4  and  O_10
REMARK    2  A    between atoms: O_10  and  N_13
REMARK                            x       y       z     vdW  Elec       q    Type
REMARK                         _______ _______ _______ _____ _____    ______ ____
ROOT
ATOM      1  F   UNL     1      -9.949   1.524  -0.549  0.00  0.00    +0.000 F 
ATOM      2  O   UNL     1      -7.992   1.911   1.408  0.00  0.00    +0.000 OA
ATOM      3  O   UNL     1     -11.134   0.439   4.543  0.00  0.00    +0.000 OA
ATOM      4  N   UNL     1      -9.578   1.335   3.029  0.00  0.00    +0.000 N 
ATOM      5  N   UNL     1     -10.202   1.412   0.764  0.00  0.00    +0.000 N 
ATOM      6  C   UNL     1      -9.142   1.597   1.700  0.00  0.00    +0.000 A 
ATOM      7  C   UNL     1     -10.810   0.812   3.428  0.00  0.00    +0.000 A 
ATOM      8  C   UNL     1     -11.702   0.704   2.297  0.00  0.00    +0.000 A 
ATOM      9  C   UNL     1     -11.406   0.970   1.172  0.00  0.00    +0.000 A 
ENDROOT
BRANCH   4  10
ATOM     10  O   UNL     1      -8.581   1.399   4.019  0.00  0.00    +0.000 OA
BRANCH  10  13
ATOM     11  O   UNL     1      -8.151  -0.796   3.788  0.00  0.00    +0.000 OA
ATOM     12  O   UNL     1      -6.499   0.659   4.178  0.00  0.00    +0.000 OA
ATOM     13  N   UNL     1      -7.665   0.319   3.995  0.00  0.00    +0.000 N 
ENDBRANCH  10  13
ENDBRANCH   4  10
TORSDOF 2
ENDMDL
MODEL 2
REMARK VINA RESULT:      -4.2     26.191     27.023
REMARK  Name = 146026348_FluorouracilMononitrate.pdbqt.pdb
REMARK  2 active torsions:
REMARK  status: ('A' for Active; 'I' for Inactive)
REMARK    1  A    between atoms: N_4  and  O_10
REMARK    2  A    between atoms: O_10  and  N_13
REMARK                            x       y       z     vdW  Elec       q    Type
REMARK                         _______ _______ _______ _____ _____    ______ ____
ROOT
ATOM      1  F   UNL     1     -11.530  17.585  20.286  0.00  0.00    +0.000 F 
ATOM      2  O   UNL     1     -13.401  19.600  19.785  0.00  0.00    +0.000 OA
ATOM      3  O   UNL     1     -14.710  19.204  24.258  0.00  0.00    +0.000 OA
ATOM      4  N   UNL     1     -14.197  19.325  21.969  0.00  0.00    +0.000 N 
ATOM      5  N   UNL     1     -12.459  17.953  21.181  0.00  0.00    +0.000 N 
ATOM      6  C   UNL     1     -13.361  19.010  20.862  0.00  0.00    +0.000 A 
ATOM      7  C   UNL     1     -14.103  18.826  23.269  0.00  0.00    +0.000 A 
ATOM      8  C   UNL     1     -13.109  17.780  23.337  0.00  0.00    +0.000 A 
ATOM      9  C   UNL     1     -12.424  17.434  22.423  0.00  0.00    +0.000 A 
ENDROOT
BRANCH   4  10
ATOM     10  O   UNL     1     -15.061  20.420  21.786  0.00  0.00    +0.000 OA
BRANCH  10  13
ATOM     11  O   UNL     1     -17.218  20.298  22.411  0.00  0.00    +0.000 OA
ATOM     12  O   UNL     1     -16.567  19.572  20.398  0.00  0.00    +0.000 OA
ATOM     13  N   UNL     1     -16.405  20.063  21.513  0.00  0.00    +0.000 N 
ENDBRANCH  10  13
ENDBRANCH   4  10
TORSDOF 2
ENDMDL
MODEL 3
REMARK VINA RESULT:      -3.7     27.124     27.990
REMARK  Name = 146026348_FluorouracilMononitrate.pdbqt.pdb
REMARK  2 active torsions:
REMARK  status: ('A' for Active; 'I' for Inactive)
REMARK    1  A    between atoms: N_4  and  O_10
REMARK    2  A    between atoms: O_10  and  N_13
REMARK                            x       y       z     vdW  Elec       q    Type
REMARK                         _______ _______ _______ _____ _____    ______ ____
ROOT
ATOM      1  F   UNL     1     -12.921  21.936  24.241  0.00  0.00    +0.000 F 
ATOM      2  O   UNL     1     -15.187  20.360  23.803  0.00  0.00    +0.000 OA
ATOM      3  O   UNL     1     -13.285  19.135  19.710  0.00  0.00    +0.000 OA
ATOM      4  N   UNL     1     -14.350  19.846  21.679  0.00  0.00    +0.000 N 
ATOM      5  N   UNL     1     -13.160  21.314  23.077  0.00  0.00    +0.000 N 
ATOM      6  C   UNL     1     -14.325  20.504  22.941  0.00  0.00    +0.000 A 
ATOM      7  C   UNL     1     -13.337  19.819  20.719  0.00  0.00    +0.000 A 
ATOM      8  C   UNL     1     -12.261  20.707  21.095  0.00  0.00    +0.000 A 
ATOM      9  C   UNL     1     -12.220  21.330  22.112  0.00  0.00    +0.000 A 
ENDROOT
BRANCH   4  10
ATOM     10  O   UNL     1     -15.415  18.948  21.483  0.00  0.00    +0.000 OA
BRANCH  10  13
ATOM     11  O   UNL     1     -17.655  18.982  21.285  0.00  0.00    +0.000 OA
ATOM     12  O   UNL     1     -16.398  20.567  20.332  0.00  0.00    +0.000 OA
ATOM     13  N   UNL     1     -16.600  19.548  20.988  0.00  0.00    +0.000 N 
ENDBRANCH  10  13
ENDBRANCH   4  10
TORSDOF 2
ENDMDL
MODEL 4
REMARK VINA RESULT:      -3.6      1.769      3.054
REMARK  Name = 146026348_FluorouracilMononitrate.pdbqt.pdb
REMARK  2 active torsions:
REMARK  status: ('A' for Active; 'I' for Inactive)
REMARK    1  A    between atoms: N_4  and  O_10
REMARK    2  A    between atoms: O_10  and  N_13
REMARK                            x       y       z     vdW  Elec       q    Type
REMARK                         _______ _______ _______ _____ _____    ______ ____
ROOT
ATOM      1  F   UNL     1     -12.014  -0.014  -0.959  0.00  0.00    +0.000 F 
ATOM      2  O   UNL     1     -12.106   0.995   1.645  0.00  0.00    +0.000 OA
ATOM      3  O   UNL     1      -7.456   1.440   1.411  0.00  0.00    +0.000 OA
ATOM      4  N   UNL     1      -9.767   1.084   1.633  0.00  0.00    +0.000 N 
ATOM      5  N   UNL     1     -10.911   0.241  -0.239  0.00  0.00    +0.000 N 
ATOM      6  C   UNL     1     -11.040   0.783   1.073  0.00  0.00    +0.000 A 
ATOM      7  C   UNL     1      -8.528   1.036   0.992  0.00  0.00    +0.000 A 
ATOM      8  C   UNL     1      -8.666   0.466  -0.328  0.00  0.00    +0.000 A 
ATOM      9  C   UNL     1      -9.702   0.138  -0.822  0.00  0.00    +0.000 A 
ENDROOT
BRANCH   4  10
ATOM     10  O   UNL     1      -9.790   1.711   2.892  0.00  0.00    +0.000 OA
BRANCH  10  13
ATOM     11  O   UNL     1      -8.595   0.391   4.266  0.00  0.00    +0.000 OA
ATOM     12  O   UNL     1     -10.807   0.603   4.519  0.00  0.00    +0.000 OA
ATOM     13  N   UNL     1      -9.720   0.818   3.990  0.00  0.00    +0.000 N 
ENDBRANCH  10  13
ENDBRANCH   4  10
TORSDOF 2
ENDMDL
MODEL 5
REMARK VINA RESULT:      -3.4     15.352     16.222
REMARK  Name = 146026348_FluorouracilMononitrate.pdbqt.pdb
REMARK  2 active torsions:
REMARK  status: ('A' for Active; 'I' for Inactive)
REMARK    1  A    between atoms: N_4  and  O_10
REMARK    2  A    between atoms: O_10  and  N_13
REMARK                            x       y       z     vdW  Elec       q    Type
REMARK                         _______ _______ _______ _____ _____    ______ ____
ROOT
ATOM      1  F   UNL     1      -4.846  18.800   0.251  0.00  0.00    +0.000 F 
ATOM      2  O   UNL     1      -4.891  17.711   2.824  0.00  0.00    +0.000 OA
ATOM      3  O   UNL     1      -3.347  13.721   0.934  0.00  0.00    +0.000 OA
ATOM      4  N   UNL     1      -4.274  15.650   1.902  0.00  0.00    +0.000 N 
ATOM      5  N   UNL     1      -4.623  17.500   0.494  0.00  0.00    +0.000 N 
ATOM      6  C   UNL     1      -4.634  17.025   1.838  0.00  0.00    +0.000 A 
ATOM      7  C   UNL     1      -3.805  14.850   0.859  0.00  0.00    +0.000 A 
ATOM      8  C   UNL     1      -3.877  15.562  -0.396  0.00  0.00    +0.000 A 
ATOM      9  C   UNL     1      -4.232  16.696  -0.513  0.00  0.00    +0.000 A 
ENDROOT
BRANCH   4  10
ATOM     10  O   UNL     1      -4.165  15.110   3.196  0.00  0.00    +0.000 OA
BRANCH  10  13
ATOM     11  O   UNL     1      -2.136  16.021   3.531  0.00  0.00    +0.000 OA
ATOM     12  O   UNL     1      -2.575  13.930   4.190  0.00  0.00    +0.000 OA
ATOM     13  N   UNL     1      -2.836  15.016   3.678  0.00  0.00    +0.000 N 
ENDBRANCH  10  13
ENDBRANCH   4  10
TORSDOF 2
ENDMDL
MODEL 6
REMARK VINA RESULT:      -3.3     19.799     20.767
REMARK  Name = 146026348_FluorouracilMononitrate.pdbqt.pdb
REMARK  2 active torsions:
REMARK  status: ('A' for Active; 'I' for Inactive)
REMARK    1  A    between atoms: N_4  and  O_10
REMARK    2  A    between atoms: O_10  and  N_13
REMARK                            x       y       z     vdW  Elec       q    Type
REMARK                         _______ _______ _______ _____ _____    ______ ____
ROOT
ATOM      1  F   UNL     1     -24.516  18.225   7.410  0.00  0.00    +0.000 F 
ATOM      2  O   UNL     1     -25.108  15.525   7.818  0.00  0.00    +0.000 OA
ATOM      3  O   UNL     1     -20.874  15.106   9.760  0.00  0.00    +0.000 OA
ATOM      4  N   UNL     1     -22.941  15.232   8.650  0.00  0.00    +0.000 N 
ATOM      5  N   UNL     1     -23.611  17.342   7.862  0.00  0.00    +0.000 N 
ATOM      6  C   UNL     1     -23.999  15.987   8.071  0.00  0.00    +0.000 A 
ATOM      7  C   UNL     1     -21.719  15.714   9.124  0.00  0.00    +0.000 A 
ATOM      8  C   UNL     1     -21.572  17.115   8.804  0.00  0.00    +0.000 A 
ATOM      9  C   UNL     1     -22.403  17.779   8.264  0.00  0.00    +0.000 A 
ENDROOT
BRANCH   4  10
ATOM     10  O   UNL     1     -23.254  13.902   8.982  0.00  0.00    +0.000 OA
BRANCH  10  13
ATOM     11  O   UNL     1     -21.976  12.058   8.818  0.00  0.00    +0.000 OA
ATOM     12  O   UNL     1     -22.724  13.100   6.986  0.00  0.00    +0.000 OA
ATOM     13  N   UNL     1     -22.587  12.931   8.195  0.00  0.00    +0.000 N 
ENDBRANCH  10  13
ENDBRANCH   4  10
TORSDOF 2
ENDMDL
MODEL 7
REMARK VINA RESULT:      -3.2     25.468     26.213
REMARK  Name = 146026348_FluorouracilMononitrate.pdbqt.pdb
REMARK  2 active torsions:
REMARK  status: ('A' for Active; 'I' for Inactive)
REMARK    1  A    between atoms: N_4  and  O_10
REMARK    2  A    between atoms: O_10  and  N_13
REMARK                            x       y       z     vdW  Elec       q    Type
REMARK                         _______ _______ _______ _____ _____    ______ ____
ROOT
ATOM      1  F   UNL     1     -10.033  18.002  19.288  0.00  0.00    +0.000 F 
ATOM      2  O   UNL     1     -12.110  19.798  18.767  0.00  0.00    +0.000 OA
ATOM      3  O   UNL     1     -13.983  18.487  22.848  0.00  0.00    +0.000 OA
ATOM      4  N   UNL     1     -13.165  19.057  20.721  0.00  0.00    +0.000 N 
ATOM      5  N   UNL     1     -11.132  18.085  20.054  0.00  0.00    +0.000 N 
ATOM      6  C   UNL     1     -12.135  19.048  19.739  0.00  0.00    +0.000 A 
ATOM      7  C   UNL     1     -13.184  18.366  21.934  0.00  0.00    +0.000 A 
ATOM      8  C   UNL     1     -12.055  17.469  22.021  0.00  0.00    +0.000 A 
ATOM      9  C   UNL     1     -11.197  17.376  21.197  0.00  0.00    +0.000 A 
ENDROOT
BRANCH   4  10
ATOM     10  O   UNL     1     -14.157  20.039  20.551  0.00  0.00    +0.000 OA
BRANCH  10  13
ATOM     11  O   UNL     1     -13.182  21.518  21.936  0.00  0.00    +0.000 OA
ATOM     12  O   UNL     1     -13.961  22.161  19.941  0.00  0.00    +0.000 OA
ATOM     13  N   UNL     1     -13.729  21.358  20.842  0.00  0.00    +0.000 N 
ENDBRANCH  10  13
ENDBRANCH   4  10
TORSDOF 2
ENDMDL
MODEL 8
REMARK VINA RESULT:      -3.2     31.252     32.483
REMARK  Name = 146026348_FluorouracilMononitrate.pdbqt.pdb
REMARK  2 active torsions:
REMARK  status: ('A' for Active; 'I' for Inactive)
REMARK    1  A    between atoms: N_4  and  O_10
REMARK    2  A    between atoms: O_10  and  N_13
REMARK                            x       y       z     vdW  Elec       q    Type
REMARK                         _______ _______ _______ _____ _____    ______ ____
ROOT
ATOM      1  F   UNL     1     -23.971  11.429  30.737  0.00  0.00    +0.000 F 
ATOM      2  O   UNL     1     -23.046  12.038  28.171  0.00  0.00    +0.000 OA
ATOM      3  O   UNL     1     -26.403  15.288  27.962  0.00  0.00    +0.000 OA
ATOM      4  N   UNL     1     -24.809  13.563  27.959  0.00  0.00    +0.000 N 
ATOM      5  N   UNL     1     -24.607  12.281  29.918  0.00  0.00    +0.000 N 
ATOM      6  C   UNL     1     -24.056  12.562  28.634  0.00  0.00    +0.000 A 
ATOM      7  C   UNL     1     -25.857  14.326  28.476  0.00  0.00    +0.000 A 
ATOM      8  C   UNL     1     -26.219  13.857  29.793  0.00  0.00    +0.000 A 
ATOM      9  C   UNL     1     -25.661  12.980  30.379  0.00  0.00    +0.000 A 
ENDROOT
BRANCH   4  10
ATOM     10  O   UNL     1     -24.292  13.979  26.718  0.00  0.00    +0.000 OA
BRANCH  10  13
ATOM     11  O   UNL     1     -25.534  14.378  24.886  0.00  0.00    +0.000 OA
ATOM     12  O   UNL     1     -25.023  12.286  25.489  0.00  0.00    +0.000 OA
ATOM     13  N   UNL     1     -25.019  13.510  25.596  0.00  0.00    +0.000 N 
ENDBRANCH  10  13
ENDBRANCH   4  10
TORSDOF 2
ENDMDL
MODEL 9
REMARK VINA RESULT:      -3.1     10.458     11.443
REMARK  Name = 146026348_FluorouracilMononitrate.pdbqt.pdb
REMARK  2 active torsions:
REMARK  status: ('A' for Active; 'I' for Inactive)
REMARK    1  A    between atoms: N_4  and  O_10
REMARK    2  A    between atoms: O_10  and  N_13
REMARK                            x       y       z     vdW  Elec       q    Type
REMARK                         _______ _______ _______ _____ _____    ______ ____
ROOT
ATOM      1  F   UNL     1      -2.910  -3.029  13.722  0.00  0.00    +0.000 F 
ATOM      2  O   UNL     1      -3.966  -3.814  11.257  0.00  0.00    +0.000 OA
ATOM      3  O   UNL     1      -7.674  -1.135  12.231  0.00  0.00    +0.000 OA
ATOM      4  N   UNL     1      -5.910  -2.616  11.771  0.00  0.00    +0.000 N 
ATOM      5  N   UNL     1      -4.155  -2.717  13.332  0.00  0.00    +0.000 N 
ATOM      6  C   UNL     1      -4.611  -3.129  12.046  0.00  0.00    +0.000 A 
ATOM      7  C   UNL     1      -6.635  -1.698  12.533  0.00  0.00    +0.000 A 
ATOM      8  C   UNL     1      -5.956  -1.429  13.779  0.00  0.00    +0.000 A 
ATOM      9  C   UNL     1      -4.896  -1.883  14.087  0.00  0.00    +0.000 A 
ENDROOT
BRANCH   4  10
ATOM     10  O   UNL     1      -6.412  -2.890  10.487  0.00  0.00    +0.000 OA
BRANCH  10  13
ATOM     11  O   UNL     1      -8.553  -3.572  10.397  0.00  0.00    +0.000 OA
ATOM     12  O   UNL     1      -6.881  -5.056  10.458  0.00  0.00    +0.000 OA
ATOM     13  N   UNL     1      -7.374  -3.930  10.446  0.00  0.00    +0.000 N 
ENDBRANCH  10  13
ENDBRANCH   4  10
TORSDOF 2
ENDMDL
