MODEL 1
REMARK VINA RESULT:      -6.9      0.000      0.000
REMARK  Name = 179268_Nortopsentin.pdbqt.pdb
REMARK  2 active torsions:
REMARK  status: ('A' for Active; 'I' for Inactive)
REMARK    1  A    between atoms: C_3  and  C_9
REMARK    2  A    between atoms: C_4  and  C_20
REMARK                            x       y       z     vdW  Elec       q    Type
REMARK                         _______ _______ _______ _____ _____    ______ ____
ROOT
ATOM      1  N   UNL     1     -22.222  15.130   7.891  0.00  0.00    +0.000 N 
ATOM      2  N   UNL     1     -23.913  16.262   8.759  0.00  0.00    +0.000 NA
ATOM      3  C   UNL     1     -23.151  14.193   8.252  0.00  0.00    +0.000 A 
ATOM      4  C   UNL     1     -22.719  16.367   8.213  0.00  0.00    +0.000 A 
ATOM      5  C   UNL     1     -24.192  14.917   8.788  0.00  0.00    +0.000 A 
ATOM      6  H   UNL     1     -21.326  14.956   7.463  0.00  0.00    +0.000 HD
ENDROOT
BRANCH   3   9
ATOM      7 BR   UNL     1     -24.913   8.325   4.365  0.00  0.00    +0.000 Br
ATOM      8  N   UNL     1     -22.465  10.629   8.523  0.00  0.00    +0.000 N 
ATOM      9  C   UNL     1     -23.048  12.728   8.096  0.00  0.00    +0.000 A 
ATOM     10  C   UNL     1     -23.607  11.899   7.082  0.00  0.00    +0.000 A 
ATOM     11  C   UNL     1     -23.224  10.587   7.377  0.00  0.00    +0.000 A 
ATOM     12  C   UNL     1     -22.354  11.918   8.964  0.00  0.00    +0.000 A 
ATOM     13  C   UNL     1     -24.400  12.126   5.941  0.00  0.00    +0.000 A 
ATOM     14  C   UNL     1     -23.595   9.490   6.590  0.00  0.00    +0.000 A 
ATOM     15  C   UNL     1     -24.781  11.048   5.142  0.00  0.00    +0.000 A 
ATOM     16  C   UNL     1     -24.380   9.758   5.469  0.00  0.00    +0.000 A 
ATOM     17  H   UNL     1     -22.050   9.826   8.976  0.00  0.00    +0.000 HD
ENDBRANCH   3   9
BRANCH   4  20
ATOM     18 BR   UNL     1     -19.878  20.889   3.315  0.00  0.00    +0.000 Br
ATOM     19  N   UNL     1     -20.988  19.577   8.379  0.00  0.00    +0.000 N 
ATOM     20  C   UNL     1     -22.005  17.647   7.976  0.00  0.00    +0.000 A 
ATOM     21  C   UNL     1     -21.605  18.204   6.729  0.00  0.00    +0.000 A 
ATOM     22  C   UNL     1     -20.969  19.415   7.013  0.00  0.00    +0.000 A 
ATOM     23  C   UNL     1     -21.613  18.513   8.971  0.00  0.00    +0.000 A 
ATOM     24  C   UNL     1     -21.719  17.800   5.384  0.00  0.00    +0.000 A 
ATOM     25  C   UNL     1     -20.440  20.247   6.021  0.00  0.00    +0.000 A 
ATOM     26  C   UNL     1     -21.196  18.615   4.378  0.00  0.00    +0.000 A 
ATOM     27  C   UNL     1     -20.572  19.813   4.701  0.00  0.00    +0.000 A 
ATOM     28  H   UNL     1     -20.597  20.369   8.872  0.00  0.00    +0.000 HD
ENDBRANCH   4  20
TORSDOF 2
ENDMDL
MODEL 2
REMARK VINA RESULT:      -6.7     17.679     19.874
REMARK  Name = 179268_Nortopsentin.pdbqt.pdb
REMARK  2 active torsions:
REMARK  status: ('A' for Active; 'I' for Inactive)
REMARK    1  A    between atoms: C_3  and  C_9
REMARK    2  A    between atoms: C_4  and  C_20
REMARK                            x       y       z     vdW  Elec       q    Type
REMARK                         _______ _______ _______ _____ _____    ______ ____
ROOT
ATOM      1  N   UNL     1     -14.868   4.286  21.066  0.00  0.00    +0.000 N 
ATOM      2  N   UNL     1     -14.500   5.183  23.054  0.00  0.00    +0.000 NA
ATOM      3  C   UNL     1     -13.512   4.431  21.164  0.00  0.00    +0.000 A 
ATOM      4  C   UNL     1     -15.430   4.752  22.228  0.00  0.00    +0.000 A 
ATOM      5  C   UNL     1     -13.306   4.989  22.405  0.00  0.00    +0.000 A 
ATOM      6  H   UNL     1     -15.379   3.906  20.284  0.00  0.00    +0.000 HD
ENDROOT
BRANCH   3   9
ATOM      7 BR   UNL     1      -8.550   6.707  16.384  0.00  0.00    +0.000 Br
ATOM      8  N   UNL     1     -11.233   2.792  18.847  0.00  0.00    +0.000 N 
ATOM      9  C   UNL     1     -12.501   4.064  20.152  0.00  0.00    +0.000 A 
ATOM     10  C   UNL     1     -11.670   4.920  19.373  0.00  0.00    +0.000 A 
ATOM     11  C   UNL     1     -10.885   4.093  18.563  0.00  0.00    +0.000 A 
ATOM     12  C   UNL     1     -12.207   2.766  19.805  0.00  0.00    +0.000 A 
ATOM     13  C   UNL     1     -11.501   6.314  19.270  0.00  0.00    +0.000 A 
ATOM     14  C   UNL     1      -9.941   4.588  17.656  0.00  0.00    +0.000 A 
ATOM     15  C   UNL     1     -10.565   6.830  18.373  0.00  0.00    +0.000 A 
ATOM     16  C   UNL     1      -9.804   5.974  17.586  0.00  0.00    +0.000 A 
ATOM     17  H   UNL     1     -10.828   1.974  18.412  0.00  0.00    +0.000 HD
ENDBRANCH   3   9
BRANCH   4  20
ATOM     18 BR   UNL     1     -22.126   4.533  19.465  0.00  0.00    +0.000 Br
ATOM     19  N   UNL     1     -18.796   4.833  23.639  0.00  0.00    +0.000 N 
ATOM     20  C   UNL     1     -16.888   4.765  22.509  0.00  0.00    +0.000 A 
ATOM     21  C   UNL     1     -17.957   4.697  21.573  0.00  0.00    +0.000 A 
ATOM     22  C   UNL     1     -19.143   4.741  22.310  0.00  0.00    +0.000 A 
ATOM     23  C   UNL     1     -17.434   4.849  23.770  0.00  0.00    +0.000 A 
ATOM     24  C   UNL     1     -18.038   4.600  20.170  0.00  0.00    +0.000 A 
ATOM     25  C   UNL     1     -20.409   4.695  21.718  0.00  0.00    +0.000 A 
ATOM     26  C   UNL     1     -19.292   4.553  19.558  0.00  0.00    +0.000 A 
ATOM     27  C   UNL     1     -20.448   4.600  20.326  0.00  0.00    +0.000 A 
ATOM     28  H   UNL     1     -19.454   4.882  24.405  0.00  0.00    +0.000 HD
ENDBRANCH   4  20
TORSDOF 2
ENDMDL
MODEL 3
REMARK VINA RESULT:      -6.4     13.055     14.154
REMARK  Name = 179268_Nortopsentin.pdbqt.pdb
REMARK  2 active torsions:
REMARK  status: ('A' for Active; 'I' for Inactive)
REMARK    1  A    between atoms: C_3  and  C_9
REMARK    2  A    between atoms: C_4  and  C_20
REMARK                            x       y       z     vdW  Elec       q    Type
REMARK                         _______ _______ _______ _____ _____    ______ ____
ROOT
ATOM      1  N   UNL     1     -14.178  12.346  -2.867  0.00  0.00    +0.000 N 
ATOM      2  N   UNL     1     -13.664  14.088  -1.605  0.00  0.00    +0.000 NA
ATOM      3  C   UNL     1     -14.423  11.957  -1.579  0.00  0.00    +0.000 A 
ATOM      4  C   UNL     1     -13.721  13.639  -2.842  0.00  0.00    +0.000 A 
ATOM      5  C   UNL     1     -14.097  13.053  -0.813  0.00  0.00    +0.000 A 
ATOM      6  H   UNL     1     -14.307  11.790  -3.699  0.00  0.00    +0.000 HD
ENDROOT
BRANCH   3   9
ATOM      7 BR   UNL     1     -15.924   5.065  -3.277  0.00  0.00    +0.000 Br
ATOM      8  N   UNL     1     -15.749   9.094   0.234  0.00  0.00    +0.000 N 
ATOM      9  C   UNL     1     -14.926  10.646  -1.123  0.00  0.00    +0.000 A 
ATOM     10  C   UNL     1     -15.065   9.439  -1.865  0.00  0.00    +0.000 A 
ATOM     11  C   UNL     1     -15.584   8.482  -0.987  0.00  0.00    +0.000 A 
ATOM     12  C   UNL     1     -15.354  10.400   0.161  0.00  0.00    +0.000 A 
ATOM     13  C   UNL     1     -14.803   9.056  -3.195  0.00  0.00    +0.000 A 
ATOM     14  C   UNL     1     -15.855   7.163  -1.370  0.00  0.00    +0.000 A 
ATOM     15  C   UNL     1     -15.066   7.746  -3.599  0.00  0.00    +0.000 A 
ATOM     16  C   UNL     1     -15.582   6.825  -2.696  0.00  0.00    +0.000 A 
ATOM     17  H   UNL     1     -16.110   8.645   1.065  0.00  0.00    +0.000 HD
ENDBRANCH   3   9
BRANCH   4  20
ATOM     18 BR   UNL     1      -8.475  15.377  -7.528  0.00  0.00    +0.000 Br
ATOM     19  N   UNL     1     -13.513  15.790  -5.784  0.00  0.00    +0.000 N 
ATOM     20  C   UNL     1     -13.345  14.420  -4.046  0.00  0.00    +0.000 A 
ATOM     21  C   UNL     1     -12.078  14.472  -4.691  0.00  0.00    +0.000 A 
ATOM     22  C   UNL     1     -12.212  15.340  -5.778  0.00  0.00    +0.000 A 
ATOM     23  C   UNL     1     -14.206  15.240  -4.740  0.00  0.00    +0.000 A 
ATOM     24  C   UNL     1     -10.826  13.868  -4.461  0.00  0.00    +0.000 A 
ATOM     25  C   UNL     1     -11.160  15.636  -6.650  0.00  0.00    +0.000 A 
ATOM     26  C   UNL     1      -9.761  14.151  -5.319  0.00  0.00    +0.000 A 
ATOM     27  C   UNL     1      -9.936  15.019  -6.389  0.00  0.00    +0.000 A 
ATOM     28  H   UNL     1     -13.897  16.434  -6.462  0.00  0.00    +0.000 HD
ENDBRANCH   4  20
TORSDOF 2
ENDMDL
MODEL 4
REMARK VINA RESULT:      -6.2     18.446     20.751
REMARK  Name = 179268_Nortopsentin.pdbqt.pdb
REMARK  2 active torsions:
REMARK  status: ('A' for Active; 'I' for Inactive)
REMARK    1  A    between atoms: C_3  and  C_9
REMARK    2  A    between atoms: C_4  and  C_20
REMARK                            x       y       z     vdW  Elec       q    Type
REMARK                         _______ _______ _______ _____ _____    ______ ____
ROOT
ATOM      1  N   UNL     1     -14.841   4.247  20.825  0.00  0.00    +0.000 N 
ATOM      2  N   UNL     1     -14.556   5.105  22.844  0.00  0.00    +0.000 NA
ATOM      3  C   UNL     1     -13.489   4.322  21.009  0.00  0.00    +0.000 A 
ATOM      4  C   UNL     1     -15.452   4.729  21.955  0.00  0.00    +0.000 A 
ATOM      5  C   UNL     1     -13.334   4.858  22.268  0.00  0.00    +0.000 A 
ATOM      6  H   UNL     1     -15.321   3.900  20.008  0.00  0.00    +0.000 HD
ENDROOT
BRANCH   3   9
ATOM      7 BR   UNL     1      -8.393   6.402  16.281  0.00  0.00    +0.000 Br
ATOM      8  N   UNL     1     -11.100   2.592  18.878  0.00  0.00    +0.000 N 
ATOM      9  C   UNL     1     -12.435   3.915  20.058  0.00  0.00    +0.000 A 
ATOM     10  C   UNL     1     -11.591   4.738  19.259  0.00  0.00    +0.000 A 
ATOM     11  C   UNL     1     -10.763   3.879  18.529  0.00  0.00    +0.000 A 
ATOM     12  C   UNL     1     -12.108   2.604  19.800  0.00  0.00    +0.000 A 
ATOM     13  C   UNL     1     -11.441   6.127  19.078  0.00  0.00    +0.000 A 
ATOM     14  C   UNL     1      -9.794   4.337  17.628  0.00  0.00    +0.000 A 
ATOM     15  C   UNL     1     -10.482   6.606  18.186  0.00  0.00    +0.000 A 
ATOM     16  C   UNL     1      -9.679   5.719  17.479  0.00  0.00    +0.000 A 
ATOM     17  H   UNL     1     -10.666   1.757  18.508  0.00  0.00    +0.000 HD
ENDBRANCH   3   9
BRANCH   4  20
ATOM     18 BR   UNL     1     -20.990   4.200  26.598  0.00  0.00    +0.000 Br
ATOM     19  N   UNL     1     -19.074   5.094  21.687  0.00  0.00    +0.000 N 
ATOM     20  C   UNL     1     -16.922   4.813  22.145  0.00  0.00    +0.000 A 
ATOM     21  C   UNL     1     -17.658   4.616  23.347  0.00  0.00    +0.000 A 
ATOM     22  C   UNL     1     -19.007   4.799  23.029  0.00  0.00    +0.000 A 
ATOM     23  C   UNL     1     -17.819   5.105  21.143  0.00  0.00    +0.000 A 
ATOM     24  C   UNL     1     -17.315   4.302  24.676  0.00  0.00    +0.000 A 
ATOM     25  C   UNL     1     -20.032   4.684  23.972  0.00  0.00    +0.000 A 
ATOM     26  C   UNL     1     -18.324   4.181  25.633  0.00  0.00    +0.000 A 
ATOM     27  C   UNL     1     -19.653   4.370  25.278  0.00  0.00    +0.000 A 
ATOM     28  H   UNL     1     -19.929   5.276  21.179  0.00  0.00    +0.000 HD
ENDBRANCH   4  20
TORSDOF 2
ENDMDL
MODEL 5
REMARK VINA RESULT:      -6.2     17.502     19.194
REMARK  Name = 179268_Nortopsentin.pdbqt.pdb
REMARK  2 active torsions:
REMARK  status: ('A' for Active; 'I' for Inactive)
REMARK    1  A    between atoms: C_3  and  C_9
REMARK    2  A    between atoms: C_4  and  C_20
REMARK                            x       y       z     vdW  Elec       q    Type
REMARK                         _______ _______ _______ _____ _____    ______ ____
ROOT
ATOM      1  N   UNL     1     -10.153  16.702  19.967  0.00  0.00    +0.000 N 
ATOM      2  N   UNL     1      -8.288  17.888  19.884  0.00  0.00    +0.000 NA
ATOM      3  C   UNL     1     -10.193  17.534  21.051  0.00  0.00    +0.000 A 
ATOM      4  C   UNL     1      -8.987  16.945  19.287  0.00  0.00    +0.000 A 
ATOM      5  C   UNL     1      -9.026  18.261  20.981  0.00  0.00    +0.000 A 
ATOM      6  H   UNL     1     -10.851  16.023  19.702  0.00  0.00    +0.000 HD
ENDROOT
BRANCH   3   9
ATOM      7 BR   UNL     1     -16.925  19.707  22.667  0.00  0.00    +0.000 Br
ATOM      8  N   UNL     1     -12.299  17.390  24.016  0.00  0.00    +0.000 N 
ATOM      9  C   UNL     1     -11.260  17.624  22.068  0.00  0.00    +0.000 A 
ATOM     10  C   UNL     1     -12.562  18.189  21.946  0.00  0.00    +0.000 A 
ATOM     11  C   UNL     1     -13.190  18.028  23.185  0.00  0.00    +0.000 A 
ATOM     12  C   UNL     1     -11.132  17.142  23.350  0.00  0.00    +0.000 A 
ATOM     13  C   UNL     1     -13.275  18.824  20.910  0.00  0.00    +0.000 A 
ATOM     14  C   UNL     1     -14.494  18.468  23.441  0.00  0.00    +0.000 A 
ATOM     15  C   UNL     1     -14.576  19.270  21.143  0.00  0.00    +0.000 A 
ATOM     16  C   UNL     1     -15.165  19.090  22.389  0.00  0.00    +0.000 A 
ATOM     17  H   UNL     1     -12.479  17.140  24.979  0.00  0.00    +0.000 HD
ENDBRANCH   3   9
BRANCH   4  20
ATOM     18 BR   UNL     1      -6.139  10.936  16.408  0.00  0.00    +0.000 Br
ATOM     19  N   UNL     1      -8.217  15.837  15.895  0.00  0.00    +0.000 N 
ATOM     20  C   UNL     1      -8.575  16.240  18.047  0.00  0.00    +0.000 A 
ATOM     21  C   UNL     1      -8.003  14.943  17.931  0.00  0.00    +0.000 A 
ATOM     22  C   UNL     1      -7.789  14.716  16.569  0.00  0.00    +0.000 A 
ATOM     23  C   UNL     1      -8.694  16.765  16.780  0.00  0.00    +0.000 A 
ATOM     24  C   UNL     1      -7.646  13.935  18.847  0.00  0.00    +0.000 A 
ATOM     25  C   UNL     1      -7.234  13.532  16.073  0.00  0.00    +0.000 A 
ATOM     26  C   UNL     1      -7.089  12.745  18.374  0.00  0.00    +0.000 A 
ATOM     27  C   UNL     1      -6.892  12.557  17.012  0.00  0.00    +0.000 A 
ATOM     28  H   UNL     1      -8.183  15.954  14.891  0.00  0.00    +0.000 HD
ENDBRANCH   4  20
TORSDOF 2
ENDMDL
MODEL 6
REMARK VINA RESULT:      -6.1     17.496     20.004
REMARK  Name = 179268_Nortopsentin.pdbqt.pdb
REMARK  2 active torsions:
REMARK  status: ('A' for Active; 'I' for Inactive)
REMARK    1  A    between atoms: C_3  and  C_9
REMARK    2  A    between atoms: C_4  and  C_20
REMARK                            x       y       z     vdW  Elec       q    Type
REMARK                         _______ _______ _______ _____ _____    ______ ____
ROOT
ATOM      1  N   UNL     1      -3.635  16.376   3.189  0.00  0.00    +0.000 N 
ATOM      2  N   UNL     1      -2.131  14.799   2.809  0.00  0.00    +0.000 NA
ATOM      3  C   UNL     1      -4.072  15.704   2.081  0.00  0.00    +0.000 A 
ATOM      4  C   UNL     1      -2.459  15.799   3.599  0.00  0.00    +0.000 A 
ATOM      5  C   UNL     1      -3.124  14.730   1.862  0.00  0.00    +0.000 A 
ATOM      6  H   UNL     1      -4.086  17.159   3.636  0.00  0.00    +0.000 HD
ENDROOT
BRANCH   3   9
ATOM      7 BR   UNL     1      -8.372  20.664  -1.011  0.00  0.00    +0.000 Br
ATOM      8  N   UNL     1      -7.166  15.590   0.169  0.00  0.00    +0.000 N 
ATOM      9  C   UNL     1      -5.295  15.975   1.298  0.00  0.00    +0.000 A 
ATOM     10  C   UNL     1      -5.817  17.228   0.867  0.00  0.00    +0.000 A 
ATOM     11  C   UNL     1      -6.992  16.954   0.161  0.00  0.00    +0.000 A 
ATOM     12  C   UNL     1      -6.146  14.991   0.853  0.00  0.00    +0.000 A 
ATOM     13  C   UNL     1      -5.414  18.571   1.004  0.00  0.00    +0.000 A 
ATOM     14  C   UNL     1      -7.785  17.953  -0.416  0.00  0.00    +0.000 A 
ATOM     15  C   UNL     1      -6.189  19.583   0.436  0.00  0.00    +0.000 A 
ATOM     16  C   UNL     1      -7.350  19.269  -0.258  0.00  0.00    +0.000 A 
ATOM     17  H   UNL     1      -7.935  15.099  -0.268  0.00  0.00    +0.000 HD
ENDBRANCH   3   9
BRANCH   4  20
ATOM     18 BR   UNL     1      -2.585  17.776  10.569  0.00  0.00    +0.000 Br
ATOM     19  N   UNL     1       0.066  16.844   6.020  0.00  0.00    +0.000 N 
ATOM     20  C   UNL     1      -1.670  16.246   4.775  0.00  0.00    +0.000 A 
ATOM     21  C   UNL     1      -2.147  16.553   6.079  0.00  0.00    +0.000 A 
ATOM     22  C   UNL     1      -1.036  16.925   6.840  0.00  0.00    +0.000 A 
ATOM     23  C   UNL     1      -0.307  16.434   4.768  0.00  0.00    +0.000 A 
ATOM     24  C   UNL     1      -3.415  16.552   6.693  0.00  0.00    +0.000 A 
ATOM     25  C   UNL     1      -1.124  17.297   8.184  0.00  0.00    +0.000 A 
ATOM     26  C   UNL     1      -3.526  16.921   8.035  0.00  0.00    +0.000 A 
ATOM     27  C   UNL     1      -2.397  17.284   8.757  0.00  0.00    +0.000 A 
ATOM     28  H   UNL     1       1.013  17.056   6.304  0.00  0.00    +0.000 HD
ENDBRANCH   4  20
TORSDOF 2
ENDMDL
MODEL 7
REMARK VINA RESULT:      -6.0     12.310     16.689
REMARK  Name = 179268_Nortopsentin.pdbqt.pdb
REMARK  2 active torsions:
REMARK  status: ('A' for Active; 'I' for Inactive)
REMARK    1  A    between atoms: C_3  and  C_9
REMARK    2  A    between atoms: C_4  and  C_20
REMARK                            x       y       z     vdW  Elec       q    Type
REMARK                         _______ _______ _______ _____ _____    ______ ____
ROOT
ATOM      1  N   UNL     1     -16.295   5.046  -1.047  0.00  0.00    +0.000 N 
ATOM      2  N   UNL     1     -17.648   4.736  -2.770  0.00  0.00    +0.000 NA
ATOM      3  C   UNL     1     -16.814   6.277  -1.339  0.00  0.00    +0.000 A 
ATOM      4  C   UNL     1     -16.823   4.141  -1.934  0.00  0.00    +0.000 A 
ATOM      5  C   UNL     1     -17.650   6.062  -2.411  0.00  0.00    +0.000 A 
ATOM      6  H   UNL     1     -15.640   4.826  -0.313  0.00  0.00    +0.000 HD
ENDROOT
BRANCH   3   9
ATOM      7 BR   UNL     1     -13.968  12.939  -1.735  0.00  0.00    +0.000 Br
ATOM      8  N   UNL     1     -16.466   9.065   0.974  0.00  0.00    +0.000 N 
ATOM      9  C   UNL     1     -16.531   7.551  -0.648  0.00  0.00    +0.000 A 
ATOM     10  C   UNL     1     -15.885   8.714  -1.155  0.00  0.00    +0.000 A 
ATOM     11  C   UNL     1     -15.859   9.648  -0.114  0.00  0.00    +0.000 A 
ATOM     12  C   UNL     1     -16.875   7.799   0.660  0.00  0.00    +0.000 A 
ATOM     13  C   UNL     1     -15.317   9.074  -2.393  0.00  0.00    +0.000 A 
ATOM     14  C   UNL     1     -15.295  10.922  -0.247  0.00  0.00    +0.000 A 
ATOM     15  C   UNL     1     -14.750  10.339  -2.548  0.00  0.00    +0.000 A 
ATOM     16  C   UNL     1     -14.744  11.239  -1.489  0.00  0.00    +0.000 A 
ATOM     17  H   UNL     1     -16.594   9.506   1.874  0.00  0.00    +0.000 HD
ENDBRANCH   3   9
BRANCH   4  20
ATOM     18 BR   UNL     1     -19.298  -2.601  -0.974  0.00  0.00    +0.000 Br
ATOM     19  N   UNL     1     -15.349   0.808  -2.146  0.00  0.00    +0.000 N 
ATOM     20  C   UNL     1     -16.504   2.691  -1.944  0.00  0.00    +0.000 A 
ATOM     21  C   UNL     1     -17.380   1.604  -1.667  0.00  0.00    +0.000 A 
ATOM     22  C   UNL     1     -16.628   0.435  -1.801  0.00  0.00    +0.000 A 
ATOM     23  C   UNL     1     -15.264   2.171  -2.234  0.00  0.00    +0.000 A 
ATOM     24  C   UNL     1     -18.740   1.496  -1.316  0.00  0.00    +0.000 A 
ATOM     25  C   UNL     1     -17.164  -0.841  -1.603  0.00  0.00    +0.000 A 
ATOM     26  C   UNL     1     -19.295   0.231  -1.112  0.00  0.00    +0.000 A 
ATOM     27  C   UNL     1     -18.514  -0.908  -1.256  0.00  0.00    +0.000 A 
ATOM     28  H   UNL     1     -14.585   0.166  -2.309  0.00  0.00    +0.000 HD
ENDBRANCH   4  20
TORSDOF 2
ENDMDL
MODEL 8
REMARK VINA RESULT:      -5.9     19.668     22.529
REMARK  Name = 179268_Nortopsentin.pdbqt.pdb
REMARK  2 active torsions:
REMARK  status: ('A' for Active; 'I' for Inactive)
REMARK    1  A    between atoms: C_3  and  C_9
REMARK    2  A    between atoms: C_4  and  C_20
REMARK                            x       y       z     vdW  Elec       q    Type
REMARK                         _______ _______ _______ _____ _____    ______ ____
ROOT
ATOM      1  N   UNL     1      -7.845   0.313   2.549  0.00  0.00    +0.000 N 
ATOM      2  N   UNL     1      -9.149   0.983   4.206  0.00  0.00    +0.000 NA
ATOM      3  C   UNL     1      -7.007   0.586   3.595  0.00  0.00    +0.000 A 
ATOM      4  C   UNL     1      -9.130   0.566   2.958  0.00  0.00    +0.000 A 
ATOM      5  C   UNL     1      -7.836   1.000   4.612  0.00  0.00    +0.000 A 
ATOM      6  H   UNL     1      -7.580  -0.016   1.633  0.00  0.00    +0.000 HD
ENDROOT
BRANCH   3   9
ATOM      7 BR   UNL     1      -0.598   3.583   1.986  0.00  0.00    +0.000 Br
ATOM      8  N   UNL     1      -3.531  -0.419   3.980  0.00  0.00    +0.000 N 
ATOM      9  C   UNL     1      -5.536   0.460   3.614  0.00  0.00    +0.000 A 
ATOM     10  C   UNL     1      -4.557   1.383   3.146  0.00  0.00    +0.000 A 
ATOM     11  C   UNL     1      -3.307   0.803   3.389  0.00  0.00    +0.000 A 
ATOM     12  C   UNL     1      -4.873  -0.634   4.120  0.00  0.00    +0.000 A 
ATOM     13  C   UNL     1      -4.600   2.653   2.540  0.00  0.00    +0.000 A 
ATOM     14  C   UNL     1      -2.100   1.428   3.057  0.00  0.00    +0.000 A 
ATOM     15  C   UNL     1      -3.409   3.295   2.200  0.00  0.00    +0.000 A 
ATOM     16  C   UNL     1      -2.187   2.685   2.458  0.00  0.00    +0.000 A 
ATOM     17  H   UNL     1      -2.809  -1.065   4.269  0.00  0.00    +0.000 HD
ENDBRANCH   3   9
BRANCH   4  20
ATOM     18 BR   UNL     1     -14.961  -3.478   1.485  0.00  0.00    +0.000 Br
ATOM     19  N   UNL     1     -11.850   0.766   0.530  0.00  0.00    +0.000 N 
ATOM     20  C   UNL     1     -10.333   0.389   2.105  0.00  0.00    +0.000 A 
ATOM     21  C   UNL     1     -11.301  -0.651   2.168  0.00  0.00    +0.000 A 
ATOM     22  C   UNL     1     -12.241  -0.389   1.168  0.00  0.00    +0.000 A 
ATOM     23  C   UNL     1     -10.696   1.244   1.090  0.00  0.00    +0.000 A 
ATOM     24  C   UNL     1     -11.475  -1.792   2.975  0.00  0.00    +0.000 A 
ATOM     25  C   UNL     1     -13.349  -1.209   0.932  0.00  0.00    +0.000 A 
ATOM     26  C   UNL     1     -12.574  -2.625   2.756  0.00  0.00    +0.000 A 
ATOM     27  C   UNL     1     -13.487  -2.330   1.752  0.00  0.00    +0.000 A 
ATOM     28  H   UNL     1     -12.345   1.196  -0.239  0.00  0.00    +0.000 HD
ENDBRANCH   4  20
TORSDOF 2
ENDMDL
MODEL 9
REMARK VINA RESULT:      -5.9     12.924     16.786
REMARK  Name = 179268_Nortopsentin.pdbqt.pdb
REMARK  2 active torsions:
REMARK  status: ('A' for Active; 'I' for Inactive)
REMARK    1  A    between atoms: C_3  and  C_9
REMARK    2  A    between atoms: C_4  and  C_20
REMARK                            x       y       z     vdW  Elec       q    Type
REMARK                         _______ _______ _______ _____ _____    ______ ____
ROOT
ATOM      1  N   UNL     1     -16.275   5.094  -1.102  0.00  0.00    +0.000 N 
ATOM      2  N   UNL     1     -17.437   4.837  -2.967  0.00  0.00    +0.000 NA
ATOM      3  C   UNL     1     -16.706   6.345  -1.447  0.00  0.00    +0.000 A 
ATOM      4  C   UNL     1     -16.737   4.210  -2.045  0.00  0.00    +0.000 A 
ATOM      5  C   UNL     1     -17.425   6.163  -2.607  0.00  0.00    +0.000 A 
ATOM      6  H   UNL     1     -15.716   4.848  -0.300  0.00  0.00    +0.000 HD
ENDROOT
BRANCH   3   9
ATOM      7 BR   UNL     1     -13.949  13.053  -1.663  0.00  0.00    +0.000 Br
ATOM      8  N   UNL     1     -16.425   9.086   0.930  0.00  0.00    +0.000 N 
ATOM      9  C   UNL     1     -16.449   7.607  -0.725  0.00  0.00    +0.000 A 
ATOM     10  C   UNL     1     -15.813   8.790  -1.199  0.00  0.00    +0.000 A 
ATOM     11  C   UNL     1     -15.813   9.701  -0.137  0.00  0.00    +0.000 A 
ATOM     12  C   UNL     1     -16.812   7.822   0.584  0.00  0.00    +0.000 A 
ATOM     13  C   UNL     1     -15.235   9.185  -2.421  0.00  0.00    +0.000 A 
ATOM     14  C   UNL     1     -15.265  10.986  -0.235  0.00  0.00    +0.000 A 
ATOM     15  C   UNL     1     -14.684  10.461  -2.541  0.00  0.00    +0.000 A 
ATOM     16  C   UNL     1     -14.703  11.337  -1.463  0.00  0.00    +0.000 A 
ATOM     17  H   UNL     1     -16.569   9.506   1.839  0.00  0.00    +0.000 HD
ENDBRANCH   3   9
BRANCH   4  20
ATOM     18 BR   UNL     1     -11.794  -1.055  -1.457  0.00  0.00    +0.000 Br
ATOM     19  N   UNL     1     -16.852   0.562  -2.084  0.00  0.00    +0.000 N 
ATOM     20  C   UNL     1     -16.481   2.748  -2.023  0.00  0.00    +0.000 A 
ATOM     21  C   UNL     1     -15.232   2.084  -1.870  0.00  0.00    +0.000 A 
ATOM     22  C   UNL     1     -15.495   0.713  -1.912  0.00  0.00    +0.000 A 
ATOM     23  C   UNL     1     -17.457   1.787  -2.152  0.00  0.00    +0.000 A 
ATOM     24  C   UNL     1     -13.900   2.511  -1.699  0.00  0.00    +0.000 A 
ATOM     25  C   UNL     1     -14.496  -0.258  -1.792  0.00  0.00    +0.000 A 
ATOM     26  C   UNL     1     -12.886   1.558  -1.578  0.00  0.00    +0.000 A 
ATOM     27  C   UNL     1     -13.189   0.204  -1.625  0.00  0.00    +0.000 A 
ATOM     28  H   UNL     1     -17.330  -0.327  -2.150  0.00  0.00    +0.000 HD
ENDBRANCH   4  20
TORSDOF 2
ENDMDL
