MODEL 1
REMARK VINA RESULT:      -4.3      0.000      0.000
REMARK  Name = 21574552_Mertensene.pdbqt.pdb
REMARK  1 active torsions:
REMARK  status: ('A' for Active; 'I' for Inactive)
REMARK    1  A    between atoms: C_4  and  C_13
REMARK                            x       y       z     vdW  Elec       q    Type
REMARK                         _______ _______ _______ _____ _____    ______ ____
ROOT
ATOM      1 BR   UNL     1     -18.315   9.837  -1.093  0.00  0.00    +0.000 Br
ATOM      2 CL   UNL     1     -14.488   6.676  -4.368  0.00  0.00    +0.000 Cl
ATOM      3 CL   UNL     1     -17.478   5.160  -3.766  0.00  0.00    +0.000 Cl
ATOM      4  C   UNL     1     -15.514   8.825  -1.345  0.00  0.00    +0.000 C 
ATOM      5  C   UNL     1     -14.890   7.668  -1.996  0.00  0.00    +0.000 C 
ATOM      6  C   UNL     1     -15.148   6.433  -2.732  0.00  0.00    +0.000 C 
ATOM      7  C   UNL     1     -17.035   8.567  -1.490  0.00  0.00    +0.000 C 
ATOM      8  C   UNL     1     -16.676   6.295  -2.769  0.00  0.00    +0.000 C 
ATOM      9  C   UNL     1     -17.398   7.366  -2.167  0.00  0.00    +0.000 C 
ATOM     10  C   UNL     1     -15.141   8.855   0.155  0.00  0.00    +0.000 C 
ATOM     11  C   UNL     1     -14.473   5.210  -2.102  0.00  0.00    +0.000 C 
ENDROOT
BRANCH   4  13
ATOM     12 CL   UNL     1     -14.373  12.557  -3.426  0.00  0.00    +0.000 Cl
ATOM     13  C   UNL     1     -15.141  10.069  -2.036  0.00  0.00    +0.000 C 
ATOM     14  C   UNL     1     -14.833  11.083  -2.601  0.00  0.00    +0.000 C 
ENDBRANCH   4  13
TORSDOF 1
ENDMDL
MODEL 2
REMARK VINA RESULT:      -4.3      9.956     11.975
REMARK  Name = 21574552_Mertensene.pdbqt.pdb
REMARK  1 active torsions:
REMARK  status: ('A' for Active; 'I' for Inactive)
REMARK    1  A    between atoms: C_4  and  C_13
REMARK                            x       y       z     vdW  Elec       q    Type
REMARK                         _______ _______ _______ _____ _____    ______ ____
ROOT
ATOM      1 BR   UNL     1     -10.580  -2.133   1.842  0.00  0.00    +0.000 Br
ATOM      2 CL   UNL     1      -6.350   2.020   2.308  0.00  0.00    +0.000 Cl
ATOM      3 CL   UNL     1      -5.562  -1.009   3.653  0.00  0.00    +0.000 Cl
ATOM      4  C   UNL     1      -9.946   0.683   2.614  0.00  0.00    +0.000 C 
ATOM      5  C   UNL     1      -8.745   1.375   3.095  0.00  0.00    +0.000 C 
ATOM      6  C   UNL     1      -7.360   1.199   3.523  0.00  0.00    +0.000 C 
ATOM      7  C   UNL     1      -9.547  -0.814   2.616  0.00  0.00    +0.000 C 
ATOM      8  C   UNL     1      -7.119  -0.317   3.506  0.00  0.00    +0.000 C 
ATOM      9  C   UNL     1      -8.219  -1.101   3.051  0.00  0.00    +0.000 C 
ATOM     10  C   UNL     1     -11.115   0.902   3.600  0.00  0.00    +0.000 C 
ATOM     11  C   UNL     1      -7.077   1.813   4.899  0.00  0.00    +0.000 C 
ENDROOT
BRANCH   4  13
ATOM     12 CL   UNL     1     -10.970   1.994  -1.484  0.00  0.00    +0.000 Cl
ATOM     13  C   UNL     1     -10.280   1.118   1.249  0.00  0.00    +0.000 C 
ATOM     14  C   UNL     1     -10.555   1.474   0.136  0.00  0.00    +0.000 C 
ENDBRANCH   4  13
TORSDOF 1
ENDMDL
MODEL 3
REMARK VINA RESULT:      -4.2     14.125     15.505
REMARK  Name = 21574552_Mertensene.pdbqt.pdb
REMARK  1 active torsions:
REMARK  status: ('A' for Active; 'I' for Inactive)
REMARK    1  A    between atoms: C_4  and  C_13
REMARK                            x       y       z     vdW  Elec       q    Type
REMARK                         _______ _______ _______ _____ _____    ______ ____
ROOT
ATOM      1 BR   UNL     1       0.236   6.071   4.219  0.00  0.00    +0.000 Br
ATOM      2 CL   UNL     1      -2.016   5.710  -1.273  0.00  0.00    +0.000 Cl
ATOM      3 CL   UNL     1       0.640   7.815  -0.930  0.00  0.00    +0.000 Cl
ATOM      4  C   UNL     1      -2.239   6.144   2.545  0.00  0.00    +0.000 C 
ATOM      5  C   UNL     1      -2.531   6.501   1.153  0.00  0.00    +0.000 C 
ATOM      6  C   UNL     1      -1.967   7.035  -0.084  0.00  0.00    +0.000 C 
ATOM      7  C   UNL     1      -0.754   6.544   2.735  0.00  0.00    +0.000 C 
ATOM      8  C   UNL     1      -0.520   7.413   0.260  0.00  0.00    +0.000 C 
ATOM      9  C   UNL     1      -0.114   7.110   1.593  0.00  0.00    +0.000 C 
ATOM     10  C   UNL     1      -3.119   6.977   3.503  0.00  0.00    +0.000 C 
ATOM     11  C   UNL     1      -2.758   8.225  -0.637  0.00  0.00    +0.000 C 
ENDROOT
BRANCH   4  13
ATOM     12 CL   UNL     1      -2.747   1.792   3.148  0.00  0.00    +0.000 Cl
ATOM     13  C   UNL     1      -2.405   4.696   2.752  0.00  0.00    +0.000 C 
ATOM     14  C   UNL     1      -2.542   3.516   2.918  0.00  0.00    +0.000 C 
ENDBRANCH   4  13
TORSDOF 1
ENDMDL
MODEL 4
REMARK VINA RESULT:      -4.2     14.216     15.893
REMARK  Name = 21574552_Mertensene.pdbqt.pdb
REMARK  1 active torsions:
REMARK  status: ('A' for Active; 'I' for Inactive)
REMARK    1  A    between atoms: C_4  and  C_13
REMARK                            x       y       z     vdW  Elec       q    Type
REMARK                         _______ _______ _______ _____ _____    ______ ____
ROOT
ATOM      1 BR   UNL     1      -1.374   2.128  -0.241  0.00  0.00    +0.000 Br
ATOM      2 CL   UNL     1      -2.697   6.694   3.330  0.00  0.00    +0.000 Cl
ATOM      3 CL   UNL     1      -0.150   7.258   1.140  0.00  0.00    +0.000 Cl
ATOM      4  C   UNL     1      -1.899   3.007   2.566  0.00  0.00    +0.000 C 
ATOM      5  C   UNL     1      -1.748   4.271   3.296  0.00  0.00    +0.000 C 
ATOM      6  C   UNL     1      -1.262   5.645   3.210  0.00  0.00    +0.000 C 
ATOM      7  C   UNL     1      -1.236   3.282   1.193  0.00  0.00    +0.000 C 
ATOM      8  C   UNL     1      -0.611   5.760   1.824  0.00  0.00    +0.000 C 
ATOM      9  C   UNL     1      -0.697   4.590   1.015  0.00  0.00    +0.000 C 
ATOM     10  C   UNL     1      -1.129   1.881   3.290  0.00  0.00    +0.000 C 
ATOM     11  C   UNL     1      -0.289   6.007   4.337  0.00  0.00    +0.000 C 
ENDROOT
BRANCH   4  13
ATOM     12 CL   UNL     1      -6.174   2.008   2.025  0.00  0.00    +0.000 Cl
ATOM     13  C   UNL     1      -3.323   2.682   2.387  0.00  0.00    +0.000 C 
ATOM     14  C   UNL     1      -4.484   2.413   2.240  0.00  0.00    +0.000 C 
ENDBRANCH   4  13
TORSDOF 1
ENDMDL
MODEL 5
REMARK VINA RESULT:      -4.1     19.793     21.141
REMARK  Name = 21574552_Mertensene.pdbqt.pdb
REMARK  1 active torsions:
REMARK  status: ('A' for Active; 'I' for Inactive)
REMARK    1  A    between atoms: C_4  and  C_13
REMARK                            x       y       z     vdW  Elec       q    Type
REMARK                         _______ _______ _______ _____ _____    ______ ____
ROOT
ATOM      1 BR   UNL     1      -6.298   2.760  18.667  0.00  0.00    +0.000 Br
ATOM      2 CL   UNL     1      -9.413   7.155  16.148  0.00  0.00    +0.000 Cl
ATOM      3 CL   UNL     1     -11.233   4.993  18.050  0.00  0.00    +0.000 Cl
ATOM      4  C   UNL     1      -6.872   4.264  16.149  0.00  0.00    +0.000 C 
ATOM      5  C   UNL     1      -8.024   5.014  15.636  0.00  0.00    +0.000 C 
ATOM      6  C   UNL     1      -9.410   5.392  15.895  0.00  0.00    +0.000 C 
ATOM      7  C   UNL     1      -7.398   3.606  17.450  0.00  0.00    +0.000 C 
ATOM      8  C   UNL     1      -9.799   4.651  17.182  0.00  0.00    +0.000 C 
ATOM      9  C   UNL     1      -8.757   3.884  17.780  0.00  0.00    +0.000 C 
ATOM     10  C   UNL     1      -6.468   3.160  15.145  0.00  0.00    +0.000 C 
ATOM     11  C   UNL     1     -10.348   5.058  14.730  0.00  0.00    +0.000 C 
ENDROOT
BRANCH   4  13
ATOM     12 CL   UNL     1      -3.510   6.994  17.048  0.00  0.00    +0.000 Cl
ATOM     13  C   UNL     1      -5.757   5.174  16.454  0.00  0.00    +0.000 C 
ATOM     14  C   UNL     1      -4.846   5.916  16.700  0.00  0.00    +0.000 C 
ENDBRANCH   4  13
TORSDOF 1
ENDMDL
MODEL 6
REMARK VINA RESULT:      -3.8     14.369     15.586
REMARK  Name = 21574552_Mertensene.pdbqt.pdb
REMARK  1 active torsions:
REMARK  status: ('A' for Active; 'I' for Inactive)
REMARK    1  A    between atoms: C_4  and  C_13
REMARK                            x       y       z     vdW  Elec       q    Type
REMARK                         _______ _______ _______ _____ _____    ______ ____
ROOT
ATOM      1 BR   UNL     1     -23.253  18.038  11.603  0.00  0.00    +0.000 Br
ATOM      2 CL   UNL     1     -23.617  14.005   7.249  0.00  0.00    +0.000 Cl
ATOM      3 CL   UNL     1     -25.618  13.415   9.941  0.00  0.00    +0.000 Cl
ATOM      4  C   UNL     1     -21.739  16.257   9.741  0.00  0.00    +0.000 C 
ATOM      5  C   UNL     1     -22.031  14.990   9.061  0.00  0.00    +0.000 C 
ATOM      6  C   UNL     1     -23.005  13.911   8.918  0.00  0.00    +0.000 C 
ATOM      7  C   UNL     1     -22.945  16.462  10.692  0.00  0.00    +0.000 C 
ATOM      8  C   UNL     1     -24.114  14.230   9.930  0.00  0.00    +0.000 C 
ATOM      9  C   UNL     1     -23.944  15.445  10.655  0.00  0.00    +0.000 C 
ATOM     10  C   UNL     1     -20.446  16.125  10.577  0.00  0.00    +0.000 C 
ATOM     11  C   UNL     1     -22.397  12.523   9.145  0.00  0.00    +0.000 C 
ENDROOT
BRANCH   4  13
ATOM     12 CL   UNL     1     -21.493  19.576   6.829  0.00  0.00    +0.000 Cl
ATOM     13  C   UNL     1     -21.664  17.359   8.769  0.00  0.00    +0.000 C 
ATOM     14  C   UNL     1     -21.599  18.259   7.978  0.00  0.00    +0.000 C 
ENDBRANCH   4  13
TORSDOF 1
ENDMDL
MODEL 7
REMARK VINA RESULT:      -3.5     14.490     15.971
REMARK  Name = 21574552_Mertensene.pdbqt.pdb
REMARK  1 active torsions:
REMARK  status: ('A' for Active; 'I' for Inactive)
REMARK    1  A    between atoms: C_4  and  C_13
REMARK                            x       y       z     vdW  Elec       q    Type
REMARK                         _______ _______ _______ _____ _____    ______ ____
ROOT
ATOM      1 BR   UNL     1     -24.914  19.103   7.756  0.00  0.00    +0.000 Br
ATOM      2 CL   UNL     1     -21.274  14.705   9.419  0.00  0.00    +0.000 Cl
ATOM      3 CL   UNL     1     -23.990  15.174  11.421  0.00  0.00    +0.000 Cl
ATOM      4  C   UNL     1     -22.087  18.292   8.287  0.00  0.00    +0.000 C 
ATOM      5  C   UNL     1     -21.446  17.287   9.142  0.00  0.00    +0.000 C 
ATOM      6  C   UNL     1     -21.678  16.270  10.165  0.00  0.00    +0.000 C 
ATOM      7  C   UNL     1     -23.581  18.241   8.697  0.00  0.00    +0.000 C 
ATOM      8  C   UNL     1     -23.176  16.355  10.489  0.00  0.00    +0.000 C 
ATOM      9  C   UNL     1     -23.912  17.301   9.717  0.00  0.00    +0.000 C 
ATOM     10  C   UNL     1     -21.519  19.695   8.600  0.00  0.00    +0.000 C 
ATOM     11  C   UNL     1     -20.806  16.465  11.409  0.00  0.00    +0.000 C 
ENDROOT
BRANCH   4  13
ATOM     12 CL   UNL     1     -21.615  17.215   4.024  0.00  0.00    +0.000 Cl
ATOM     13  C   UNL     1     -21.937  17.935   6.868  0.00  0.00    +0.000 C 
ATOM     14  C   UNL     1     -21.811  17.642   5.711  0.00  0.00    +0.000 C 
ENDBRANCH   4  13
TORSDOF 1
ENDMDL
MODEL 8
REMARK VINA RESULT:      -3.5     25.403     27.073
REMARK  Name = 21574552_Mertensene.pdbqt.pdb
REMARK  1 active torsions:
REMARK  status: ('A' for Active; 'I' for Inactive)
REMARK    1  A    between atoms: C_4  and  C_13
REMARK                            x       y       z     vdW  Elec       q    Type
REMARK                         _______ _______ _______ _____ _____    ______ ____
ROOT
ATOM      1 BR   UNL     1     -11.996  21.545  21.761  0.00  0.00    +0.000 Br
ATOM      2 CL   UNL     1     -13.087  16.182  24.086  0.00  0.00    +0.000 Cl
ATOM      3 CL   UNL     1     -10.268  17.712  25.231  0.00  0.00    +0.000 Cl
ATOM      4  C   UNL     1     -12.702  18.696  21.198  0.00  0.00    +0.000 C 
ATOM      5  C   UNL     1     -12.466  17.421  21.883  0.00  0.00    +0.000 C 
ATOM      6  C   UNL     1     -11.798  16.782  23.014  0.00  0.00    +0.000 C 
ATOM      7  C   UNL     1     -11.864  19.720  22.004  0.00  0.00    +0.000 C 
ATOM      8  C   UNL     1     -10.992  17.898  23.693  0.00  0.00    +0.000 C 
ATOM      9  C   UNL     1     -11.142  19.193  23.116  0.00  0.00    +0.000 C 
ATOM     10  C   UNL     1     -12.167  18.627  19.749  0.00  0.00    +0.000 C 
ATOM     11  C   UNL     1     -10.913  15.603  22.597  0.00  0.00    +0.000 C 
ENDROOT
BRANCH   4  13
ATOM     12 CL   UNL     1     -16.984  19.792  21.354  0.00  0.00    +0.000 Cl
ATOM     13  C   UNL     1     -14.128  19.054  21.248  0.00  0.00    +0.000 C 
ATOM     14  C   UNL     1     -15.291  19.349  21.290  0.00  0.00    +0.000 C 
ENDBRANCH   4  13
TORSDOF 1
ENDMDL
MODEL 9
REMARK VINA RESULT:      -3.5     15.794     16.762
REMARK  Name = 21574552_Mertensene.pdbqt.pdb
REMARK  1 active torsions:
REMARK  status: ('A' for Active; 'I' for Inactive)
REMARK    1  A    between atoms: C_4  and  C_13
REMARK                            x       y       z     vdW  Elec       q    Type
REMARK                         _______ _______ _______ _____ _____    ______ ____
ROOT
ATOM      1 BR   UNL     1       0.980   4.977  -1.361  0.00  0.00    +0.000 Br
ATOM      2 CL   UNL     1      -0.181   6.053   4.370  0.00  0.00    +0.000 Cl
ATOM      3 CL   UNL     1      -1.585   3.215   3.115  0.00  0.00    +0.000 Cl
ATOM      4  C   UNL     1       0.080   6.997   0.648  0.00  0.00    +0.000 C 
ATOM      5  C   UNL     1      -0.588   6.927   1.953  0.00  0.00    +0.000 C 
ATOM      6  C   UNL     1      -1.218   6.034   2.922  0.00  0.00    +0.000 C 
ATOM      7  C   UNL     1       0.039   5.540   0.124  0.00  0.00    +0.000 C 
ATOM      8  C   UNL     1      -1.214   4.649   2.261  0.00  0.00    +0.000 C 
ATOM      9  C   UNL     1      -0.586   4.589   0.982  0.00  0.00    +0.000 C 
ATOM     10  C   UNL     1      -0.721   7.908  -0.309  0.00  0.00    +0.000 C 
ATOM     11  C   UNL     1      -2.629   6.482   3.318  0.00  0.00    +0.000 C 
ENDROOT
BRANCH   4  13
ATOM     12 CL   UNL     1       4.265   8.353   1.105  0.00  0.00    +0.000 Cl
ATOM     13  C   UNL     1       1.473   7.443   0.805  0.00  0.00    +0.000 C 
ATOM     14  C   UNL     1       2.609   7.809   0.930  0.00  0.00    +0.000 C 
ENDBRANCH   4  13
TORSDOF 1
ENDMDL
