MODEL 1
REMARK VINA RESULT:      -7.2      0.000      0.000
REMARK  Name = 222284_BetaSitosterol.pdbqt.pdb
REMARK  5 active torsions:
REMARK  status: ('A' for Active; 'I' for Inactive)
REMARK    1  A    between atoms: C_5  and  C_22
REMARK    2  A    between atoms: C_19  and  O_20
REMARK    3  A    between atoms: C_22  and  C_24
REMARK    4  A    between atoms: C_25  and  C_26
REMARK    5  A    between atoms: C_26  and  C_30
REMARK                            x       y       z     vdW  Elec       q    Type
REMARK                         _______ _______ _______ _____ _____    ______ ____
ROOT
ATOM      1  C   UNL     1     -15.261   3.764  -2.728  0.00  0.00    +0.000 C 
ATOM      2  C   UNL     1     -14.651   5.006  -3.557  0.00  0.00    +0.000 C 
ATOM      3  C   UNL     1     -15.077   6.398  -3.309  0.00  0.00    +0.000 C 
ATOM      4  C   UNL     1     -15.867   6.884  -2.119  0.00  0.00    +0.000 C 
ATOM      5  C   UNL     1     -14.044   2.903  -2.425  0.00  0.00    +0.000 C 
ATOM      6  C   UNL     1     -15.869   4.363  -1.539  0.00  0.00    +0.000 C 
ATOM      7  C   UNL     1     -16.354   8.348  -1.948  0.00  0.00    +0.000 C 
ATOM      8  C   UNL     1     -13.271   4.714  -3.797  0.00  0.00    +0.000 C 
ATOM      9  C   UNL     1     -16.183   5.810  -1.243  0.00  0.00    +0.000 C 
ATOM     10  C   UNL     1     -12.898   3.451  -3.069  0.00  0.00    +0.000 C 
ATOM     11  C   UNL     1     -14.642   7.456  -4.144  0.00  0.00    +0.000 C 
ATOM     12  C   UNL     1     -16.270   3.021  -3.641  0.00  0.00    +0.000 C 
ATOM     13  C   UNL     1     -15.580   9.432  -2.924  0.00  0.00    +0.000 C 
ATOM     14  C   UNL     1     -16.058   8.832  -0.567  0.00  0.00    +0.000 C 
ATOM     15  C   UNL     1     -14.914   8.912  -3.910  0.00  0.00    +0.000 C 
ATOM     16  C   UNL     1     -17.870   8.422  -2.291  0.00  0.00    +0.000 C 
ATOM     17  C   UNL     1     -14.997  10.569  -2.248  0.00  0.00    +0.000 C 
ATOM     18  C   UNL     1     -15.346  10.069   0.007  0.00  0.00    +0.000 C 
ATOM     19  C   UNL     1     -14.797  11.019  -0.904  0.00  0.00    +0.000 C 
ENDROOT
BRANCH  19  20
ATOM     20  O   UNL     1     -14.719  12.344  -0.588  0.00  0.00    +0.000 OA
ATOM     21  H   UNL     1     -15.507  12.641  -0.102  0.00  0.00    +0.000 HD
ENDBRANCH  19  20
BRANCH   5  22
ATOM     22  C   UNL     1     -14.048   1.754  -1.574  0.00  0.00    +0.000 C 
ATOM     23  C   UNL     1     -15.168   0.744  -1.585  0.00  0.00    +0.000 C 
BRANCH  22  24
ATOM     24  C   UNL     1     -12.985   1.475  -0.673  0.00  0.00    +0.000 C 
ATOM     25  C   UNL     1     -11.853   1.182   0.322  0.00  0.00    +0.000 C 
BRANCH  25  26
ATOM     26  C   UNL     1     -10.804   0.927   1.257  0.00  0.00    +0.000 C 
ATOM     27  C   UNL     1      -9.449   0.708   0.801  0.00  0.00    +0.000 C 
ATOM     28  C   UNL     1      -9.067   0.754  -0.667  0.00  0.00    +0.000 C 
ATOM     29  C   UNL     1      -8.296   0.386   1.726  0.00  0.00    +0.000 C 
BRANCH  26  30
ATOM     30  C   UNL     1     -11.086   0.895   2.648  0.00  0.00    +0.000 C 
ATOM     31  C   UNL     1     -11.343   0.836   4.158  0.00  0.00    +0.000 C 
ENDBRANCH  26  30
ENDBRANCH  25  26
ENDBRANCH  22  24
ENDBRANCH   5  22
TORSDOF 5
ENDMDL
MODEL 2
REMARK VINA RESULT:      -6.6     12.957     17.868
REMARK  Name = 222284_BetaSitosterol.pdbqt.pdb
REMARK  5 active torsions:
REMARK  status: ('A' for Active; 'I' for Inactive)
REMARK    1  A    between atoms: C_5  and  C_22
REMARK    2  A    between atoms: C_19  and  O_20
REMARK    3  A    between atoms: C_22  and  C_24
REMARK    4  A    between atoms: C_25  and  C_26
REMARK    5  A    between atoms: C_26  and  C_30
REMARK                            x       y       z     vdW  Elec       q    Type
REMARK                         _______ _______ _______ _____ _____    ______ ____
ROOT
ATOM      1  C   UNL     1     -24.045  13.999   8.202  0.00  0.00    +0.000 C 
ATOM      2  C   UNL     1     -23.933  12.470   7.701  0.00  0.00    +0.000 C 
ATOM      3  C   UNL     1     -23.899  12.115   6.268  0.00  0.00    +0.000 C 
ATOM      4  C   UNL     1     -23.675  13.073   5.124  0.00  0.00    +0.000 C 
ATOM      5  C   UNL     1     -23.053  14.074   9.352  0.00  0.00    +0.000 C 
ATOM      6  C   UNL     1     -23.667  14.808   7.043  0.00  0.00    +0.000 C 
ATOM      7  C   UNL     1     -23.727  12.657   3.629  0.00  0.00    +0.000 C 
ATOM      8  C   UNL     1     -23.079  11.787   8.624  0.00  0.00    +0.000 C 
ATOM      9  C   UNL     1     -23.511  14.404   5.597  0.00  0.00    +0.000 C 
ATOM     10  C   UNL     1     -22.513  12.780   9.603  0.00  0.00    +0.000 C 
ATOM     11  C   UNL     1     -23.949  10.764   5.847  0.00  0.00    +0.000 C 
ATOM     12  C   UNL     1     -25.497  14.242   8.689  0.00  0.00    +0.000 C 
ATOM     13  C   UNL     1     -23.605  11.029   3.380  0.00  0.00    +0.000 C 
ATOM     14  C   UNL     1     -22.557  13.221   2.895  0.00  0.00    +0.000 C 
ATOM     15  C   UNL     1     -23.799  10.292   4.432  0.00  0.00    +0.000 C 
ATOM     16  C   UNL     1     -25.086  13.113   3.023  0.00  0.00    +0.000 C 
ATOM     17  C   UNL     1     -22.571  10.619   2.457  0.00  0.00    +0.000 C 
ATOM     18  C   UNL     1     -21.476  12.625   1.977  0.00  0.00    +0.000 C 
ATOM     19  C   UNL     1     -21.502  11.222   1.722  0.00  0.00    +0.000 C 
ENDROOT
BRANCH  19  20
ATOM     20  O   UNL     1     -21.053  10.707   0.541  0.00  0.00    +0.000 OA
ATOM     21  H   UNL     1     -20.142  10.988   0.353  0.00  0.00    +0.000 HD
ENDBRANCH  19  20
BRANCH   5  22
ATOM     22  C   UNL     1     -22.679  15.275  10.031  0.00  0.00    +0.000 C 
ATOM     23  C   UNL     1     -21.271  15.815  10.004  0.00  0.00    +0.000 C 
BRANCH  22  24
ATOM     24  C   UNL     1     -23.616  16.054  10.763  0.00  0.00    +0.000 C 
ATOM     25  C   UNL     1     -24.642  16.872  11.561  0.00  0.00    +0.000 C 
BRANCH  25  26
ATOM     26  C   UNL     1     -25.610  17.622  12.295  0.00  0.00    +0.000 C 
ATOM     27  C   UNL     1     -26.957  17.780  11.790  0.00  0.00    +0.000 C 
ATOM     28  C   UNL     1     -27.414  17.156  10.485  0.00  0.00    +0.000 C 
ATOM     29  C   UNL     1     -28.021  18.598  12.488  0.00  0.00    +0.000 C 
BRANCH  26  30
ATOM     30  C   UNL     1     -25.256  18.213  13.537  0.00  0.00    +0.000 C 
ATOM     31  C   UNL     1     -24.850  18.891  14.851  0.00  0.00    +0.000 C 
ENDBRANCH  26  30
ENDBRANCH  25  26
ENDBRANCH  22  24
ENDBRANCH   5  22
TORSDOF 5
ENDMDL
MODEL 3
REMARK VINA RESULT:      -6.3     11.763     16.924
REMARK  Name = 222284_BetaSitosterol.pdbqt.pdb
REMARK  5 active torsions:
REMARK  status: ('A' for Active; 'I' for Inactive)
REMARK    1  A    between atoms: C_5  and  C_22
REMARK    2  A    between atoms: C_19  and  O_20
REMARK    3  A    between atoms: C_22  and  C_24
REMARK    4  A    between atoms: C_25  and  C_26
REMARK    5  A    between atoms: C_26  and  C_30
REMARK                            x       y       z     vdW  Elec       q    Type
REMARK                         _______ _______ _______ _____ _____    ______ ____
ROOT
ATOM      1  C   UNL     1     -23.851  14.828   8.079  0.00  0.00    +0.000 C 
ATOM      2  C   UNL     1     -23.593  13.250   7.872  0.00  0.00    +0.000 C 
ATOM      3  C   UNL     1     -23.812  12.583   6.572  0.00  0.00    +0.000 C 
ATOM      4  C   UNL     1     -24.005  13.274   5.245  0.00  0.00    +0.000 C 
ATOM      5  C   UNL     1     -22.660  15.281   8.909  0.00  0.00    +0.000 C 
ATOM      6  C   UNL     1     -23.875  15.390   6.727  0.00  0.00    +0.000 C 
ATOM      7  C   UNL     1     -24.310  12.525   3.919  0.00  0.00    +0.000 C 
ATOM      8  C   UNL     1     -22.457  12.901   8.668  0.00  0.00    +0.000 C 
ATOM      9  C   UNL     1     -23.971  14.688   5.395  0.00  0.00    +0.000 C 
ATOM     10  C   UNL     1     -21.868  14.151   9.265  0.00  0.00    +0.000 C 
ATOM     11  C   UNL     1     -23.722  11.175   6.447  0.00  0.00    +0.000 C 
ATOM     12  C   UNL     1     -25.182  15.003   8.853  0.00  0.00    +0.000 C 
ATOM     13  C   UNL     1     -23.971  10.909   3.968  0.00  0.00    +0.000 C 
ATOM     14  C   UNL     1     -23.439  13.041   2.823  0.00  0.00    +0.000 C 
ATOM     15  C   UNL     1     -23.805  10.414   5.158  0.00  0.00    +0.000 C 
ATOM     16  C   UNL     1     -25.824  12.666   3.592  0.00  0.00    +0.000 C 
ATOM     17  C   UNL     1     -23.108  10.425   2.915  0.00  0.00    +0.000 C 
ATOM     18  C   UNL     1     -22.497  12.383   1.799  0.00  0.00    +0.000 C 
ATOM     19  C   UNL     1     -22.341  10.966   1.836  0.00  0.00    +0.000 C 
ENDROOT
BRANCH  19  20
ATOM     20  O   UNL     1     -22.079  10.251   0.704  0.00  0.00    +0.000 OA
ATOM     21  H   UNL     1     -21.128  10.238   0.503  0.00  0.00    +0.000 HD
ENDBRANCH  19  20
BRANCH   5  22
ATOM     22  C   UNL     1     -22.356  16.641   9.228  0.00  0.00    +0.000 C 
ATOM     23  C   UNL     1     -22.548  17.209  10.611  0.00  0.00    +0.000 C 
BRANCH  22  24
ATOM     24  C   UNL     1     -21.833  17.546   8.265  0.00  0.00    +0.000 C 
ATOM     25  C   UNL     1     -21.253  18.537   7.245  0.00  0.00    +0.000 C 
BRANCH  25  26
ATOM     26  C   UNL     1     -20.716  19.472   6.309  0.00  0.00    +0.000 C 
ATOM     27  C   UNL     1     -20.883  19.268   4.886  0.00  0.00    +0.000 C 
ATOM     28  C   UNL     1     -21.638  18.081   4.318  0.00  0.00    +0.000 C 
ATOM     29  C   UNL     1     -20.303  20.189   3.836  0.00  0.00    +0.000 C 
BRANCH  26  30
ATOM     30  C   UNL     1     -20.019  20.619   6.773  0.00  0.00    +0.000 C 
ATOM     31  C   UNL     1     -19.229  21.849   7.236  0.00  0.00    +0.000 C 
ENDBRANCH  26  30
ENDBRANCH  25  26
ENDBRANCH  22  24
ENDBRANCH   5  22
TORSDOF 5
ENDMDL
MODEL 4
REMARK VINA RESULT:      -6.3     23.460     26.864
REMARK  Name = 222284_BetaSitosterol.pdbqt.pdb
REMARK  5 active torsions:
REMARK  status: ('A' for Active; 'I' for Inactive)
REMARK    1  A    between atoms: C_5  and  C_22
REMARK    2  A    between atoms: C_19  and  O_20
REMARK    3  A    between atoms: C_22  and  C_24
REMARK    4  A    between atoms: C_25  and  C_26
REMARK    5  A    between atoms: C_26  and  C_30
REMARK                            x       y       z     vdW  Elec       q    Type
REMARK                         _______ _______ _______ _____ _____    ______ ____
ROOT
ATOM      1  C   UNL     1      -9.903  16.900  23.480  0.00  0.00    +0.000 C 
ATOM      2  C   UNL     1     -11.315  16.536  24.168  0.00  0.00    +0.000 C 
ATOM      3  C   UNL     1     -12.503  17.403  24.025  0.00  0.00    +0.000 C 
ATOM      4  C   UNL     1     -12.662  18.530  23.036  0.00  0.00    +0.000 C 
ATOM      5  C   UNL     1      -9.423  15.570  22.919  0.00  0.00    +0.000 C 
ATOM      6  C   UNL     1     -10.225  17.892  22.453  0.00  0.00    +0.000 C 
ATOM      7  C   UNL     1     -13.905  19.460  22.982  0.00  0.00    +0.000 C 
ATOM      8  C   UNL     1     -11.459  15.114  24.105  0.00  0.00    +0.000 C 
ATOM      9  C   UNL     1     -11.494  18.681  22.241  0.00  0.00    +0.000 C 
ATOM     10  C   UNL     1     -10.323  14.536  23.306  0.00  0.00    +0.000 C 
ATOM     11  C   UNL     1     -13.689  17.145  24.756  0.00  0.00    +0.000 C 
ATOM     12  C   UNL     1      -8.950  17.428  24.583  0.00  0.00    +0.000 C 
ATOM     13  C   UNL     1     -15.225  18.865  23.777  0.00  0.00    +0.000 C 
ATOM     14  C   UNL     1     -14.373  19.615  21.574  0.00  0.00    +0.000 C 
ATOM     15  C   UNL     1     -14.982  17.885  24.594  0.00  0.00    +0.000 C 
ATOM     16  C   UNL     1     -13.547  20.823  23.642  0.00  0.00    +0.000 C 
ATOM     17  C   UNL     1     -16.441  18.804  22.999  0.00  0.00    +0.000 C 
ATOM     18  C   UNL     1     -15.730  19.443  20.868  0.00  0.00    +0.000 C 
ATOM     19  C   UNL     1     -16.851  19.030  21.647  0.00  0.00    +0.000 C 
ENDROOT
BRANCH  19  20
ATOM     20  O   UNL     1     -18.118  19.422  21.330  0.00  0.00    +0.000 OA
ATOM     21  H   UNL     1     -18.677  18.663  21.092  0.00  0.00    +0.000 HD
ENDBRANCH  19  20
BRANCH   5  22
ATOM     22  C   UNL     1      -8.277  15.403  22.081  0.00  0.00    +0.000 C 
ATOM     23  C   UNL     1      -6.947  14.935  22.615  0.00  0.00    +0.000 C 
BRANCH  22  24
ATOM     24  C   UNL     1      -8.319  15.649  20.682  0.00  0.00    +0.000 C 
ATOM     25  C   UNL     1      -8.342  15.931  19.173  0.00  0.00    +0.000 C 
BRANCH  25  26
ATOM     26  C   UNL     1      -8.360  16.212  17.772  0.00  0.00    +0.000 C 
ATOM     27  C   UNL     1      -8.716  17.529  17.291  0.00  0.00    +0.000 C 
ATOM     28  C   UNL     1      -9.066  18.671  18.227  0.00  0.00    +0.000 C 
ATOM     29  C   UNL     1      -8.803  17.888  15.824  0.00  0.00    +0.000 C 
BRANCH  26  30
ATOM     30  C   UNL     1      -8.019  15.196  16.841  0.00  0.00    +0.000 C 
ATOM     31  C   UNL     1      -7.673  14.063  15.868  0.00  0.00    +0.000 C 
ENDBRANCH  26  30
ENDBRANCH  25  26
ENDBRANCH  22  24
ENDBRANCH   5  22
TORSDOF 5
ENDMDL
MODEL 5
REMARK VINA RESULT:      -6.3      3.750      6.513
REMARK  Name = 222284_BetaSitosterol.pdbqt.pdb
REMARK  5 active torsions:
REMARK  status: ('A' for Active; 'I' for Inactive)
REMARK    1  A    between atoms: C_5  and  C_22
REMARK    2  A    between atoms: C_19  and  O_20
REMARK    3  A    between atoms: C_22  and  C_24
REMARK    4  A    between atoms: C_25  and  C_26
REMARK    5  A    between atoms: C_26  and  C_30
REMARK                            x       y       z     vdW  Elec       q    Type
REMARK                         _______ _______ _______ _____ _____    ______ ____
ROOT
ATOM      1  C   UNL     1     -12.207   8.904  -7.583  0.00  0.00    +0.000 C 
ATOM      2  C   UNL     1     -11.622  10.372  -7.262  0.00  0.00    +0.000 C 
ATOM      3  C   UNL     1     -12.362  11.347  -6.435  0.00  0.00    +0.000 C 
ATOM      4  C   UNL     1     -13.558  11.044  -5.567  0.00  0.00    +0.000 C 
ATOM      5  C   UNL     1     -11.001   7.992  -7.414  0.00  0.00    +0.000 C 
ATOM      6  C   UNL     1     -13.255   8.685  -6.585  0.00  0.00    +0.000 C 
ATOM      7  C   UNL     1     -14.346  12.124  -4.778  0.00  0.00    +0.000 C 
ATOM      8  C   UNL     1     -10.206  10.236  -7.107  0.00  0.00    +0.000 C 
ATOM      9  C   UNL     1     -13.916   9.671  -5.652  0.00  0.00    +0.000 C 
ATOM     10  C   UNL     1      -9.840   8.777  -7.160  0.00  0.00    +0.000 C 
ATOM     11  C   UNL     1     -11.903  12.679  -6.287  0.00  0.00    +0.000 C 
ATOM     12  C   UNL     1     -12.723   8.898  -9.045  0.00  0.00    +0.000 C 
ATOM     13  C   UNL     1     -13.532  13.550  -4.595  0.00  0.00    +0.000 C 
ATOM     14  C   UNL     1     -14.589  11.668  -3.378  0.00  0.00    +0.000 C 
ATOM     15  C   UNL     1     -12.508  13.706  -5.378  0.00  0.00    +0.000 C 
ATOM     16  C   UNL     1     -15.667  12.444  -5.536  0.00  0.00    +0.000 C 
ATOM     17  C   UNL     1     -13.416  14.027  -3.237  0.00  0.00    +0.000 C 
ATOM     18  C   UNL     1     -14.340  12.282  -1.990  0.00  0.00    +0.000 C 
ATOM     19  C   UNL     1     -13.729  13.569  -1.918  0.00  0.00    +0.000 C 
ENDROOT
BRANCH  19  20
ATOM     20  O   UNL     1     -14.009  14.431  -0.898  0.00  0.00    +0.000 OA
ATOM     21  H   UNL     1     -14.955  14.649  -0.866  0.00  0.00    +0.000 HD
ENDBRANCH  19  20
BRANCH   5  22
ATOM     22  C   UNL     1     -11.046   6.563  -7.448  0.00  0.00    +0.000 C 
ATOM     23  C   UNL     1     -10.759   5.775  -8.701  0.00  0.00    +0.000 C 
BRANCH  22  24
ATOM     24  C   UNL     1     -11.347   5.788  -6.295  0.00  0.00    +0.000 C 
ATOM     25  C   UNL     1     -11.680   4.974  -5.036  0.00  0.00    +0.000 C 
BRANCH  25  26
ATOM     26  C   UNL     1     -11.980   4.231  -3.855  0.00  0.00    +0.000 C 
ATOM     27  C   UNL     1     -13.208   4.469  -3.128  0.00  0.00    +0.000 C 
ATOM     28  C   UNL     1     -14.236   5.490  -3.580  0.00  0.00    +0.000 C 
ATOM     29  C   UNL     1     -13.573   3.756  -1.845  0.00  0.00    +0.000 C 
BRANCH  26  30
ATOM     30  C   UNL     1     -11.074   3.242  -3.389  0.00  0.00    +0.000 C 
ATOM     31  C   UNL     1     -10.079   2.209  -2.847  0.00  0.00    +0.000 C 
ENDBRANCH  26  30
ENDBRANCH  25  26
ENDBRANCH  22  24
ENDBRANCH   5  22
TORSDOF 5
ENDMDL
MODEL 6
REMARK VINA RESULT:      -6.2      3.002      3.794
REMARK  Name = 222284_BetaSitosterol.pdbqt.pdb
REMARK  5 active torsions:
REMARK  status: ('A' for Active; 'I' for Inactive)
REMARK    1  A    between atoms: C_5  and  C_22
REMARK    2  A    between atoms: C_19  and  O_20
REMARK    3  A    between atoms: C_22  and  C_24
REMARK    4  A    between atoms: C_25  and  C_26
REMARK    5  A    between atoms: C_26  and  C_30
REMARK                            x       y       z     vdW  Elec       q    Type
REMARK                         _______ _______ _______ _____ _____    ______ ____
ROOT
ATOM      1  C   UNL     1     -17.551   2.352  -1.954  0.00  0.00    +0.000 C 
ATOM      2  C   UNL     1     -16.348   3.280  -2.493  0.00  0.00    +0.000 C 
ATOM      3  C   UNL     1     -16.342   4.745  -2.303  0.00  0.00    +0.000 C 
ATOM      4  C   UNL     1     -17.244   5.520  -1.376  0.00  0.00    +0.000 C 
ATOM      5  C   UNL     1     -16.836   1.150  -1.354  0.00  0.00    +0.000 C 
ATOM      6  C   UNL     1     -18.252   3.174  -0.966  0.00  0.00    +0.000 C 
ATOM      7  C   UNL     1     -17.248   7.070  -1.274  0.00  0.00    +0.000 C 
ATOM      8  C   UNL     1     -15.137   2.536  -2.330  0.00  0.00    +0.000 C 
ATOM      9  C   UNL     1     -18.144   4.655  -0.695  0.00  0.00    +0.000 C 
ATOM     10  C   UNL     1     -15.437   1.256  -1.597  0.00  0.00    +0.000 C 
ATOM     11  C   UNL     1     -15.354   5.558  -2.911  0.00  0.00    +0.000 C 
ATOM     12  C   UNL     1     -18.428   1.944  -3.165  0.00  0.00    +0.000 C 
ATOM     13  C   UNL     1     -15.905   7.788  -1.913  0.00  0.00    +0.000 C 
ATOM     14  C   UNL     1     -17.234   7.493   0.158  0.00  0.00    +0.000 C 
ATOM     15  C   UNL     1     -15.187   7.030  -2.685  0.00  0.00    +0.000 C 
ATOM     16  C   UNL     1     -18.479   7.627  -2.046  0.00  0.00    +0.000 C 
ATOM     17  C   UNL     1     -15.210   8.697  -1.031  0.00  0.00    +0.000 C 
ATOM     18  C   UNL     1     -16.359   8.449   0.986  0.00  0.00    +0.000 C 
ATOM     19  C   UNL     1     -15.282   9.118   0.335  0.00  0.00    +0.000 C 
ENDROOT
BRANCH  19  20
ATOM     20  O   UNL     1     -14.869  10.355   0.734  0.00  0.00    +0.000 OA
ATOM     21  H   UNL     1     -14.300  10.304   1.521  0.00  0.00    +0.000 HD
ENDBRANCH  19  20
BRANCH   5  22
ATOM     22  C   UNL     1     -17.473   0.109  -0.609  0.00  0.00    +0.000 C 
ATOM     23  C   UNL     1     -18.970  -0.076  -0.596  0.00  0.00    +0.000 C 
BRANCH  22  24
ATOM     24  C   UNL     1     -16.736  -0.836   0.154  0.00  0.00    +0.000 C 
ATOM     25  C   UNL     1     -15.944  -1.841   1.003  0.00  0.00    +0.000 C 
BRANCH  25  26
ATOM     26  C   UNL     1     -15.200  -2.762   1.802  0.00  0.00    +0.000 C 
ATOM     27  C   UNL     1     -13.758  -2.676   1.873  0.00  0.00    +0.000 C 
ATOM     28  C   UNL     1     -12.969  -1.613   1.132  0.00  0.00    +0.000 C 
ATOM     29  C   UNL     1     -12.900  -3.643   2.659  0.00  0.00    +0.000 C 
BRANCH  26  30
ATOM     30  C   UNL     1     -15.877  -3.767   2.542  0.00  0.00    +0.000 C 
ATOM     31  C   UNL     1     -16.591  -4.829   3.387  0.00  0.00    +0.000 C 
ENDBRANCH  26  30
ENDBRANCH  25  26
ENDBRANCH  22  24
ENDBRANCH   5  22
TORSDOF 5
ENDMDL
MODEL 7
REMARK VINA RESULT:      -6.1      7.189     12.603
REMARK  Name = 222284_BetaSitosterol.pdbqt.pdb
REMARK  5 active torsions:
REMARK  status: ('A' for Active; 'I' for Inactive)
REMARK    1  A    between atoms: C_5  and  C_22
REMARK    2  A    between atoms: C_19  and  O_20
REMARK    3  A    between atoms: C_22  and  C_24
REMARK    4  A    between atoms: C_25  and  C_26
REMARK    5  A    between atoms: C_26  and  C_30
REMARK                            x       y       z     vdW  Elec       q    Type
REMARK                         _______ _______ _______ _____ _____    ______ ____
ROOT
ATOM      1  C   UNL     1     -22.326  11.035   1.593  0.00  0.00    +0.000 C 
ATOM      2  C   UNL     1     -22.380  10.059   0.311  0.00  0.00    +0.000 C 
ATOM      3  C   UNL     1     -21.155   9.531  -0.325  0.00  0.00    +0.000 C 
ATOM      4  C   UNL     1     -19.766   9.570   0.263  0.00  0.00    +0.000 C 
ATOM      5  C   UNL     1     -23.428  10.502   2.496  0.00  0.00    +0.000 C 
ATOM      6  C   UNL     1     -20.980  10.867   2.143  0.00  0.00    +0.000 C 
ATOM      7  C   UNL     1     -18.500   9.069  -0.484  0.00  0.00    +0.000 C 
ATOM      8  C   UNL     1     -23.519   9.209   0.476  0.00  0.00    +0.000 C 
ATOM      9  C   UNL     1     -19.766  10.210   1.532  0.00  0.00    +0.000 C 
ATOM     10  C   UNL     1     -24.129   9.456   1.830  0.00  0.00    +0.000 C 
ATOM     11  C   UNL     1     -21.216   8.798  -1.535  0.00  0.00    +0.000 C 
ATOM     12  C   UNL     1     -22.632  12.478   1.116  0.00  0.00    +0.000 C 
ATOM     13  C   UNL     1     -18.825   8.091  -1.775  0.00  0.00    +0.000 C 
ATOM     14  C   UNL     1     -17.674   8.212   0.416  0.00  0.00    +0.000 C 
ATOM     15  C   UNL     1     -20.054   8.118  -2.194  0.00  0.00    +0.000 C 
ATOM     16  C   UNL     1     -17.711  10.297  -1.025  0.00  0.00    +0.000 C 
ATOM     17  C   UNL     1     -18.146   6.816  -1.772  0.00  0.00    +0.000 C 
ATOM     18  C   UNL     1     -17.066   6.804   0.298  0.00  0.00    +0.000 C 
ATOM     19  C   UNL     1     -17.301   6.063  -0.897  0.00  0.00    +0.000 C 
ENDROOT
BRANCH  19  20
ATOM     20  O   UNL     1     -16.388   5.164  -1.366  0.00  0.00    +0.000 OA
ATOM     21  H   UNL     1     -16.757   4.623  -2.084  0.00  0.00    +0.000 HD
ENDBRANCH  19  20
BRANCH   5  22
ATOM     22  C   UNL     1     -23.675  10.948   3.832  0.00  0.00    +0.000 C 
ATOM     23  C   UNL     1     -24.132  10.013   4.924  0.00  0.00    +0.000 C 
BRANCH  22  24
ATOM     24  C   UNL     1     -23.488  12.300   4.227  0.00  0.00    +0.000 C 
ATOM     25  C   UNL     1     -23.290  13.754   4.680  0.00  0.00    +0.000 C 
BRANCH  25  26
ATOM     26  C   UNL     1     -23.122  15.105   5.113  0.00  0.00    +0.000 C 
ATOM     27  C   UNL     1     -22.605  16.108   4.208  0.00  0.00    +0.000 C 
ATOM     28  C   UNL     1     -22.236  15.795   2.770  0.00  0.00    +0.000 C 
ATOM     29  C   UNL     1     -22.355  17.546   4.608  0.00  0.00    +0.000 C 
BRANCH  26  30
ATOM     30  C   UNL     1     -23.471  15.472   6.439  0.00  0.00    +0.000 C 
ATOM     31  C   UNL     1     -23.811  15.833   7.890  0.00  0.00    +0.000 C 
ENDBRANCH  26  30
ENDBRANCH  25  26
ENDBRANCH  22  24
ENDBRANCH   5  22
TORSDOF 5
ENDMDL
MODEL 8
REMARK VINA RESULT:      -6.1     17.389     22.553
REMARK  Name = 222284_BetaSitosterol.pdbqt.pdb
REMARK  5 active torsions:
REMARK  status: ('A' for Active; 'I' for Inactive)
REMARK    1  A    between atoms: C_5  and  C_22
REMARK    2  A    between atoms: C_19  and  O_20
REMARK    3  A    between atoms: C_22  and  C_24
REMARK    4  A    between atoms: C_25  and  C_26
REMARK    5  A    between atoms: C_26  and  C_30
REMARK                            x       y       z     vdW  Elec       q    Type
REMARK                         _______ _______ _______ _____ _____    ______ ____
ROOT
ATOM      1  C   UNL     1     -23.954  19.636  13.336  0.00  0.00    +0.000 C 
ATOM      2  C   UNL     1     -24.908  18.450  12.803  0.00  0.00    +0.000 C 
ATOM      3  C   UNL     1     -24.570  17.650  11.607  0.00  0.00    +0.000 C 
ATOM      4  C   UNL     1     -23.230  17.612  10.917  0.00  0.00    +0.000 C 
ATOM      5  C   UNL     1     -23.945  19.438  14.844  0.00  0.00    +0.000 C 
ATOM      6  C   UNL     1     -22.657  19.395  12.702  0.00  0.00    +0.000 C 
ATOM      7  C   UNL     1     -22.952  16.813   9.616  0.00  0.00    +0.000 C 
ATOM      8  C   UNL     1     -25.466  17.809  13.954  0.00  0.00    +0.000 C 
ATOM      9  C   UNL     1     -22.300  18.476  11.559  0.00  0.00    +0.000 C 
ATOM     10  C   UNL     1     -24.842  18.389  15.195  0.00  0.00    +0.000 C 
ATOM     11  C   UNL     1     -25.488  16.715  11.069  0.00  0.00    +0.000 C 
ATOM     12  C   UNL     1     -24.601  20.989  12.945  0.00  0.00    +0.000 C 
ATOM     13  C   UNL     1     -24.087  15.659   9.281  0.00  0.00    +0.000 C 
ATOM     14  C   UNL     1     -21.682  16.039   9.745  0.00  0.00    +0.000 C 
ATOM     15  C   UNL     1     -25.200  15.772   9.940  0.00  0.00    +0.000 C 
ATOM     16  C   UNL     1     -22.929  17.797   8.410  0.00  0.00    +0.000 C 
ATOM     17  C   UNL     1     -23.571  14.328   9.060  0.00  0.00    +0.000 C 
ATOM     18  C   UNL     1     -21.296  14.566   9.532  0.00  0.00    +0.000 C 
ATOM     19  C   UNL     1     -22.314  13.649   9.137  0.00  0.00    +0.000 C 
ENDROOT
BRANCH  19  20
ATOM     20  O   UNL     1     -22.029  12.563   8.362  0.00  0.00    +0.000 OA
ATOM     21  H   UNL     1     -21.520  11.897   8.854  0.00  0.00    +0.000 HD
ENDBRANCH  19  20
BRANCH   5  22
ATOM     22  C   UNL     1     -23.113  20.159  15.757  0.00  0.00    +0.000 C 
ATOM     23  C   UNL     1     -23.344  20.141  17.247  0.00  0.00    +0.000 C 
BRANCH  22  24
ATOM     24  C   UNL     1     -21.999  20.926  15.322  0.00  0.00    +0.000 C 
ATOM     25  C   UNL     1     -20.807  21.760  14.827  0.00  0.00    +0.000 C 
BRANCH  25  26
ATOM     26  C   UNL     1     -19.700  22.525  14.349  0.00  0.00    +0.000 C 
ATOM     27  C   UNL     1     -19.587  23.932  14.666  0.00  0.00    +0.000 C 
ATOM     28  C   UNL     1     -20.608  24.658  15.523  0.00  0.00    +0.000 C 
ATOM     29  C   UNL     1     -18.470  24.817  14.158  0.00  0.00    +0.000 C 
BRANCH  26  30
ATOM     30  C   UNL     1     -18.695  21.903  13.562  0.00  0.00    +0.000 C 
ATOM     31  C   UNL     1     -17.629  21.182  12.729  0.00  0.00    +0.000 C 
ENDBRANCH  26  30
ENDBRANCH  25  26
ENDBRANCH  22  24
ENDBRANCH   5  22
TORSDOF 5
ENDMDL
MODEL 9
REMARK VINA RESULT:      -5.9     18.797     22.581
REMARK  Name = 222284_BetaSitosterol.pdbqt.pdb
REMARK  5 active torsions:
REMARK  status: ('A' for Active; 'I' for Inactive)
REMARK    1  A    between atoms: C_5  and  C_22
REMARK    2  A    between atoms: C_19  and  O_20
REMARK    3  A    between atoms: C_22  and  C_24
REMARK    4  A    between atoms: C_25  and  C_26
REMARK    5  A    between atoms: C_26  and  C_30
REMARK                            x       y       z     vdW  Elec       q    Type
REMARK                         _______ _______ _______ _____ _____    ______ ____
ROOT
ATOM      1  C   UNL     1     -10.651   4.155  20.634  0.00  0.00    +0.000 C 
ATOM      2  C   UNL     1      -9.816   5.474  20.227  0.00  0.00    +0.000 C 
ATOM      3  C   UNL     1      -8.556   5.398  19.460  0.00  0.00    +0.000 C 
ATOM      4  C   UNL     1      -8.040   4.187  18.724  0.00  0.00    +0.000 C 
ATOM      5  C   UNL     1     -12.095   4.547  20.363  0.00  0.00    +0.000 C 
ATOM      6  C   UNL     1     -10.150   3.100  19.751  0.00  0.00    +0.000 C 
ATOM      7  C   UNL     1      -6.668   4.140  17.997  0.00  0.00    +0.000 C 
ATOM      8  C   UNL     1     -10.768   6.500  19.933  0.00  0.00    +0.000 C 
ATOM      9  C   UNL     1      -8.924   3.084  18.871  0.00  0.00    +0.000 C 
ATOM     10  C   UNL     1     -12.155   5.917  19.977  0.00  0.00    +0.000 C 
ATOM     11  C   UNL     1      -7.763   6.551  19.240  0.00  0.00    +0.000 C 
ATOM     12  C   UNL     1     -10.411   3.877  22.140  0.00  0.00    +0.000 C 
ATOM     13  C   UNL     1      -6.011   5.628  17.705  0.00  0.00    +0.000 C 
ATOM     14  C   UNL     1      -6.824   3.544  16.638  0.00  0.00    +0.000 C 
ATOM     15  C   UNL     1      -6.538   6.606  18.378  0.00  0.00    +0.000 C 
ATOM     16  C   UNL     1      -5.653   3.356  18.878  0.00  0.00    +0.000 C 
ATOM     17  C   UNL     1      -5.639   5.882  16.333  0.00  0.00    +0.000 C 
ATOM     18  C   UNL     1      -6.420   3.984  15.220  0.00  0.00    +0.000 C 
ATOM     19  C   UNL     1      -5.757   5.236  15.061  0.00  0.00    +0.000 C 
ENDROOT
BRANCH  19  20
ATOM     20  O   UNL     1      -4.855   5.440  14.059  0.00  0.00    +0.000 OA
ATOM     21  H   UNL     1      -5.056   6.247  13.557  0.00  0.00    +0.000 HD
ENDBRANCH  19  20
BRANCH   5  22
ATOM     22  C   UNL     1     -13.209   3.653  20.428  0.00  0.00    +0.000 C 
ATOM     23  C   UNL     1     -13.097   2.193  20.071  0.00  0.00    +0.000 C 
BRANCH  22  24
ATOM     24  C   UNL     1     -14.497   4.078  20.856  0.00  0.00    +0.000 C 
ATOM     25  C   UNL     1     -15.883   4.524  21.342  0.00  0.00    +0.000 C 
BRANCH  25  26
ATOM     26  C   UNL     1     -17.176   4.922  21.802  0.00  0.00    +0.000 C 
ATOM     27  C   UNL     1     -17.432   5.097  23.215  0.00  0.00    +0.000 C 
ATOM     28  C   UNL     1     -16.360   4.890  24.268  0.00  0.00    +0.000 C 
ATOM     29  C   UNL     1     -18.785   5.469  23.780  0.00  0.00    +0.000 C 
BRANCH  26  30
ATOM     30  C   UNL     1     -18.219   5.157  20.868  0.00  0.00    +0.000 C 
ATOM     31  C   UNL     1     -19.324   5.372  19.827  0.00  0.00    +0.000 C 
ENDBRANCH  26  30
ENDBRANCH  25  26
ENDBRANCH  22  24
ENDBRANCH   5  22
TORSDOF 5
ENDMDL
