MODEL 1
REMARK VINA RESULT:      -5.8      0.000      0.000
REMARK  Name = 25023738_BI-D-1870.pdbqt.pdb
REMARK  4 active torsions:
REMARK  status: ('A' for Active; 'I' for Inactive)
REMARK    1  A    between atoms: N_2  and  C_26
REMARK    2  A    between atoms: N_14  and  C_16
REMARK    3  A    between atoms: C_20  and  O_24
REMARK    4  A    between atoms: C_27  and  C_28
REMARK                            x       y       z     vdW  Elec       q    Type
REMARK                         _______ _______ _______ _____ _____    ______ ____
ROOT
ATOM      1  O   UNL     1     -24.358  12.048   1.054  0.00  0.00    +0.000 OA
ATOM      2  N   UNL     1     -23.590  13.755   4.150  0.00  0.00    +0.000 N 
ATOM      3  N   UNL     1     -24.209  11.172   3.208  0.00  0.00    +0.000 N 
ATOM      4  N   UNL     1     -23.426  12.906   6.373  0.00  0.00    +0.000 NA
ATOM      5  N   UNL     1     -23.778  10.642   6.864  0.00  0.00    +0.000 NA
ATOM      6  C   UNL     1     -23.818  13.584   2.801  0.00  0.00    +0.000 C 
ATOM      7  C   UNL     1     -23.660  12.680   5.060  0.00  0.00    +0.000 A 
ATOM      8  C   UNL     1     -24.152  12.216   2.260  0.00  0.00    +0.000 C 
ATOM      9  C   UNL     1     -23.963  11.423   4.585  0.00  0.00    +0.000 A 
ATOM     10  C   UNL     1     -23.733  14.778   1.856  0.00  0.00    +0.000 C 
ATOM     11  C   UNL     1     -24.515   9.785   2.874  0.00  0.00    +0.000 C 
ATOM     12  C   UNL     1     -24.005  10.443   5.552  0.00  0.00    +0.000 A 
ATOM     13  C   UNL     1     -23.491  11.886   7.241  0.00  0.00    +0.000 A 
ATOM     14  N   UNL     1     -23.259  12.077   8.596  0.00  0.00    +0.000 N 
ATOM     15  H   UNL     1     -23.347  11.207   9.106  0.00  0.00    +0.000 HD
ENDROOT
BRANCH  14  16
ATOM     16  C   UNL     1     -22.936  13.225   9.329  0.00  0.00    +0.000 A 
ATOM     17  C   UNL     1     -23.834  13.692  10.297  0.00  0.00    +0.000 A 
ATOM     18  C   UNL     1     -23.547  14.832  11.047  0.00  0.00    +0.000 A 
ATOM     19  F   UNL     1     -24.433  15.248  11.964  0.00  0.00    +0.000 F 
ATOM     20  C   UNL     1     -22.361  15.527  10.845  0.00  0.00    +0.000 A 
ATOM     21  C   UNL     1     -21.467  15.070   9.888  0.00  0.00    +0.000 A 
ATOM     22  F   UNL     1     -20.318  15.732   9.685  0.00  0.00    +0.000 F 
ATOM     23  C   UNL     1     -21.746  13.932   9.136  0.00  0.00    +0.000 A 
BRANCH  20  24
ATOM     24  O   UNL     1     -22.086  16.643  11.583  0.00  0.00    +0.000 OA
ATOM     25  H   UNL     1     -21.580  17.260  11.020  0.00  0.00    +0.000 HD
ENDBRANCH  20  24
ENDBRANCH  14  16
BRANCH   2  26
ATOM     26  C   UNL     1     -23.269  15.078   4.679  0.00  0.00    +0.000 C 
ATOM     27  C   UNL     1     -22.934  16.466   5.239  0.00  0.00    +0.000 C 
BRANCH  27  28
ATOM     28  C   UNL     1     -22.623  17.746   5.750  0.00  0.00    +0.000 C 
ATOM     29  C   UNL     1     -21.916  17.872   7.065  0.00  0.00    +0.000 C 
ATOM     30  C   UNL     1     -23.047  18.972   5.002  0.00  0.00    +0.000 C 
ENDBRANCH  27  28
ENDBRANCH   2  26
TORSDOF 4
ENDMDL
MODEL 2
REMARK VINA RESULT:      -5.6     18.308     19.658
REMARK  Name = 25023738_BI-D-1870.pdbqt.pdb
REMARK  4 active torsions:
REMARK  status: ('A' for Active; 'I' for Inactive)
REMARK    1  A    between atoms: N_2  and  C_26
REMARK    2  A    between atoms: N_14  and  C_16
REMARK    3  A    between atoms: C_20  and  O_24
REMARK    4  A    between atoms: C_27  and  C_28
REMARK                            x       y       z     vdW  Elec       q    Type
REMARK                         _______ _______ _______ _____ _____    ______ ____
ROOT
ATOM      1  O   UNL     1      -7.463  17.363  17.305  0.00  0.00    +0.000 OA
ATOM      2  N   UNL     1      -9.990  17.553  19.887  0.00  0.00    +0.000 N 
ATOM      3  N   UNL     1      -9.158  18.938  17.578  0.00  0.00    +0.000 N 
ATOM      4  N   UNL     1     -11.741  19.140  20.210  0.00  0.00    +0.000 NA
ATOM      5  N   UNL     1     -12.064  20.943  18.747  0.00  0.00    +0.000 NA
ATOM      6  C   UNL     1      -8.906  17.070  19.186  0.00  0.00    +0.000 C 
ATOM      7  C   UNL     1     -10.684  18.712  19.482  0.00  0.00    +0.000 A 
ATOM      8  C   UNL     1      -8.432  17.785  17.944  0.00  0.00    +0.000 C 
ATOM      9  C   UNL     1     -10.267  19.378  18.352  0.00  0.00    +0.000 A 
ATOM     10  C   UNL     1      -8.187  15.814  19.664  0.00  0.00    +0.000 C 
ATOM     11  C   UNL     1      -8.849  19.758  16.411  0.00  0.00    +0.000 C 
ATOM     12  C   UNL     1     -11.010  20.496  18.040  0.00  0.00    +0.000 A 
ATOM     13  C   UNL     1     -12.404  20.242  19.827  0.00  0.00    +0.000 A 
ATOM     14  N   UNL     1     -13.493  20.714  20.547  0.00  0.00    +0.000 N 
ATOM     15  H   UNL     1     -13.874  21.550  20.121  0.00  0.00    +0.000 HD
ENDROOT
BRANCH  14  16
ATOM     16  C   UNL     1     -14.115  20.237  21.706  0.00  0.00    +0.000 A 
ATOM     17  C   UNL     1     -15.252  19.426  21.587  0.00  0.00    +0.000 A 
ATOM     18  C   UNL     1     -15.899  18.933  22.719  0.00  0.00    +0.000 A 
ATOM     19  F   UNL     1     -16.984  18.160  22.563  0.00  0.00    +0.000 F 
ATOM     20  C   UNL     1     -15.427  19.238  23.988  0.00  0.00    +0.000 A 
ATOM     21  C   UNL     1     -14.302  20.041  24.114  0.00  0.00    +0.000 A 
ATOM     22  F   UNL     1     -13.836  20.342  25.336  0.00  0.00    +0.000 F 
ATOM     23  C   UNL     1     -13.650  20.536  22.989  0.00  0.00    +0.000 A 
BRANCH  20  24
ATOM     24  O   UNL     1     -16.066  18.751  25.094  0.00  0.00    +0.000 OA
ATOM     25  H   UNL     1     -16.511  17.919  24.843  0.00  0.00    +0.000 HD
ENDBRANCH  20  24
ENDBRANCH  14  16
BRANCH   2  26
ATOM     26  C   UNL     1     -10.451  16.866  21.091  0.00  0.00    +0.000 C 
ATOM     27  C   UNL     1     -10.940  16.144  22.352  0.00  0.00    +0.000 C 
BRANCH  27  28
ATOM     28  C   UNL     1     -11.386  15.479  23.516  0.00  0.00    +0.000 C 
ATOM     29  C   UNL     1     -12.741  15.783  24.077  0.00  0.00    +0.000 C 
ATOM     30  C   UNL     1     -10.482  14.511  24.215  0.00  0.00    +0.000 C 
ENDBRANCH  27  28
ENDBRANCH   2  26
TORSDOF 4
ENDMDL
MODEL 3
REMARK VINA RESULT:      -5.5     11.376     14.150
REMARK  Name = 25023738_BI-D-1870.pdbqt.pdb
REMARK  4 active torsions:
REMARK  status: ('A' for Active; 'I' for Inactive)
REMARK    1  A    between atoms: N_2  and  C_26
REMARK    2  A    between atoms: N_14  and  C_16
REMARK    3  A    between atoms: C_20  and  O_24
REMARK    4  A    between atoms: C_27  and  C_28
REMARK                            x       y       z     vdW  Elec       q    Type
REMARK                         _______ _______ _______ _____ _____    ______ ____
ROOT
ATOM      1  O   UNL     1     -17.339   0.693  -4.814  0.00  0.00    +0.000 OA
ATOM      2  N   UNL     1     -16.508   4.101  -3.929  0.00  0.00    +0.000 N 
ATOM      3  N   UNL     1     -17.986   1.915  -2.939  0.00  0.00    +0.000 N 
ATOM      4  N   UNL     1     -17.143   5.393  -2.026  0.00  0.00    +0.000 NA
ATOM      5  N   UNL     1     -18.517   4.521  -0.339  0.00  0.00    +0.000 NA
ATOM      6  C   UNL     1     -16.530   2.935  -4.664  0.00  0.00    +0.000 C 
ATOM      7  C   UNL     1     -17.200   4.225  -2.706  0.00  0.00    +0.000 A 
ATOM      8  C   UNL     1     -17.311   1.743  -4.166  0.00  0.00    +0.000 C 
ATOM      9  C   UNL     1     -17.918   3.148  -2.235  0.00  0.00    +0.000 A 
ATOM     10  C   UNL     1     -15.767   2.850  -5.981  0.00  0.00    +0.000 C 
ATOM     11  C   UNL     1     -18.789   0.878  -2.300  0.00  0.00    +0.000 C 
ATOM     12  C   UNL     1     -18.557   3.370  -1.034  0.00  0.00    +0.000 A 
ATOM     13  C   UNL     1     -17.800   5.514  -0.863  0.00  0.00    +0.000 A 
ATOM     14  N   UNL     1     -17.766   6.696  -0.136  0.00  0.00    +0.000 N 
ATOM     15  H   UNL     1     -18.313   6.615   0.712  0.00  0.00    +0.000 HD
ENDROOT
BRANCH  14  16
ATOM     16  C   UNL     1     -17.125   7.916  -0.379  0.00  0.00    +0.000 A 
ATOM     17  C   UNL     1     -16.206   8.404   0.559  0.00  0.00    +0.000 A 
ATOM     18  C   UNL     1     -15.548   9.615   0.351  0.00  0.00    +0.000 A 
ATOM     19  F   UNL     1     -14.675  10.047   1.273  0.00  0.00    +0.000 F 
ATOM     20  C   UNL     1     -15.794  10.362  -0.793  0.00  0.00    +0.000 A 
ATOM     21  C   UNL     1     -16.704   9.886  -1.726  0.00  0.00    +0.000 A 
ATOM     22  F   UNL     1     -16.949  10.599  -2.836  0.00  0.00    +0.000 F 
ATOM     23  C   UNL     1     -17.363   8.677  -1.526  0.00  0.00    +0.000 A 
BRANCH  20  24
ATOM     24  O   UNL     1     -15.146  11.549  -0.990  0.00  0.00    +0.000 OA
ATOM     25  H   UNL     1     -14.192  11.399  -0.846  0.00  0.00    +0.000 HD
ENDBRANCH  20  24
ENDBRANCH  14  16
BRANCH   2  26
ATOM     26  C   UNL     1     -15.756   5.258  -4.408  0.00  0.00    +0.000 C 
ATOM     27  C   UNL     1     -14.966   6.474  -4.906  0.00  0.00    +0.000 C 
BRANCH  27  28
ATOM     28  C   UNL     1     -14.238   7.593  -5.370  0.00  0.00    +0.000 C 
ATOM     29  C   UNL     1     -14.500   8.947  -4.786  0.00  0.00    +0.000 C 
ATOM     30  C   UNL     1     -13.245   7.429  -6.479  0.00  0.00    +0.000 C 
ENDBRANCH  27  28
ENDBRANCH   2  26
TORSDOF 4
ENDMDL
MODEL 4
REMARK VINA RESULT:      -4.7      1.945      4.688
REMARK  Name = 25023738_BI-D-1870.pdbqt.pdb
REMARK  4 active torsions:
REMARK  status: ('A' for Active; 'I' for Inactive)
REMARK    1  A    between atoms: N_2  and  C_26
REMARK    2  A    between atoms: N_14  and  C_16
REMARK    3  A    between atoms: C_20  and  O_24
REMARK    4  A    between atoms: C_27  and  C_28
REMARK                            x       y       z     vdW  Elec       q    Type
REMARK                         _______ _______ _______ _____ _____    ______ ____
ROOT
ATOM      1  O   UNL     1     -23.520  13.348   0.383  0.00  0.00    +0.000 OA
ATOM      2  N   UNL     1     -23.302  13.778   3.968  0.00  0.00    +0.000 N 
ATOM      3  N   UNL     1     -23.485  15.322   1.618  0.00  0.00    +0.000 N 
ATOM      4  N   UNL     1     -23.263  15.773   5.277  0.00  0.00    +0.000 NA
ATOM      5  N   UNL     1     -23.371  17.900   4.297  0.00  0.00    +0.000 NA
ATOM      6  C   UNL     1     -23.364  13.126   2.756  0.00  0.00    +0.000 C 
ATOM      7  C   UNL     1     -23.326  15.185   4.059  0.00  0.00    +0.000 A 
ATOM      8  C   UNL     1     -23.463  13.919   1.476  0.00  0.00    +0.000 C 
ATOM      9  C   UNL     1     -23.416  15.927   2.903  0.00  0.00    +0.000 A 
ATOM     10  C   UNL     1     -23.333  11.602   2.708  0.00  0.00    +0.000 C 
ATOM     11  C   UNL     1     -23.577  16.252   0.497  0.00  0.00    +0.000 C 
ATOM     12  C   UNL     1     -23.434  17.291   3.098  0.00  0.00    +0.000 A 
ATOM     13  C   UNL     1     -23.286  17.111   5.367  0.00  0.00    +0.000 A 
ATOM     14  N   UNL     1     -23.222  17.751   6.597  0.00  0.00    +0.000 N 
ATOM     15  H   UNL     1     -23.251  18.757   6.484  0.00  0.00    +0.000 HD
ENDROOT
BRANCH  14  16
ATOM     16  C   UNL     1     -23.131  17.249   7.900  0.00  0.00    +0.000 A 
ATOM     17  C   UNL     1     -21.894  16.785   8.368  0.00  0.00    +0.000 A 
ATOM     18  C   UNL     1     -21.765  16.278   9.660  0.00  0.00    +0.000 A 
ATOM     19  F   UNL     1     -20.565  15.844  10.071  0.00  0.00    +0.000 F 
ATOM     20  C   UNL     1     -22.863  16.224  10.508  0.00  0.00    +0.000 A 
ATOM     21  C   UNL     1     -24.091  16.681  10.052  0.00  0.00    +0.000 A 
ATOM     22  F   UNL     1     -25.159  16.634  10.862  0.00  0.00    +0.000 F 
ATOM     23  C   UNL     1     -24.228  17.189   8.763  0.00  0.00    +0.000 A 
BRANCH  20  24
ATOM     24  O   UNL     1     -22.729  15.725  11.774  0.00  0.00    +0.000 OA
ATOM     25  H   UNL     1     -23.588  15.820  12.228  0.00  0.00    +0.000 HD
ENDBRANCH  20  24
ENDBRANCH  14  16
BRANCH   2  26
ATOM     26  C   UNL     1     -23.204  13.015   5.210  0.00  0.00    +0.000 C 
ATOM     27  C   UNL     1     -23.105  12.211   6.512  0.00  0.00    +0.000 C 
BRANCH  27  28
ATOM     28  C   UNL     1     -23.010  11.472   7.712  0.00  0.00    +0.000 C 
ATOM     29  C   UNL     1     -22.966  12.189   9.027  0.00  0.00    +0.000 C 
ATOM     30  C   UNL     1     -22.900   9.980   7.663  0.00  0.00    +0.000 C 
ENDBRANCH  27  28
ENDBRANCH   2  26
TORSDOF 4
ENDMDL
MODEL 5
REMARK VINA RESULT:      -4.7     19.741     22.143
REMARK  Name = 25023738_BI-D-1870.pdbqt.pdb
REMARK  4 active torsions:
REMARK  status: ('A' for Active; 'I' for Inactive)
REMARK    1  A    between atoms: N_2  and  C_26
REMARK    2  A    between atoms: N_14  and  C_16
REMARK    3  A    between atoms: C_20  and  O_24
REMARK    4  A    between atoms: C_27  and  C_28
REMARK                            x       y       z     vdW  Elec       q    Type
REMARK                         _______ _______ _______ _____ _____    ______ ____
ROOT
ATOM      1  O   UNL     1      -9.113   7.275  16.309  0.00  0.00    +0.000 OA
ATOM      2  N   UNL     1     -10.367   4.589  18.384  0.00  0.00    +0.000 N 
ATOM      3  N   UNL     1      -8.288   5.110  16.554  0.00  0.00    +0.000 N 
ATOM      4  N   UNL     1      -9.561   2.362  18.668  0.00  0.00    +0.000 NA
ATOM      5  N   UNL     1      -7.674   1.572  17.524  0.00  0.00    +0.000 NA
ATOM      6  C   UNL     1     -10.292   5.841  17.812  0.00  0.00    +0.000 C 
ATOM      7  C   UNL     1      -9.439   3.573  18.077  0.00  0.00    +0.000 A 
ATOM      8  C   UNL     1      -9.193   6.157  16.828  0.00  0.00    +0.000 C 
ATOM      9  C   UNL     1      -8.428   3.842  17.181  0.00  0.00    +0.000 A 
ATOM     10  C   UNL     1     -11.320   6.908  18.174  0.00  0.00    +0.000 C 
ATOM     11  C   UNL     1      -7.163   5.226  15.632  0.00  0.00    +0.000 C 
ATOM     12  C   UNL     1      -7.574   2.785  16.950  0.00  0.00    +0.000 A 
ATOM     13  C   UNL     1      -8.679   1.394  18.379  0.00  0.00    +0.000 A 
ATOM     14  N   UNL     1      -8.770   0.138  18.964  0.00  0.00    +0.000 N 
ATOM     15  H   UNL     1      -8.030  -0.469  18.637  0.00  0.00    +0.000 HD
ENDROOT
BRANCH  14  16
ATOM     16  C   UNL     1      -9.678  -0.390  19.889  0.00  0.00    +0.000 A 
ATOM     17  C   UNL     1      -9.607   0.022  21.227  0.00  0.00    +0.000 A 
ATOM     18  C   UNL     1     -10.495  -0.481  22.177  0.00  0.00    +0.000 A 
ATOM     19  F   UNL     1     -10.394  -0.062  23.447  0.00  0.00    +0.000 F 
ATOM     20  C   UNL     1     -11.466  -1.404  21.813  0.00  0.00    +0.000 A 
ATOM     21  C   UNL     1     -11.542  -1.818  20.491  0.00  0.00    +0.000 A 
ATOM     22  F   UNL     1     -12.477  -2.708  20.127  0.00  0.00    +0.000 F 
ATOM     23  C   UNL     1     -10.660  -1.318  19.537  0.00  0.00    +0.000 A 
BRANCH  20  24
ATOM     24  O   UNL     1     -12.332  -1.894  22.750  0.00  0.00    +0.000 OA
ATOM     25  H   UNL     1     -13.149  -2.168  22.291  0.00  0.00    +0.000 HD
ENDBRANCH  20  24
ENDBRANCH  14  16
BRANCH   2  26
ATOM     26  C   UNL     1     -11.431   4.278  19.335  0.00  0.00    +0.000 C 
ATOM     27  C   UNL     1     -12.546   3.956  20.337  0.00  0.00    +0.000 C 
BRANCH  27  28
ATOM     28  C   UNL     1     -13.576   3.655  21.257  0.00  0.00    +0.000 C 
ATOM     29  C   UNL     1     -14.923   4.290  21.102  0.00  0.00    +0.000 C 
ATOM     30  C   UNL     1     -13.301   2.743  22.412  0.00  0.00    +0.000 C 
ENDBRANCH  27  28
ENDBRANCH   2  26
TORSDOF 4
ENDMDL
MODEL 6
REMARK VINA RESULT:      -4.7     11.845     14.857
REMARK  Name = 25023738_BI-D-1870.pdbqt.pdb
REMARK  4 active torsions:
REMARK  status: ('A' for Active; 'I' for Inactive)
REMARK    1  A    between atoms: N_2  and  C_26
REMARK    2  A    between atoms: N_14  and  C_16
REMARK    3  A    between atoms: C_20  and  O_24
REMARK    4  A    between atoms: C_27  and  C_28
REMARK                            x       y       z     vdW  Elec       q    Type
REMARK                         _______ _______ _______ _____ _____    ______ ____
ROOT
ATOM      1  O   UNL     1     -15.935  -0.209  -2.646  0.00  0.00    +0.000 OA
ATOM      2  N   UNL     1     -15.761   3.376  -3.104  0.00  0.00    +0.000 N 
ATOM      3  N   UNL     1     -17.145   1.463  -1.565  0.00  0.00    +0.000 N 
ATOM      4  N   UNL     1     -16.976   5.123  -2.026  0.00  0.00    +0.000 NA
ATOM      5  N   UNL     1     -18.584   4.681  -0.379  0.00  0.00    +0.000 NA
ATOM      6  C   UNL     1     -15.467   2.043  -3.294  0.00  0.00    +0.000 C 
ATOM      7  C   UNL     1     -16.728   3.801  -2.170  0.00  0.00    +0.000 A 
ATOM      8  C   UNL     1     -16.188   0.989  -2.488  0.00  0.00    +0.000 C 
ATOM      9  C   UNL     1     -17.396   2.855  -1.425  0.00  0.00    +0.000 A 
ATOM     10  C   UNL     1     -14.415   1.632  -4.317  0.00  0.00    +0.000 C 
ATOM     11  C   UNL     1     -17.939   0.597  -0.700  0.00  0.00    +0.000 C 
ATOM     12  C   UNL     1     -18.319   3.371  -0.541  0.00  0.00    +0.000 A 
ATOM     13  C   UNL     1     -17.894   5.531  -1.138  0.00  0.00    +0.000 A 
ATOM     14  N   UNL     1     -18.177   6.878  -0.961  0.00  0.00    +0.000 N 
ATOM     15  H   UNL     1     -18.891   7.009  -0.255  0.00  0.00    +0.000 HD
ENDROOT
BRANCH  14  16
ATOM     16  C   UNL     1     -17.654   8.024  -1.572  0.00  0.00    +0.000 A 
ATOM     17  C   UNL     1     -18.534   8.984  -2.090  0.00  0.00    +0.000 A 
ATOM     18  C   UNL     1     -18.050  10.137  -2.705  0.00  0.00    +0.000 A 
ATOM     19  F   UNL     1     -18.925  11.032  -3.188  0.00  0.00    +0.000 F 
ATOM     20  C   UNL     1     -16.684  10.355  -2.817  0.00  0.00    +0.000 A 
ATOM     21  C   UNL     1     -15.806   9.409  -2.307  0.00  0.00    +0.000 A 
ATOM     22  F   UNL     1     -14.484   9.609  -2.408  0.00  0.00    +0.000 F 
ATOM     23  C   UNL     1     -16.281   8.255  -1.690  0.00  0.00    +0.000 A 
BRANCH  20  24
ATOM     24  O   UNL     1     -16.216  11.488  -3.422  0.00  0.00    +0.000 OA
ATOM     25  H   UNL     1     -16.204  11.332  -4.386  0.00  0.00    +0.000 HD
ENDBRANCH  20  24
ENDBRANCH  14  16
BRANCH   2  26
ATOM     26  C   UNL     1     -15.068   4.399  -3.883  0.00  0.00    +0.000 C 
ATOM     27  C   UNL     1     -14.344   5.472  -4.705  0.00  0.00    +0.000 C 
BRANCH  27  28
ATOM     28  C   UNL     1     -13.673   6.462  -5.458  0.00  0.00    +0.000 C 
ATOM     29  C   UNL     1     -14.237   7.848  -5.537  0.00  0.00    +0.000 C 
ATOM     30  C   UNL     1     -12.431   6.109  -6.216  0.00  0.00    +0.000 C 
ENDBRANCH  27  28
ENDBRANCH   2  26
TORSDOF 4
ENDMDL
MODEL 7
REMARK VINA RESULT:      -4.7     20.813     22.289
REMARK  Name = 25023738_BI-D-1870.pdbqt.pdb
REMARK  4 active torsions:
REMARK  status: ('A' for Active; 'I' for Inactive)
REMARK    1  A    between atoms: N_2  and  C_26
REMARK    2  A    between atoms: N_14  and  C_16
REMARK    3  A    between atoms: C_20  and  O_24
REMARK    4  A    between atoms: C_27  and  C_28
REMARK                            x       y       z     vdW  Elec       q    Type
REMARK                         _______ _______ _______ _____ _____    ______ ____
ROOT
ATOM      1  O   UNL     1      -9.902   9.877  22.969  0.00  0.00    +0.000 OA
ATOM      2  N   UNL     1      -8.933   7.503  20.417  0.00  0.00    +0.000 N 
ATOM      3  N   UNL     1      -8.307  10.109  21.287  0.00  0.00    +0.000 N 
ATOM      4  N   UNL     1      -7.311   7.693  18.678  0.00  0.00    +0.000 NA
ATOM      5  N   UNL     1      -6.026   9.632  18.388  0.00  0.00    +0.000 NA
ATOM      6  C   UNL     1      -9.611   8.014  21.503  0.00  0.00    +0.000 C 
ATOM      7  C   UNL     1      -7.945   8.245  19.738  0.00  0.00    +0.000 A 
ATOM      8  C   UNL     1      -9.303   9.406  21.998  0.00  0.00    +0.000 C 
ATOM      9  C   UNL     1      -7.649   9.517  20.174  0.00  0.00    +0.000 A 
ATOM     10  C   UNL     1     -10.672   7.174  22.203  0.00  0.00    +0.000 C 
ATOM     11  C   UNL     1      -7.874  11.463  21.617  0.00  0.00    +0.000 C 
ATOM     12  C   UNL     1      -6.670  10.158  19.446  0.00  0.00    +0.000 A 
ATOM     13  C   UNL     1      -6.370   8.396  18.030  0.00  0.00    +0.000 A 
ATOM     14  N   UNL     1      -5.697   7.865  16.939  0.00  0.00    +0.000 N 
ATOM     15  H   UNL     1      -5.024   8.525  16.571  0.00  0.00    +0.000 HD
ENDROOT
BRANCH  14  16
ATOM     16  C   UNL     1      -5.798   6.622  16.302  0.00  0.00    +0.000 A 
ATOM     17  C   UNL     1      -4.634   6.000  15.830  0.00  0.00    +0.000 A 
ATOM     18  C   UNL     1      -4.695   4.763  15.191  0.00  0.00    +0.000 A 
ATOM     19  F   UNL     1      -3.559   4.201  14.754  0.00  0.00    +0.000 F 
ATOM     20  C   UNL     1      -5.914   4.123  15.010  0.00  0.00    +0.000 A 
ATOM     21  C   UNL     1      -7.071   4.733  15.474  0.00  0.00    +0.000 A 
ATOM     22  F   UNL     1      -8.255   4.125  15.306  0.00  0.00    +0.000 F 
ATOM     23  C   UNL     1      -7.018   5.968  16.114  0.00  0.00    +0.000 A 
BRANCH  20  24
ATOM     24  O   UNL     1      -5.967   2.910  14.383  0.00  0.00    +0.000 OA
ATOM     25  H   UNL     1      -5.355   2.305  14.844  0.00  0.00    +0.000 HD
ENDBRANCH  20  24
ENDBRANCH  14  16
BRANCH   2  26
ATOM     26  C   UNL     1      -9.229   6.157  19.933  0.00  0.00    +0.000 C 
ATOM     27  C   UNL     1      -9.536   4.744  19.422  0.00  0.00    +0.000 C 
BRANCH  27  28
ATOM     28  C   UNL     1      -9.822   3.442  18.954  0.00  0.00    +0.000 C 
ATOM     29  C   UNL     1     -11.202   2.881  19.109  0.00  0.00    +0.000 C 
ATOM     30  C   UNL     1      -8.733   2.608  18.353  0.00  0.00    +0.000 C 
ENDBRANCH  27  28
ENDBRANCH   2  26
TORSDOF 4
ENDMDL
MODEL 8
REMARK VINA RESULT:      -4.6     22.696     24.635
REMARK  Name = 25023738_BI-D-1870.pdbqt.pdb
REMARK  4 active torsions:
REMARK  status: ('A' for Active; 'I' for Inactive)
REMARK    1  A    between atoms: N_2  and  C_26
REMARK    2  A    between atoms: N_14  and  C_16
REMARK    3  A    between atoms: C_20  and  O_24
REMARK    4  A    between atoms: C_27  and  C_28
REMARK                            x       y       z     vdW  Elec       q    Type
REMARK                         _______ _______ _______ _____ _____    ______ ____
ROOT
ATOM      1  O   UNL     1       4.540  19.773   8.848  0.00  0.00    +0.000 OA
ATOM      2  N   UNL     1       1.510  18.250   7.587  0.00  0.00    +0.000 N 
ATOM      3  N   UNL     1       4.095  18.956   6.713  0.00  0.00    +0.000 N 
ATOM      4  N   UNL     1       1.007  17.400   5.415  0.00  0.00    +0.000 NA
ATOM      5  N   UNL     1       2.569  17.457   3.669  0.00  0.00    +0.000 NA
ATOM      6  C   UNL     1       2.368  18.847   8.485  0.00  0.00    +0.000 C 
ATOM      7  C   UNL     1       1.890  17.989   6.254  0.00  0.00    +0.000 A 
ATOM      8  C   UNL     1       3.760  19.239   8.054  0.00  0.00    +0.000 C 
ATOM      9  C   UNL     1       3.157  18.338   5.841  0.00  0.00    +0.000 A 
ATOM     10  C   UNL     1       1.911  19.111   9.916  0.00  0.00    +0.000 C 
ATOM     11  C   UNL     1       5.391  19.261   6.115  0.00  0.00    +0.000 C 
ATOM     12  C   UNL     1       3.430  18.040   4.524  0.00  0.00    +0.000 A 
ATOM     13  C   UNL     1       1.365  17.150   4.147  0.00  0.00    +0.000 A 
ATOM     14  N   UNL     1       0.487  16.548   3.256  0.00  0.00    +0.000 N 
ATOM     15  H   UNL     1       0.917  16.433   2.346  0.00  0.00    +0.000 HD
ENDROOT
BRANCH  14  16
ATOM     16  C   UNL     1      -0.828  16.098   3.412  0.00  0.00    +0.000 A 
ATOM     17  C   UNL     1      -1.869  16.802   2.791  0.00  0.00    +0.000 A 
ATOM     18  C   UNL     1      -3.192  16.383   2.923  0.00  0.00    +0.000 A 
ATOM     19  F   UNL     1      -4.159  17.084   2.313  0.00  0.00    +0.000 F 
ATOM     20  C   UNL     1      -3.503  15.259   3.675  0.00  0.00    +0.000 A 
ATOM     21  C   UNL     1      -2.478  14.557   4.294  0.00  0.00    +0.000 A 
ATOM     22  F   UNL     1      -2.766  13.468   5.023  0.00  0.00    +0.000 F 
ATOM     23  C   UNL     1      -1.155  14.968   4.166  0.00  0.00    +0.000 A 
BRANCH  20  24
ATOM     24  O   UNL     1      -4.802  14.854   3.801  0.00  0.00    +0.000 OA
ATOM     25  H   UNL     1      -4.928  14.064   3.241  0.00  0.00    +0.000 HD
ENDBRANCH  20  24
ENDBRANCH  14  16
BRANCH   2  26
ATOM     26  C   UNL     1       0.161  17.871   7.999  0.00  0.00    +0.000 C 
ATOM     27  C   UNL     1      -1.254  17.476   8.437  0.00  0.00    +0.000 C 
BRANCH  27  28
ATOM     28  C   UNL     1      -2.559  17.109   8.835  0.00  0.00    +0.000 C 
ATOM     29  C   UNL     1      -2.863  16.894  10.286  0.00  0.00    +0.000 C 
ATOM     30  C   UNL     1      -3.620  16.887   7.802  0.00  0.00    +0.000 C 
ENDBRANCH  27  28
ENDBRANCH   2  26
TORSDOF 4
ENDMDL
MODEL 9
REMARK VINA RESULT:      -4.5     21.993     24.173
REMARK  Name = 25023738_BI-D-1870.pdbqt.pdb
REMARK  4 active torsions:
REMARK  status: ('A' for Active; 'I' for Inactive)
REMARK    1  A    between atoms: N_2  and  C_26
REMARK    2  A    between atoms: N_14  and  C_16
REMARK    3  A    between atoms: C_20  and  O_24
REMARK    4  A    between atoms: C_27  and  C_28
REMARK                            x       y       z     vdW  Elec       q    Type
REMARK                         _______ _______ _______ _____ _____    ______ ____
ROOT
ATOM      1  O   UNL     1       3.386  19.561  11.025  0.00  0.00    +0.000 OA
ATOM      2  N   UNL     1       0.629  18.156   9.151  0.00  0.00    +0.000 N 
ATOM      3  N   UNL     1       3.203  19.224   8.728  0.00  0.00    +0.000 N 
ATOM      4  N   UNL     1       0.394  17.791   6.805  0.00  0.00    +0.000 NA
ATOM      5  N   UNL     1       2.088  18.355   5.287  0.00  0.00    +0.000 NA
ATOM      6  C   UNL     1       1.348  18.591  10.243  0.00  0.00    +0.000 C 
ATOM      7  C   UNL     1       1.144  18.233   7.840  0.00  0.00    +0.000 A 
ATOM      8  C   UNL     1       2.730  19.168  10.056  0.00  0.00    +0.000 C 
ATOM      9  C   UNL     1       2.403  18.757   7.648  0.00  0.00    +0.000 A 
ATOM     10  C   UNL     1       0.748  18.488  11.641  0.00  0.00    +0.000 C 
ATOM     11  C   UNL     1       4.511  19.748   8.351  0.00  0.00    +0.000 C 
ATOM     12  C   UNL     1       2.815  18.788   6.334  0.00  0.00    +0.000 A 
ATOM     13  C   UNL     1       0.881  17.862   5.557  0.00  0.00    +0.000 A 
ATOM     14  N   UNL     1       0.142  17.419   4.469  0.00  0.00    +0.000 N 
ATOM     15  H   UNL     1       0.657  17.546   3.606  0.00  0.00    +0.000 HD
ENDROOT
BRANCH  14  16
ATOM     16  C   UNL     1      -1.135  16.854   4.383  0.00  0.00    +0.000 A 
ATOM     17  C   UNL     1      -1.295  15.487   4.648  0.00  0.00    +0.000 A 
ATOM     18  C   UNL     1      -2.552  14.888   4.574  0.00  0.00    +0.000 A 
ATOM     19  F   UNL     1      -2.664  13.578   4.835  0.00  0.00    +0.000 F 
ATOM     20  C   UNL     1      -3.670  15.638   4.233  0.00  0.00    +0.000 A 
ATOM     21  C   UNL     1      -3.519  16.991   3.968  0.00  0.00    +0.000 A 
ATOM     22  F   UNL     1      -4.591  17.726   3.639  0.00  0.00    +0.000 F 
ATOM     23  C   UNL     1      -2.268  17.597   4.042  0.00  0.00    +0.000 A 
BRANCH  20  24
ATOM     24  O   UNL     1      -4.899  15.044   4.161  0.00  0.00    +0.000 OA
ATOM     25  H   UNL     1      -5.575  15.748   4.184  0.00  0.00    +0.000 HD
ENDBRANCH  20  24
ENDBRANCH  14  16
BRANCH   2  26
ATOM     26  C   UNL     1      -0.709  17.598   9.327  0.00  0.00    +0.000 C 
ATOM     27  C   UNL     1      -2.117  17.017   9.511  0.00  0.00    +0.000 C 
BRANCH  27  28
ATOM     28  C   UNL     1      -3.411  16.477   9.681  0.00  0.00    +0.000 C 
ATOM     29  C   UNL     1      -4.575  17.091   8.965  0.00  0.00    +0.000 C 
ATOM     30  C   UNL     1      -3.623  15.326  10.615  0.00  0.00    +0.000 C 
ENDBRANCH  27  28
ENDBRANCH   2  26
TORSDOF 4
ENDMDL
