MODEL 1
REMARK VINA RESULT:      -5.5      0.000      0.000
REMARK  Name = 26879_Levamisole.pdbqt.pdb
REMARK  1 active torsions:
REMARK  status: ('A' for Active; 'I' for Inactive)
REMARK    1  A    between atoms: C_5  and  C_9
REMARK                            x       y       z     vdW  Elec       q    Type
REMARK                         _______ _______ _______ _____ _____    ______ ____
ROOT
ATOM      1  S   UNL     1     -14.776  14.066  -5.726  0.00  0.00    +0.000 S 
ATOM      2  N   UNL     1     -13.642  14.267  -3.157  0.00  0.00    +0.000 NA
ATOM      3  N   UNL     1     -15.350  12.574  -3.557  0.00  0.00    +0.000 NA
ATOM      4  C   UNL     1     -13.537  13.088  -2.354  0.00  0.00    +0.000 C 
ATOM      5  C   UNL     1     -14.590  12.171  -2.507  0.00  0.00    +0.000 C 
ATOM      6  C   UNL     1     -12.661  14.421  -4.202  0.00  0.00    +0.000 C 
ATOM      7  C   UNL     1     -14.792  13.750  -3.975  0.00  0.00    +0.000 C 
ATOM      8  C   UNL     1     -13.129  14.407  -5.624  0.00  0.00    +0.000 C 
ENDROOT
BRANCH   5   9
ATOM      9  C   UNL     1     -14.835  10.952  -1.751  0.00  0.00    +0.000 A 
ATOM     10  C   UNL     1     -14.937   9.708  -2.383  0.00  0.00    +0.000 A 
ATOM     11  C   UNL     1     -14.980  11.006  -0.362  0.00  0.00    +0.000 A 
ATOM     12  C   UNL     1     -15.175   8.549  -1.648  0.00  0.00    +0.000 A 
ATOM     13  C   UNL     1     -15.219   9.850   0.378  0.00  0.00    +0.000 A 
ATOM     14  C   UNL     1     -15.316   8.621  -0.265  0.00  0.00    +0.000 A 
ENDBRANCH   5   9
TORSDOF 1
ENDMDL
MODEL 2
REMARK VINA RESULT:      -5.4      5.896      8.011
REMARK  Name = 26879_Levamisole.pdbqt.pdb
REMARK  1 active torsions:
REMARK  status: ('A' for Active; 'I' for Inactive)
REMARK    1  A    between atoms: C_5  and  C_9
REMARK                            x       y       z     vdW  Elec       q    Type
REMARK                         _______ _______ _______ _____ _____    ______ ____
ROOT
ATOM      1  S   UNL     1     -19.813   4.029  -2.023  0.00  0.00    +0.000 S 
ATOM      2  N   UNL     1     -17.093   4.509  -2.567  0.00  0.00    +0.000 NA
ATOM      3  N   UNL     1     -18.386   6.237  -1.433  0.00  0.00    +0.000 NA
ATOM      4  C   UNL     1     -16.350   5.350  -1.681  0.00  0.00    +0.000 C 
ATOM      5  C   UNL     1     -17.077   6.414  -1.122  0.00  0.00    +0.000 C 
ATOM      6  C   UNL     1     -17.332   3.160  -2.123  0.00  0.00    +0.000 C 
ATOM      7  C   UNL     1     -18.422   5.120  -2.221  0.00  0.00    +0.000 C 
ATOM      8  C   UNL     1     -18.744   2.736  -1.862  0.00  0.00    +0.000 C 
ENDROOT
BRANCH   5   9
ATOM      9  C   UNL     1     -16.582   7.502  -0.292  0.00  0.00    +0.000 A 
ATOM     10  C   UNL     1     -17.203   7.841   0.914  0.00  0.00    +0.000 A 
ATOM     11  C   UNL     1     -15.465   8.238  -0.696  0.00  0.00    +0.000 A 
ATOM     12  C   UNL     1     -16.720   8.888   1.698  0.00  0.00    +0.000 A 
ATOM     13  C   UNL     1     -14.978   9.286   0.084  0.00  0.00    +0.000 A 
ATOM     14  C   UNL     1     -15.607   9.610   1.281  0.00  0.00    +0.000 A 
ENDBRANCH   5   9
TORSDOF 1
ENDMDL
MODEL 3
REMARK VINA RESULT:      -5.4      1.774      2.758
REMARK  Name = 26879_Levamisole.pdbqt.pdb
REMARK  1 active torsions:
REMARK  status: ('A' for Active; 'I' for Inactive)
REMARK    1  A    between atoms: C_5  and  C_9
REMARK                            x       y       z     vdW  Elec       q    Type
REMARK                         _______ _______ _______ _____ _____    ______ ____
ROOT
ATOM      1  S   UNL     1     -14.387  13.748  -3.606  0.00  0.00    +0.000 S 
ATOM      2  N   UNL     1     -14.386  10.967  -4.041  0.00  0.00    +0.000 NA
ATOM      3  N   UNL     1     -14.677  11.799  -1.768  0.00  0.00    +0.000 NA
ATOM      4  C   UNL     1     -15.161  10.132  -3.176  0.00  0.00    +0.000 C 
ATOM      5  C   UNL     1     -15.226  10.560  -1.840  0.00  0.00    +0.000 C 
ATOM      6  C   UNL     1     -15.109  11.680  -5.062  0.00  0.00    +0.000 C 
ATOM      7  C   UNL     1     -14.234  12.071  -3.032  0.00  0.00    +0.000 C 
ATOM      8  C   UNL     1     -15.137  13.176  -5.003  0.00  0.00    +0.000 C 
ENDROOT
BRANCH   5   9
ATOM      9  C   UNL     1     -15.823   9.872  -0.705  0.00  0.00    +0.000 A 
ATOM     10  C   UNL     1     -15.300  10.002   0.585  0.00  0.00    +0.000 A 
ATOM     11  C   UNL     1     -16.942   9.055  -0.891  0.00  0.00    +0.000 A 
ATOM     12  C   UNL     1     -15.880   9.335   1.663  0.00  0.00    +0.000 A 
ATOM     13  C   UNL     1     -17.526   8.386   0.183  0.00  0.00    +0.000 A 
ATOM     14  C   UNL     1     -16.994   8.527   1.460  0.00  0.00    +0.000 A 
ENDBRANCH   5   9
TORSDOF 1
ENDMDL
MODEL 4
REMARK VINA RESULT:      -5.1      4.753      7.280
REMARK  Name = 26879_Levamisole.pdbqt.pdb
REMARK  1 active torsions:
REMARK  status: ('A' for Active; 'I' for Inactive)
REMARK    1  A    between atoms: C_5  and  C_9
REMARK                            x       y       z     vdW  Elec       q    Type
REMARK                         _______ _______ _______ _____ _____    ______ ____
ROOT
ATOM      1  S   UNL     1     -17.475   3.832  -2.740  0.00  0.00    +0.000 S 
ATOM      2  N   UNL     1     -14.784   4.659  -2.746  0.00  0.00    +0.000 NA
ATOM      3  N   UNL     1     -16.532   6.351  -2.587  0.00  0.00    +0.000 NA
ATOM      4  C   UNL     1     -14.426   5.847  -2.035  0.00  0.00    +0.000 C 
ATOM      5  C   UNL     1     -15.396   6.862  -2.048  0.00  0.00    +0.000 C 
ATOM      6  C   UNL     1     -14.991   3.474  -1.953  0.00  0.00    +0.000 C 
ATOM      7  C   UNL     1     -16.215   5.071  -2.948  0.00  0.00    +0.000 C 
ATOM      8  C   UNL     1     -16.362   2.874  -1.912  0.00  0.00    +0.000 C 
ENDROOT
BRANCH   5   9
ATOM      9  C   UNL     1     -15.284   8.217  -1.530  0.00  0.00    +0.000 A 
ATOM     10  C   UNL     1     -15.403   8.489  -0.164  0.00  0.00    +0.000 A 
ATOM     11  C   UNL     1     -15.057   9.285  -2.404  0.00  0.00    +0.000 A 
ATOM     12  C   UNL     1     -15.297   9.792   0.319  0.00  0.00    +0.000 A 
ATOM     13  C   UNL     1     -14.951  10.590  -1.927  0.00  0.00    +0.000 A 
ATOM     14  C   UNL     1     -15.070  10.843  -0.565  0.00  0.00    +0.000 A 
ENDBRANCH   5   9
TORSDOF 1
ENDMDL
MODEL 5
REMARK VINA RESULT:      -4.3     26.863     28.718
REMARK  Name = 26879_Levamisole.pdbqt.pdb
REMARK  1 active torsions:
REMARK  status: ('A' for Active; 'I' for Inactive)
REMARK    1  A    between atoms: C_5  and  C_9
REMARK                            x       y       z     vdW  Elec       q    Type
REMARK                         _______ _______ _______ _____ _____    ______ ____
ROOT
ATOM      1  S   UNL     1     -13.363  15.451  27.276  0.00  0.00    +0.000 S 
ATOM      2  N   UNL     1     -14.341  18.089  27.390  0.00  0.00    +0.000 NA
ATOM      3  N   UNL     1     -13.726  17.157  25.222  0.00  0.00    +0.000 NA
ATOM      4  C   UNL     1     -15.068  18.604  26.271  0.00  0.00    +0.000 C 
ATOM      5  C   UNL     1     -14.629  18.150  25.017  0.00  0.00    +0.000 C 
ATOM      6  C   UNL     1     -15.058  17.201  28.268  0.00  0.00    +0.000 C 
ATOM      7  C   UNL     1     -13.585  17.074  26.579  0.00  0.00    +0.000 C 
ATOM      8  C   UNL     1     -14.605  15.777  28.368  0.00  0.00    +0.000 C 
ENDROOT
BRANCH   5   9
ATOM      9  C   UNL     1     -15.075  18.579  23.700  0.00  0.00    +0.000 A 
ATOM     10  C   UNL     1     -14.173  18.764  22.648  0.00  0.00    +0.000 A 
ATOM     11  C   UNL     1     -16.431  18.821  23.465  0.00  0.00    +0.000 A 
ATOM     12  C   UNL     1     -14.613  19.178  21.392  0.00  0.00    +0.000 A 
ATOM     13  C   UNL     1     -16.877  19.235  22.211  0.00  0.00    +0.000 A 
ATOM     14  C   UNL     1     -15.967  19.413  21.174  0.00  0.00    +0.000 A 
ENDBRANCH   5   9
TORSDOF 1
ENDMDL
MODEL 6
REMARK VINA RESULT:      -4.0     20.806     22.040
REMARK  Name = 26879_Levamisole.pdbqt.pdb
REMARK  1 active torsions:
REMARK  status: ('A' for Active; 'I' for Inactive)
REMARK    1  A    between atoms: C_5  and  C_9
REMARK                            x       y       z     vdW  Elec       q    Type
REMARK                         _______ _______ _______ _____ _____    ______ ____
ROOT
ATOM      1  S   UNL     1      -2.918   3.629  17.536  0.00  0.00    +0.000 S 
ATOM      2  N   UNL     1      -4.021   3.952  14.966  0.00  0.00    +0.000 NA
ATOM      3  N   UNL     1      -5.488   4.136  16.905  0.00  0.00    +0.000 NA
ATOM      4  C   UNL     1      -5.149   4.816  14.803  0.00  0.00    +0.000 C 
ATOM      5  C   UNL     1      -6.051   4.825  15.880  0.00  0.00    +0.000 C 
ATOM      6  C   UNL     1      -2.736   4.592  15.095  0.00  0.00    +0.000 C 
ATOM      7  C   UNL     1      -4.300   3.669  16.416  0.00  0.00    +0.000 C 
ATOM      8  C   UNL     1      -1.994   4.445  16.387  0.00  0.00    +0.000 C 
ENDROOT
BRANCH   5   9
ATOM      9  C   UNL     1      -7.340   5.494  15.966  0.00  0.00    +0.000 A 
ATOM     10  C   UNL     1      -8.498   4.919  15.434  0.00  0.00    +0.000 A 
ATOM     11  C   UNL     1      -7.441   6.743  16.586  0.00  0.00    +0.000 A 
ATOM     12  C   UNL     1      -9.727   5.572  15.521  0.00  0.00    +0.000 A 
ATOM     13  C   UNL     1      -8.667   7.400  16.675  0.00  0.00    +0.000 A 
ATOM     14  C   UNL     1      -9.810   6.814  16.142  0.00  0.00    +0.000 A 
ENDBRANCH   5   9
TORSDOF 1
ENDMDL
MODEL 7
REMARK VINA RESULT:      -4.0     12.310     13.789
REMARK  Name = 26879_Levamisole.pdbqt.pdb
REMARK  1 active torsions:
REMARK  status: ('A' for Active; 'I' for Inactive)
REMARK    1  A    between atoms: C_5  and  C_9
REMARK                            x       y       z     vdW  Elec       q    Type
REMARK                         _______ _______ _______ _____ _____    ______ ____
ROOT
ATOM      1  S   UNL     1     -11.247  -0.982  -1.076  0.00  0.00    +0.000 S 
ATOM      2  N   UNL     1     -12.064   0.150   1.368  0.00  0.00    +0.000 NA
ATOM      3  N   UNL     1      -9.738  -0.535   1.111  0.00  0.00    +0.000 NA
ATOM      4  C   UNL     1     -11.115   0.898   2.134  0.00  0.00    +0.000 C 
ATOM      5  C   UNL     1      -9.795   0.423   2.071  0.00  0.00    +0.000 C 
ATOM      6  C   UNL     1     -12.644   0.821   0.233  0.00  0.00    +0.000 C 
ATOM      7  C   UNL     1     -11.022  -0.670   0.661  0.00  0.00    +0.000 C 
ATOM      8  C   UNL     1     -12.356   0.286  -1.135  0.00  0.00    +0.000 C 
ENDROOT
BRANCH   5   9
ATOM      9  C   UNL     1      -8.638   0.883   2.824  0.00  0.00    +0.000 A 
ATOM     10  C   UNL     1      -8.719   1.155   4.193  0.00  0.00    +0.000 A 
ATOM     11  C   UNL     1      -7.411   1.068   2.180  0.00  0.00    +0.000 A 
ATOM     12  C   UNL     1      -7.604   1.598   4.903  0.00  0.00    +0.000 A 
ATOM     13  C   UNL     1      -6.293   1.511   2.884  0.00  0.00    +0.000 A 
ATOM     14  C   UNL     1      -6.390   1.776   4.246  0.00  0.00    +0.000 A 
ENDBRANCH   5   9
TORSDOF 1
ENDMDL
MODEL 8
REMARK VINA RESULT:      -3.7     14.383     14.743
REMARK  Name = 26879_Levamisole.pdbqt.pdb
REMARK  1 active torsions:
REMARK  status: ('A' for Active; 'I' for Inactive)
REMARK    1  A    between atoms: C_5  and  C_9
REMARK                            x       y       z     vdW  Elec       q    Type
REMARK                         _______ _______ _______ _____ _____    ______ ____
ROOT
ATOM      1  S   UNL     1      -1.679   6.188  -3.032  0.00  0.00    +0.000 S 
ATOM      2  N   UNL     1      -3.055   7.546  -0.986  0.00  0.00    +0.000 NA
ATOM      3  N   UNL     1      -1.593   5.690  -0.385  0.00  0.00    +0.000 NA
ATOM      4  C   UNL     1      -2.457   7.630   0.311  0.00  0.00    +0.000 C 
ATOM      5  C   UNL     1      -1.711   6.504   0.695  0.00  0.00    +0.000 C 
ATOM      6  C   UNL     1      -2.542   8.443  -1.989  0.00  0.00    +0.000 C 
ATOM      7  C   UNL     1      -2.317   6.296  -1.374  0.00  0.00    +0.000 C 
ATOM      8  C   UNL     1      -1.846   7.859  -3.179  0.00  0.00    +0.000 C 
ENDROOT
BRANCH   5   9
ATOM      9  C   UNL     1      -1.092   6.233   1.983  0.00  0.00    +0.000 A 
ATOM     10  C   UNL     1       0.108   6.845   2.360  0.00  0.00    +0.000 A 
ATOM     11  C   UNL     1      -1.693   5.342   2.876  0.00  0.00    +0.000 A 
ATOM     12  C   UNL     1       0.692   6.575   3.596  0.00  0.00    +0.000 A 
ATOM     13  C   UNL     1      -1.114   5.068   4.113  0.00  0.00    +0.000 A 
ATOM     14  C   UNL     1       0.079   5.686   4.473  0.00  0.00    +0.000 A 
ENDBRANCH   5   9
TORSDOF 1
ENDMDL
MODEL 9
REMARK VINA RESULT:      -3.7     15.810     17.251
REMARK  Name = 26879_Levamisole.pdbqt.pdb
REMARK  1 active torsions:
REMARK  status: ('A' for Active; 'I' for Inactive)
REMARK    1  A    between atoms: C_5  and  C_9
REMARK                            x       y       z     vdW  Elec       q    Type
REMARK                         _______ _______ _______ _____ _____    ______ ____
ROOT
ATOM      1  S   UNL     1     -21.352  19.837  12.624  0.00  0.00    +0.000 S 
ATOM      2  N   UNL     1     -23.921  18.946  11.895  0.00  0.00    +0.000 NA
ATOM      3  N   UNL     1     -21.976  17.762  11.022  0.00  0.00    +0.000 NA
ATOM      4  C   UNL     1     -24.118  17.556  11.625  0.00  0.00    +0.000 C 
ATOM      5  C   UNL     1     -23.032  16.909  11.014  0.00  0.00    +0.000 C 
ATOM      6  C   UNL     1     -23.847  19.327  13.282  0.00  0.00    +0.000 C 
ATOM      7  C   UNL     1     -22.454  18.921  11.569  0.00  0.00    +0.000 C 
ATOM      8  C   UNL     1     -22.559  19.889  13.799  0.00  0.00    +0.000 C 
ENDROOT
BRANCH   5   9
ATOM      9  C   UNL     1     -22.967  15.547  10.507  0.00  0.00    +0.000 A 
ATOM     10  C   UNL     1     -23.836  14.553  10.969  0.00  0.00    +0.000 A 
ATOM     11  C   UNL     1     -22.018  15.204   9.540  0.00  0.00    +0.000 A 
ATOM     12  C   UNL     1     -23.761  13.251  10.477  0.00  0.00    +0.000 A 
ATOM     13  C   UNL     1     -21.939  13.904   9.044  0.00  0.00    +0.000 A 
ATOM     14  C   UNL     1     -22.812  12.928   9.513  0.00  0.00    +0.000 A 
ENDBRANCH   5   9
TORSDOF 1
ENDMDL
