MODEL 1
REMARK VINA RESULT:      -4.5      0.000      0.000
REMARK  Name = 27924_Phorbol.pdbqt.pdb
REMARK  26 active torsions:
REMARK  status: ('A' for Active; 'I' for Inactive)
REMARK    1  A    between atoms: O_1  and  C_10
REMARK    2  A    between atoms: O_1  and  C_26
REMARK    3  A    between atoms: O_2  and  C_13
REMARK    4  A    between atoms: O_2  and  C_28
REMARK    5  A    between atoms: O_3  and  C_14
REMARK    6  A    between atoms: O_4  and  C_20
REMARK    7  A    between atoms: O_7  and  C_29
REMARK    8  A    between atoms: C_11  and  C_16
REMARK    9  A    between atoms: C_11  and  C_17
REMARK   10  A    between atoms: C_15  and  C_21
REMARK   11  A    between atoms: C_22  and  C_29
REMARK   12  A    between atoms: C_26  and  C_30
REMARK   13  A    between atoms: C_27  and  C_31
REMARK   14  A    between atoms: C_28  and  C_32
REMARK   15  A    between atoms: C_32  and  C_33
REMARK   16  A    between atoms: C_33  and  C_34
REMARK   17  A    between atoms: C_34  and  C_35
REMARK   18  A    between atoms: C_35  and  C_36
REMARK   19  A    between atoms: C_36  and  C_37
REMARK   20  A    between atoms: C_37  and  C_38
REMARK   21  A    between atoms: C_38  and  C_39
REMARK   22  A    between atoms: C_39  and  C_40
REMARK   23  A    between atoms: C_40  and  C_41
REMARK   24  A    between atoms: C_41  and  C_42
REMARK   25  A    between atoms: C_42  and  C_43
REMARK   26  A    between atoms: C_43  and  C_44
REMARK                            x       y       z     vdW  Elec       q    Type
REMARK                         _______ _______ _______ _____ _____    ______ ____
ROOT
ATOM      1  O   UNL     1      -3.415  -1.866  -0.164  0.00  0.00    +0.000 OA
ATOM      2  C   UNL     1      -1.854   4.285   3.012  0.00  0.00    +0.000 C 
ATOM      3  C   UNL     1      -0.925   5.272   2.331  0.00  0.00    +0.000 C 
ATOM      4  C   UNL     1      -0.455   4.457   3.570  0.00  0.00    +0.000 C 
ATOM      5  C   UNL     1      -2.473   3.156   2.244  0.00  0.00    +0.000 C 
ATOM      6  C   UNL     1      -0.507   4.957   0.882  0.00  0.00    +0.000 C 
ATOM      7  C   UNL     1      -1.842   2.772   0.827  0.00  0.00    +0.000 C 
ATOM      8  C   UNL     1      -1.627   4.167   0.119  0.00  0.00    +0.000 C 
ATOM      9  C   UNL     1      -0.406   5.122   4.935  0.00  0.00    +0.000 C 
ATOM     10  C   UNL     1       0.567   3.352   3.462  0.00  0.00    +0.000 C 
ATOM     11  C   UNL     1      -2.793   1.680   0.117  0.00  0.00    +0.000 C 
ATOM     12  C   UNL     1      -2.798   1.947   3.102  0.00  0.00    +0.000 C 
ATOM     13  C   UNL     1      -2.871   0.273   0.859  0.00  0.00    +0.000 C 
ATOM     14  C   UNL     1      -1.314   4.116  -1.377  0.00  0.00    +0.000 C 
ATOM     15  C   UNL     1      -3.983   1.346   2.863  0.00  0.00    +0.000 C 
ATOM     16  C   UNL     1      -3.951   0.130   1.955  0.00  0.00    +0.000 C 
ATOM     17  C   UNL     1      -2.480   1.213  -1.299  0.00  0.00    +0.000 C 
ATOM     18  C   UNL     1      -3.093  -0.694  -0.284  0.00  0.00    +0.000 C 
ATOM     19  C   UNL     1      -2.709  -0.080  -1.560  0.00  0.00    +0.000 C 
ATOM     20  C   UNL     1      -2.604  -0.842  -2.823  0.00  0.00    +0.000 C 
ENDROOT
BRANCH   7  21
ATOM     21  O   UNL     1      -0.540   2.186   0.957  0.00  0.00    +0.000 OA
ATOM     22  H   UNL     1      -0.214   2.373   1.866  0.00  0.00    +0.000 HD
ENDBRANCH   7  21
BRANCH  13  23
ATOM     23  O   UNL     1      -1.581  -0.123   1.386  0.00  0.00    +0.000 OA
ATOM     24  H   UNL     1      -1.749  -0.896   1.963  0.00  0.00    +0.000 HD
ENDBRANCH  13  23
BRANCH   3  25
ATOM     25  O   UNL     1      -1.418   6.623   2.530  0.00  0.00    +0.000 OA
BRANCH  25  27
ATOM     26  O   UNL     1      -3.310   7.324   3.514  0.00  0.00    +0.000 OA
ATOM     27  C   UNL     1      -2.724   6.988   2.487  0.00  0.00    +0.000 C 
ATOM     28  C   UNL     1      -3.412   7.052   1.156  0.00  0.00    +0.000 C 
ENDBRANCH  25  27
ENDBRANCH   3  25
BRANCH  15  29
ATOM     29  C   UNL     1      -5.305   2.065   2.922  0.00  0.00    +0.000 C 
BRANCH  29  30
ATOM     30  O   UNL     1      -5.823   2.151   1.606  0.00  0.00    +0.000 OA
ATOM     31  H   UNL     1      -6.525   2.826   1.624  0.00  0.00    +0.000 HD
ENDBRANCH  29  30
ENDBRANCH  15  29
BRANCH   6  32
ATOM     32  O   UNL     1      -0.244   6.218   0.209  0.00  0.00    +0.000 OA
BRANCH  32  34
ATOM     33  O   UNL     1       1.205   7.263  -1.137  0.00  0.00    +0.000 OA
ATOM     34  C   UNL     1       0.981   6.728  -0.054  0.00  0.00    +0.000 C 
BRANCH  34  35
ATOM     35  C   UNL     1       2.064   6.631   0.992  0.00  0.00    +0.000 C 
BRANCH  35  36
ATOM     36  C   UNL     1       1.930   7.726   2.044  0.00  0.00    +0.000 C 
BRANCH  36  37
ATOM     37  C   UNL     1       2.085   7.232   3.487  0.00  0.00    +0.000 C 
BRANCH  37  38
ATOM     38  C   UNL     1       3.476   6.678   3.822  0.00  0.00    +0.000 C 
BRANCH  38  39
ATOM     39  C   UNL     1       4.542   7.776   3.896  0.00  0.00    +0.000 C 
BRANCH  39  40
ATOM     40  C   UNL     1       5.311   7.794   5.220  0.00  0.00    +0.000 C 
BRANCH  40  41
ATOM     41  C   UNL     1       6.762   7.328   5.078  0.00  0.00    +0.000 C 
BRANCH  41  42
ATOM     42  C   UNL     1       7.553   8.122   4.035  0.00  0.00    +0.000 C 
BRANCH  42  43
ATOM     43  C   UNL     1       8.498   9.193   4.587  0.00  0.00    +0.000 C 
BRANCH  43  44
ATOM     44  C   UNL     1       8.676   9.197   6.108  0.00  0.00    +0.000 C 
BRANCH  44  45
ATOM     45  C   UNL     1       7.930  10.305   6.858  0.00  0.00    +0.000 C 
BRANCH  45  46
ATOM     46  C   UNL     1       6.972   9.837   7.956  0.00  0.00    +0.000 C 
ATOM     47  C   UNL     1       7.348   8.491   8.555  0.00  0.00    +0.000 C 
ENDBRANCH  45  46
ENDBRANCH  44  45
ENDBRANCH  43  44
ENDBRANCH  42  43
ENDBRANCH  41  42
ENDBRANCH  40  41
ENDBRANCH  39  40
ENDBRANCH  38  39
ENDBRANCH  37  38
ENDBRANCH  36  37
ENDBRANCH  35  36
ENDBRANCH  34  35
ENDBRANCH  32  34
ENDBRANCH   6  32
TORSDOF 20
ENDMDL
MODEL 2
REMARK VINA RESULT:      -4.5     17.344     20.353
REMARK  Name = 27924_Phorbol.pdbqt.pdb
REMARK  26 active torsions:
REMARK  status: ('A' for Active; 'I' for Inactive)
REMARK    1  A    between atoms: O_1  and  C_10
REMARK    2  A    between atoms: O_1  and  C_26
REMARK    3  A    between atoms: O_2  and  C_13
REMARK    4  A    between atoms: O_2  and  C_28
REMARK    5  A    between atoms: O_3  and  C_14
REMARK    6  A    between atoms: O_4  and  C_20
REMARK    7  A    between atoms: O_7  and  C_29
REMARK    8  A    between atoms: C_11  and  C_16
REMARK    9  A    between atoms: C_11  and  C_17
REMARK   10  A    between atoms: C_15  and  C_21
REMARK   11  A    between atoms: C_22  and  C_29
REMARK   12  A    between atoms: C_26  and  C_30
REMARK   13  A    between atoms: C_27  and  C_31
REMARK   14  A    between atoms: C_28  and  C_32
REMARK   15  A    between atoms: C_32  and  C_33
REMARK   16  A    between atoms: C_33  and  C_34
REMARK   17  A    between atoms: C_34  and  C_35
REMARK   18  A    between atoms: C_35  and  C_36
REMARK   19  A    between atoms: C_36  and  C_37
REMARK   20  A    between atoms: C_37  and  C_38
REMARK   21  A    between atoms: C_38  and  C_39
REMARK   22  A    between atoms: C_39  and  C_40
REMARK   23  A    between atoms: C_40  and  C_41
REMARK   24  A    between atoms: C_41  and  C_42
REMARK   25  A    between atoms: C_42  and  C_43
REMARK   26  A    between atoms: C_43  and  C_44
REMARK                            x       y       z     vdW  Elec       q    Type
REMARK                         _______ _______ _______ _____ _____    ______ ____
ROOT
ATOM      1  O   UNL     1     -12.776  -3.514  20.712  0.00  0.00    +0.000 OA
ATOM      2  C   UNL     1      -8.751   2.330  20.798  0.00  0.00    +0.000 C 
ATOM      3  C   UNL     1      -9.242   3.595  20.119  0.00  0.00    +0.000 C 
ATOM      4  C   UNL     1      -8.090   2.752  19.501  0.00  0.00    +0.000 C 
ATOM      5  C   UNL     1      -9.694   1.204  21.099  0.00  0.00    +0.000 C 
ATOM      6  C   UNL     1     -10.689   3.593  19.594  0.00  0.00    +0.000 C 
ATOM      7  C   UNL     1     -11.106   1.181  20.351  0.00  0.00    +0.000 C 
ATOM      8  C   UNL     1     -11.616   2.672  20.464  0.00  0.00    +0.000 C 
ATOM      9  C   UNL     1      -6.651   3.213  19.657  0.00  0.00    +0.000 C 
ATOM     10  C   UNL     1      -8.274   1.948  18.237  0.00  0.00    +0.000 C 
ATOM     11  C   UNL     1     -12.007   0.004  20.984  0.00  0.00    +0.000 C 
ATOM     12  C   UNL     1      -9.018  -0.154  21.144  0.00  0.00    +0.000 C 
ATOM     13  C   UNL     1     -11.457  -1.471  20.739  0.00  0.00    +0.000 C 
ATOM     14  C   UNL     1     -13.084   2.905  20.103  0.00  0.00    +0.000 C 
ATOM     15  C   UNL     1      -9.406  -0.981  22.138  0.00  0.00    +0.000 C 
ATOM     16  C   UNL     1     -10.458  -2.017  21.783  0.00  0.00    +0.000 C 
ATOM     17  C   UNL     1     -13.449  -0.174  20.525  0.00  0.00    +0.000 C 
ATOM     18  C   UNL     1     -12.726  -2.294  20.684  0.00  0.00    +0.000 C 
ATOM     19  C   UNL     1     -13.887  -1.435  20.423  0.00  0.00    +0.000 C 
ATOM     20  C   UNL     1     -15.226  -1.968  20.097  0.00  0.00    +0.000 C 
ENDROOT
BRANCH   7  21
ATOM     21  O   UNL     1     -10.970   0.911  18.950  0.00  0.00    +0.000 OA
ATOM     22  H   UNL     1     -11.260   1.712  18.459  0.00  0.00    +0.000 HD
ENDBRANCH   7  21
BRANCH  13  23
ATOM     23  O   UNL     1     -10.905  -1.616  19.407  0.00  0.00    +0.000 OA
ATOM     24  H   UNL     1     -10.993  -2.565  19.179  0.00  0.00    +0.000 HD
ENDBRANCH  13  23
BRANCH   3  25
ATOM     25  O   UNL     1      -8.903   4.748  20.933  0.00  0.00    +0.000 OA
BRANCH  25  27
ATOM     26  O   UNL     1      -7.800   4.755  22.888  0.00  0.00    +0.000 OA
ATOM     27  C   UNL     1      -8.873   4.760  22.289  0.00  0.00    +0.000 C 
ATOM     28  C   UNL     1     -10.168   4.862  23.039  0.00  0.00    +0.000 C 
ENDBRANCH  25  27
ENDBRANCH   3  25
BRANCH  15  29
ATOM     29  C   UNL     1      -9.338  -0.614  23.597  0.00  0.00    +0.000 C 
BRANCH  29  30
ATOM     30  O   UNL     1      -8.616  -1.627  24.277  0.00  0.00    +0.000 OA
ATOM     31  H   UNL     1      -7.884  -1.184  24.742  0.00  0.00    +0.000 HD
ENDBRANCH  29  30
ENDBRANCH  15  29
BRANCH   6  32
ATOM     32  O   UNL     1     -11.179   4.961  19.627  0.00  0.00    +0.000 OA
BRANCH  32  34
ATOM     33  O   UNL     1     -11.427   7.009  18.763  0.00  0.00    +0.000 OA
ATOM     34  C   UNL     1     -11.188   5.818  18.580  0.00  0.00    +0.000 C 
BRANCH  34  35
ATOM     35  C   UNL     1     -10.903   5.296  17.194  0.00  0.00    +0.000 C 
BRANCH  35  36
ATOM     36  C   UNL     1      -9.685   5.974  16.577  0.00  0.00    +0.000 C 
BRANCH  36  37
ATOM     37  C   UNL     1      -8.929   5.106  15.564  0.00  0.00    +0.000 C 
BRANCH  37  38
ATOM     38  C   UNL     1      -7.526   4.679  16.017  0.00  0.00    +0.000 C 
BRANCH  38  39
ATOM     39  C   UNL     1      -6.471   4.883  14.925  0.00  0.00    +0.000 C 
BRANCH  39  40
ATOM     40  C   UNL     1      -5.173   5.511  15.440  0.00  0.00    +0.000 C 
BRANCH  40  41
ATOM     41  C   UNL     1      -3.923   4.958  14.749  0.00  0.00    +0.000 C 
BRANCH  41  42
ATOM     42  C   UNL     1      -3.101   4.024  15.642  0.00  0.00    +0.000 C 
BRANCH  42  43
ATOM     43  C   UNL     1      -3.770   3.592  16.949  0.00  0.00    +0.000 C 
BRANCH  43  44
ATOM     44  C   UNL     1      -4.410   2.199  16.936  0.00  0.00    +0.000 C 
BRANCH  44  45
ATOM     45  C   UNL     1      -4.386   1.474  15.587  0.00  0.00    +0.000 C 
BRANCH  45  46
ATOM     46  C   UNL     1      -5.737   1.337  14.881  0.00  0.00    +0.000 C 
ATOM     47  C   UNL     1      -6.128  -0.104  14.597  0.00  0.00    +0.000 C 
ENDBRANCH  45  46
ENDBRANCH  44  45
ENDBRANCH  43  44
ENDBRANCH  42  43
ENDBRANCH  41  42
ENDBRANCH  40  41
ENDBRANCH  39  40
ENDBRANCH  38  39
ENDBRANCH  37  38
ENDBRANCH  36  37
ENDBRANCH  35  36
ENDBRANCH  34  35
ENDBRANCH  32  34
ENDBRANCH   6  32
TORSDOF 20
ENDMDL
MODEL 3
REMARK VINA RESULT:      -4.3     21.553     26.218
REMARK  Name = 27924_Phorbol.pdbqt.pdb
REMARK  26 active torsions:
REMARK  status: ('A' for Active; 'I' for Inactive)
REMARK    1  A    between atoms: O_1  and  C_10
REMARK    2  A    between atoms: O_1  and  C_26
REMARK    3  A    between atoms: O_2  and  C_13
REMARK    4  A    between atoms: O_2  and  C_28
REMARK    5  A    between atoms: O_3  and  C_14
REMARK    6  A    between atoms: O_4  and  C_20
REMARK    7  A    between atoms: O_7  and  C_29
REMARK    8  A    between atoms: C_11  and  C_16
REMARK    9  A    between atoms: C_11  and  C_17
REMARK   10  A    between atoms: C_15  and  C_21
REMARK   11  A    between atoms: C_22  and  C_29
REMARK   12  A    between atoms: C_26  and  C_30
REMARK   13  A    between atoms: C_27  and  C_31
REMARK   14  A    between atoms: C_28  and  C_32
REMARK   15  A    between atoms: C_32  and  C_33
REMARK   16  A    between atoms: C_33  and  C_34
REMARK   17  A    between atoms: C_34  and  C_35
REMARK   18  A    between atoms: C_35  and  C_36
REMARK   19  A    between atoms: C_36  and  C_37
REMARK   20  A    between atoms: C_37  and  C_38
REMARK   21  A    between atoms: C_38  and  C_39
REMARK   22  A    between atoms: C_39  and  C_40
REMARK   23  A    between atoms: C_40  and  C_41
REMARK   24  A    between atoms: C_41  and  C_42
REMARK   25  A    between atoms: C_42  and  C_43
REMARK   26  A    between atoms: C_43  and  C_44
REMARK                            x       y       z     vdW  Elec       q    Type
REMARK                         _______ _______ _______ _____ _____    ______ ____
ROOT
ATOM      1  O   UNL     1     -28.737  15.440   8.135  0.00  0.00    +0.000 OA
ATOM      2  C   UNL     1     -23.658  12.895   3.882  0.00  0.00    +0.000 C 
ATOM      3  C   UNL     1     -23.750  13.111   2.383  0.00  0.00    +0.000 C 
ATOM      4  C   UNL     1     -24.001  11.707   3.005  0.00  0.00    +0.000 C 
ATOM      5  C   UNL     1     -24.504  13.694   4.827  0.00  0.00    +0.000 C 
ATOM      6  C   UNL     1     -24.867  14.041   1.876  0.00  0.00    +0.000 C 
ATOM      7  C   UNL     1     -25.767  14.473   4.235  0.00  0.00    +0.000 C 
ATOM      8  C   UNL     1     -25.208  15.157   2.925  0.00  0.00    +0.000 C 
ATOM      9  C   UNL     1     -22.914  10.647   2.937  0.00  0.00    +0.000 C 
ATOM     10  C   UNL     1     -25.374  11.082   3.044  0.00  0.00    +0.000 C 
ATOM     11  C   UNL     1     -26.387  15.408   5.393  0.00  0.00    +0.000 C 
ATOM     12  C   UNL     1     -24.802  12.973   6.129  0.00  0.00    +0.000 C 
ATOM     13  C   UNL     1     -27.009  14.622   6.631  0.00  0.00    +0.000 C 
ATOM     14  C   UNL     1     -26.104  16.223   2.293  0.00  0.00    +0.000 C 
ATOM     15  C   UNL     1     -24.730  13.718   7.253  0.00  0.00    +0.000 C 
ATOM     16  C   UNL     1     -26.041  14.271   7.782  0.00  0.00    +0.000 C 
ATOM     17  C   UNL     1     -27.543  16.346   5.068  0.00  0.00    +0.000 C 
ATOM     18  C   UNL     1     -28.119  15.545   7.086  0.00  0.00    +0.000 C 
ATOM     19  C   UNL     1     -28.473  16.491   6.021  0.00  0.00    +0.000 C 
ATOM     20  C   UNL     1     -29.662  17.367   6.083  0.00  0.00    +0.000 C 
ENDROOT
BRANCH   7  21
ATOM     21  O   UNL     1     -26.802  13.578   3.806  0.00  0.00    +0.000 OA
ATOM     22  H   UNL     1     -26.374  12.812   3.363  0.00  0.00    +0.000 HD
ENDBRANCH   7  21
BRANCH  13  23
ATOM     23  O   UNL     1     -27.717  13.433   6.203  0.00  0.00    +0.000 OA
ATOM     24  H   UNL     1     -28.613  13.496   6.592  0.00  0.00    +0.000 HD
ENDBRANCH  13  23
BRANCH   3  25
ATOM     25  O   UNL     1     -22.434  13.413   1.853  0.00  0.00    +0.000 OA
BRANCH  25  27
ATOM     26  O   UNL     1     -21.784  15.364   2.755  0.00  0.00    +0.000 OA
ATOM     27  C   UNL     1     -21.513  14.201   2.462  0.00  0.00    +0.000 C 
ATOM     28  C   UNL     1     -20.192  13.604   2.845  0.00  0.00    +0.000 C 
ENDBRANCH  25  27
ENDBRANCH   3  25
BRANCH  15  29
ATOM     29  C   UNL     1     -23.501  14.486   7.662  0.00  0.00    +0.000 C 
BRANCH  29  30
ATOM     30  O   UNL     1     -22.373  13.646   7.486  0.00  0.00    +0.000 OA
ATOM     31  H   UNL     1     -21.623  14.090   7.920  0.00  0.00    +0.000 HD
ENDBRANCH  29  30
ENDBRANCH  15  29
BRANCH   6  32
ATOM     32  O   UNL     1     -24.413  14.649   0.635  0.00  0.00    +0.000 OA
BRANCH  32  34
ATOM     33  O   UNL     1     -24.888  15.072  -1.509  0.00  0.00    +0.000 OA
ATOM     34  C   UNL     1     -24.757  14.246  -0.609  0.00  0.00    +0.000 C 
BRANCH  34  35
ATOM     35  C   UNL     1     -24.975  12.777  -0.878  0.00  0.00    +0.000 C 
BRANCH  35  36
ATOM     36  C   UNL     1     -23.674  12.071  -1.238  0.00  0.00    +0.000 C 
BRANCH  36  37
ATOM     37  C   UNL     1     -23.491  10.707  -0.563  0.00  0.00    +0.000 C 
BRANCH  37  38
ATOM     38  C   UNL     1     -22.729   9.678  -1.408  0.00  0.00    +0.000 C 
BRANCH  38  39
ATOM     39  C   UNL     1     -21.384   9.288  -0.784  0.00  0.00    +0.000 C 
BRANCH  39  40
ATOM     40  C   UNL     1     -20.196   9.462  -1.734  0.00  0.00    +0.000 C 
BRANCH  40  41
ATOM     41  C   UNL     1     -18.893   9.805  -1.008  0.00  0.00    +0.000 C 
BRANCH  41  42
ATOM     42  C   UNL     1     -19.029   9.796   0.517  0.00  0.00    +0.000 C 
BRANCH  42  43
ATOM     43  C   UNL     1     -17.903   9.096   1.283  0.00  0.00    +0.000 C 
BRANCH  43  44
ATOM     44  C   UNL     1     -17.110   8.054   0.487  0.00  0.00    +0.000 C 
BRANCH  44  45
ATOM     45  C   UNL     1     -15.678   8.452   0.119  0.00  0.00    +0.000 C 
BRANCH  45  46
ATOM     46  C   UNL     1     -15.231   9.838   0.589  0.00  0.00    +0.000 C 
ATOM     47  C   UNL     1     -15.105  10.849  -0.540  0.00  0.00    +0.000 C 
ENDBRANCH  45  46
ENDBRANCH  44  45
ENDBRANCH  43  44
ENDBRANCH  42  43
ENDBRANCH  41  42
ENDBRANCH  40  41
ENDBRANCH  39  40
ENDBRANCH  38  39
ENDBRANCH  37  38
ENDBRANCH  36  37
ENDBRANCH  35  36
ENDBRANCH  34  35
ENDBRANCH  32  34
ENDBRANCH   6  32
TORSDOF 20
ENDMDL
MODEL 4
REMARK VINA RESULT:      -4.2     14.766     19.397
REMARK  Name = 27924_Phorbol.pdbqt.pdb
REMARK  26 active torsions:
REMARK  status: ('A' for Active; 'I' for Inactive)
REMARK    1  A    between atoms: O_1  and  C_10
REMARK    2  A    between atoms: O_1  and  C_26
REMARK    3  A    between atoms: O_2  and  C_13
REMARK    4  A    between atoms: O_2  and  C_28
REMARK    5  A    between atoms: O_3  and  C_14
REMARK    6  A    between atoms: O_4  and  C_20
REMARK    7  A    between atoms: O_7  and  C_29
REMARK    8  A    between atoms: C_11  and  C_16
REMARK    9  A    between atoms: C_11  and  C_17
REMARK   10  A    between atoms: C_15  and  C_21
REMARK   11  A    between atoms: C_22  and  C_29
REMARK   12  A    between atoms: C_26  and  C_30
REMARK   13  A    between atoms: C_27  and  C_31
REMARK   14  A    between atoms: C_28  and  C_32
REMARK   15  A    between atoms: C_32  and  C_33
REMARK   16  A    between atoms: C_33  and  C_34
REMARK   17  A    between atoms: C_34  and  C_35
REMARK   18  A    between atoms: C_35  and  C_36
REMARK   19  A    between atoms: C_36  and  C_37
REMARK   20  A    between atoms: C_37  and  C_38
REMARK   21  A    between atoms: C_38  and  C_39
REMARK   22  A    between atoms: C_39  and  C_40
REMARK   23  A    between atoms: C_40  and  C_41
REMARK   24  A    between atoms: C_41  and  C_42
REMARK   25  A    between atoms: C_42  and  C_43
REMARK   26  A    between atoms: C_43  and  C_44
REMARK                            x       y       z     vdW  Elec       q    Type
REMARK                         _______ _______ _______ _____ _____    ______ ____
ROOT
ATOM      1  O   UNL     1      -0.016  15.038  10.861  0.00  0.00    +0.000 OA
ATOM      2  C   UNL     1      -5.850  15.176  14.898  0.00  0.00    +0.000 C 
ATOM      3  C   UNL     1      -5.722  15.227  16.409  0.00  0.00    +0.000 C 
ATOM      4  C   UNL     1      -6.191  13.930  15.690  0.00  0.00    +0.000 C 
ATOM      5  C   UNL     1      -4.679  15.490  14.017  0.00  0.00    +0.000 C 
ATOM      6  C   UNL     1      -4.309  15.429  16.987  0.00  0.00    +0.000 C 
ATOM      7  C   UNL     1      -3.220  15.484  14.669  0.00  0.00    +0.000 C 
ATOM      8  C   UNL     1      -3.409  16.278  16.022  0.00  0.00    +0.000 C 
ATOM      9  C   UNL     1      -7.667  13.567  15.677  0.00  0.00    +0.000 C 
ATOM     10  C   UNL     1      -5.324  12.697  15.613  0.00  0.00    +0.000 C 
ATOM     11  C   UNL     1      -2.167  16.041  13.583  0.00  0.00    +0.000 C 
ATOM     12  C   UNL     1      -4.735  14.796  12.668  0.00  0.00    +0.000 C 
ATOM     13  C   UNL     1      -1.979  15.123  12.295  0.00  0.00    +0.000 C 
ATOM     14  C   UNL     1      -2.123  16.702  16.732  0.00  0.00    +0.000 C 
ATOM     15  C   UNL     1      -4.375  15.540  11.600  0.00  0.00    +0.000 C 
ATOM     16  C   UNL     1      -2.944  15.381  11.118  0.00  0.00    +0.000 C 
ATOM     17  C   UNL     1      -0.709  16.241  13.979  0.00  0.00    +0.000 C 
ATOM     18  C   UNL     1      -0.537  15.380  11.913  0.00  0.00    +0.000 C 
ATOM     19  C   UNL     1       0.204  15.950  13.043  0.00  0.00    +0.000 C 
ATOM     20  C   UNL     1       1.674  16.103  13.049  0.00  0.00    +0.000 C 
ENDROOT
BRANCH   7  21
ATOM     21  O   UNL     1      -2.799  14.164  15.037  0.00  0.00    +0.000 OA
ATOM     22  H   UNL     1      -3.473  13.791  15.648  0.00  0.00    +0.000 HD
ENDBRANCH   7  21
BRANCH  13  23
ATOM     23  O   UNL     1      -1.988  13.716  12.641  0.00  0.00    +0.000 OA
ATOM     24  H   UNL     1      -1.342  13.286  12.043  0.00  0.00    +0.000 HD
ENDBRANCH  13  23
BRANCH   3  25
ATOM     25  O   UNL     1      -6.724  16.124  16.954  0.00  0.00    +0.000 OA
BRANCH  25  27
ATOM     26  O   UNL     1      -6.265  18.196  16.221  0.00  0.00    +0.000 OA
ATOM     27  C   UNL     1      -7.094  17.305  16.399  0.00  0.00    +0.000 C 
ATOM     28  C   UNL     1      -8.509  17.472  15.932  0.00  0.00    +0.000 C 
ENDBRANCH  25  27
ENDBRANCH   3  25
BRANCH  15  29
ATOM     29  C   UNL     1      -5.029  16.848  11.241  0.00  0.00    +0.000 C 
BRANCH  29  30
ATOM     30  O   UNL     1      -4.012  17.824  11.085  0.00  0.00    +0.000 OA
ATOM     31  H   UNL     1      -3.352  17.653  11.780  0.00  0.00    +0.000 HD
ENDBRANCH  29  30
ENDBRANCH  15  29
BRANCH   6  32
ATOM     32  O   UNL     1      -4.442  16.109  18.266  0.00  0.00    +0.000 OA
BRANCH  32  34
ATOM     33  O   UNL     1      -4.522  16.188  20.499  0.00  0.00    +0.000 OA
ATOM     34  C   UNL     1      -4.427  15.510  19.479  0.00  0.00    +0.000 C 
BRANCH  34  35
ATOM     35  C   UNL     1      -4.294  14.010  19.563  0.00  0.00    +0.000 C 
BRANCH  35  36
ATOM     36  C   UNL     1      -5.654  13.326  19.628  0.00  0.00    +0.000 C 
BRANCH  36  37
ATOM     37  C   UNL     1      -5.714  11.977  18.903  0.00  0.00    +0.000 C 
BRANCH  37  38
ATOM     38  C   UNL     1      -7.106  11.331  18.880  0.00  0.00    +0.000 C 
BRANCH  38  39
ATOM     39  C   UNL     1      -7.126  10.010  18.103  0.00  0.00    +0.000 C 
BRANCH  39  40
ATOM     40  C   UNL     1      -7.324   8.780  18.993  0.00  0.00    +0.000 C 
BRANCH  40  41
ATOM     41  C   UNL     1      -7.625   7.506  18.198  0.00  0.00    +0.000 C 
BRANCH  41  42
ATOM     42  C   UNL     1      -8.322   6.425  19.028  0.00  0.00    +0.000 C 
BRANCH  42  43
ATOM     43  C   UNL     1      -9.851   6.402  18.943  0.00  0.00    +0.000 C 
BRANCH  43  44
ATOM     44  C   UNL     1     -10.437   6.572  17.538  0.00  0.00    +0.000 C 
BRANCH  44  45
ATOM     45  C   UNL     1     -10.447   5.312  16.667  0.00  0.00    +0.000 C 
BRANCH  45  46
ATOM     46  C   UNL     1      -9.554   5.354  15.425  0.00  0.00    +0.000 C 
ATOM     47  C   UNL     1      -8.243   4.604  15.597  0.00  0.00    +0.000 C 
ENDBRANCH  45  46
ENDBRANCH  44  45
ENDBRANCH  43  44
ENDBRANCH  42  43
ENDBRANCH  41  42
ENDBRANCH  40  41
ENDBRANCH  39  40
ENDBRANCH  38  39
ENDBRANCH  37  38
ENDBRANCH  36  37
ENDBRANCH  35  36
ENDBRANCH  34  35
ENDBRANCH  32  34
ENDBRANCH   6  32
TORSDOF 20
ENDMDL
MODEL 5
REMARK VINA RESULT:      -4.0     26.589     30.577
REMARK  Name = 27924_Phorbol.pdbqt.pdb
REMARK  26 active torsions:
REMARK  status: ('A' for Active; 'I' for Inactive)
REMARK    1  A    between atoms: O_1  and  C_10
REMARK    2  A    between atoms: O_1  and  C_26
REMARK    3  A    between atoms: O_2  and  C_13
REMARK    4  A    between atoms: O_2  and  C_28
REMARK    5  A    between atoms: O_3  and  C_14
REMARK    6  A    between atoms: O_4  and  C_20
REMARK    7  A    between atoms: O_7  and  C_29
REMARK    8  A    between atoms: C_11  and  C_16
REMARK    9  A    between atoms: C_11  and  C_17
REMARK   10  A    between atoms: C_15  and  C_21
REMARK   11  A    between atoms: C_22  and  C_29
REMARK   12  A    between atoms: C_26  and  C_30
REMARK   13  A    between atoms: C_27  and  C_31
REMARK   14  A    between atoms: C_28  and  C_32
REMARK   15  A    between atoms: C_32  and  C_33
REMARK   16  A    between atoms: C_33  and  C_34
REMARK   17  A    between atoms: C_34  and  C_35
REMARK   18  A    between atoms: C_35  and  C_36
REMARK   19  A    between atoms: C_36  and  C_37
REMARK   20  A    between atoms: C_37  and  C_38
REMARK   21  A    between atoms: C_38  and  C_39
REMARK   22  A    between atoms: C_39  and  C_40
REMARK   23  A    between atoms: C_40  and  C_41
REMARK   24  A    between atoms: C_41  and  C_42
REMARK   25  A    between atoms: C_42  and  C_43
REMARK   26  A    between atoms: C_43  and  C_44
REMARK                            x       y       z     vdW  Elec       q    Type
REMARK                         _______ _______ _______ _____ _____    ______ ____
ROOT
ATOM      1  O   UNL     1     -28.418  14.426   7.602  0.00  0.00    +0.000 OA
ATOM      2  C   UNL     1     -22.608  18.213   9.108  0.00  0.00    +0.000 C 
ATOM      3  C   UNL     1     -22.688  19.353  10.106  0.00  0.00    +0.000 C 
ATOM      4  C   UNL     1     -22.535  19.634   8.584  0.00  0.00    +0.000 C 
ATOM      5  C   UNL     1     -23.700  17.190   9.022  0.00  0.00    +0.000 C 
ATOM      6  C   UNL     1     -24.006  19.513  10.885  0.00  0.00    +0.000 C 
ATOM      7  C   UNL     1     -25.108  17.530   9.696  0.00  0.00    +0.000 C 
ATOM      8  C   UNL     1     -24.717  18.131  11.104  0.00  0.00    +0.000 C 
ATOM      9  C   UNL     1     -21.178  20.022   8.021  0.00  0.00    +0.000 C 
ATOM     10  C   UNL     1     -23.657  20.218   7.761  0.00  0.00    +0.000 C 
ATOM     11  C   UNL     1     -26.036  16.212   9.647  0.00  0.00    +0.000 C 
ATOM     12  C   UNL     1     -23.831  16.560   7.647  0.00  0.00    +0.000 C 
ATOM     13  C   UNL     1     -26.453  15.737   8.185  0.00  0.00    +0.000 C 
ATOM     14  C   UNL     1     -25.860  18.276  12.109  0.00  0.00    +0.000 C 
ATOM     15  C   UNL     1     -24.040  15.226   7.619  0.00  0.00    +0.000 C 
ATOM     16  C   UNL     1     -25.481  14.772   7.470  0.00  0.00    +0.000 C 
ATOM     17  C   UNL     1     -27.403  16.226  10.319  0.00  0.00    +0.000 C 
ATOM     18  C   UNL     1     -27.810  15.107   8.416  0.00  0.00    +0.000 C 
ATOM     19  C   UNL     1     -28.379  15.558   9.690  0.00  0.00    +0.000 C 
ATOM     20  C   UNL     1     -29.777  15.293  10.088  0.00  0.00    +0.000 C 
ENDROOT
BRANCH   7  21
ATOM     21  O   UNL     1     -25.804  18.570   8.998  0.00  0.00    +0.000 OA
ATOM     22  H   UNL     1     -25.143  19.079   8.478  0.00  0.00    +0.000 HD
ENDBRANCH   7  21
BRANCH  13  23
ATOM     23  O   UNL     1     -26.749  16.864   7.325  0.00  0.00    +0.000 OA
ATOM     24  H   UNL     1     -27.582  16.640   6.860  0.00  0.00    +0.000 HD
ENDBRANCH  13  23
BRANCH   3  25
ATOM     25  O   UNL     1     -21.498  19.356  10.938  0.00  0.00    +0.000 OA
BRANCH  25  27
ATOM     26  O   UNL     1     -21.085  17.247  11.587  0.00  0.00    +0.000 OA
ATOM     27  C   UNL     1     -21.213  18.431  11.890  0.00  0.00    +0.000 C 
ATOM     28  C   UNL     1     -20.977  18.892  13.297  0.00  0.00    +0.000 C 
ENDBRANCH  25  27
ENDBRANCH   3  25
BRANCH  15  29
ATOM     29  C   UNL     1     -23.120  14.228   8.271  0.00  0.00    +0.000 C 
BRANCH  29  30
ATOM     30  O   UNL     1     -23.903  13.367   9.081  0.00  0.00    +0.000 OA
ATOM     31  H   UNL     1     -24.825  13.466   8.785  0.00  0.00    +0.000 HD
ENDBRANCH  29  30
ENDBRANCH  15  29
BRANCH   6  32
ATOM     32  O   UNL     1     -23.696  20.119  12.170  0.00  0.00    +0.000 OA
BRANCH  32  34
ATOM     33  O   UNL     1     -23.886  22.288  11.656  0.00  0.00    +0.000 OA
ATOM     34  C   UNL     1     -23.937  21.406  12.510  0.00  0.00    +0.000 C 
BRANCH  34  35
ATOM     35  C   UNL     1     -24.267  21.744  13.943  0.00  0.00    +0.000 C 
BRANCH  35  36
ATOM     36  C   UNL     1     -23.061  22.313  14.680  0.00  0.00    +0.000 C 
BRANCH  36  37
ATOM     37  C   UNL     1     -22.934  21.843  16.133  0.00  0.00    +0.000 C 
BRANCH  37  38
ATOM     38  C   UNL     1     -23.082  20.328  16.325  0.00  0.00    +0.000 C 
BRANCH  38  39
ATOM     39  C   UNL     1     -23.384  19.947  17.778  0.00  0.00    +0.000 C 
BRANCH  39  40
ATOM     40  C   UNL     1     -23.717  21.148  18.668  0.00  0.00    +0.000 C 
BRANCH  40  41
ATOM     41  C   UNL     1     -25.148  21.116  19.210  0.00  0.00    +0.000 C 
BRANCH  41  42
ATOM     42  C   UNL     1     -26.053  22.188  18.597  0.00  0.00    +0.000 C 
BRANCH  42  43
ATOM     43  C   UNL     1     -26.552  21.907  17.177  0.00  0.00    +0.000 C 
BRANCH  43  44
ATOM     44  C   UNL     1     -27.190  20.531  16.961  0.00  0.00    +0.000 C 
BRANCH  44  45
ATOM     45  C   UNL     1     -26.810  19.823  15.657  0.00  0.00    +0.000 C 
BRANCH  45  46
ATOM     46  C   UNL     1     -26.924  18.297  15.670  0.00  0.00    +0.000 C 
ATOM     47  C   UNL     1     -25.580  17.589  15.614  0.00  0.00    +0.000 C 
ENDBRANCH  45  46
ENDBRANCH  44  45
ENDBRANCH  43  44
ENDBRANCH  42  43
ENDBRANCH  41  42
ENDBRANCH  40  41
ENDBRANCH  39  40
ENDBRANCH  38  39
ENDBRANCH  37  38
ENDBRANCH  36  37
ENDBRANCH  35  36
ENDBRANCH  34  35
ENDBRANCH  32  34
ENDBRANCH   6  32
TORSDOF 20
ENDMDL
MODEL 6
REMARK VINA RESULT:      -4.0     16.209     20.155
REMARK  Name = 27924_Phorbol.pdbqt.pdb
REMARK  26 active torsions:
REMARK  status: ('A' for Active; 'I' for Inactive)
REMARK    1  A    between atoms: O_1  and  C_10
REMARK    2  A    between atoms: O_1  and  C_26
REMARK    3  A    between atoms: O_2  and  C_13
REMARK    4  A    between atoms: O_2  and  C_28
REMARK    5  A    between atoms: O_3  and  C_14
REMARK    6  A    between atoms: O_4  and  C_20
REMARK    7  A    between atoms: O_7  and  C_29
REMARK    8  A    between atoms: C_11  and  C_16
REMARK    9  A    between atoms: C_11  and  C_17
REMARK   10  A    between atoms: C_15  and  C_21
REMARK   11  A    between atoms: C_22  and  C_29
REMARK   12  A    between atoms: C_26  and  C_30
REMARK   13  A    between atoms: C_27  and  C_31
REMARK   14  A    between atoms: C_28  and  C_32
REMARK   15  A    between atoms: C_32  and  C_33
REMARK   16  A    between atoms: C_33  and  C_34
REMARK   17  A    between atoms: C_34  and  C_35
REMARK   18  A    between atoms: C_35  and  C_36
REMARK   19  A    between atoms: C_36  and  C_37
REMARK   20  A    between atoms: C_37  and  C_38
REMARK   21  A    between atoms: C_38  and  C_39
REMARK   22  A    between atoms: C_39  and  C_40
REMARK   23  A    between atoms: C_40  and  C_41
REMARK   24  A    between atoms: C_41  and  C_42
REMARK   25  A    between atoms: C_42  and  C_43
REMARK   26  A    between atoms: C_43  and  C_44
REMARK                            x       y       z     vdW  Elec       q    Type
REMARK                         _______ _______ _______ _____ _____    ______ ____
ROOT
ATOM      1  O   UNL     1      -0.143  14.845  11.033  0.00  0.00    +0.000 OA
ATOM      2  C   UNL     1      -6.092  15.305  14.875  0.00  0.00    +0.000 C 
ATOM      3  C   UNL     1      -6.012  15.633  16.354  0.00  0.00    +0.000 C 
ATOM      4  C   UNL     1      -6.376  14.200  15.872  0.00  0.00    +0.000 C 
ATOM      5  C   UNL     1      -4.917  15.535  13.972  0.00  0.00    +0.000 C 
ATOM      6  C   UNL     1      -4.633  16.031  16.911  0.00  0.00    +0.000 C 
ATOM      7  C   UNL     1      -3.482  15.745  14.641  0.00  0.00    +0.000 C 
ATOM      8  C   UNL     1      -3.760  16.753  15.825  0.00  0.00    +0.000 C 
ATOM      9  C   UNL     1      -7.824  13.741  15.898  0.00  0.00    +0.000 C 
ATOM     10  C   UNL     1      -5.430  13.036  16.034  0.00  0.00    +0.000 C 
ATOM     11  C   UNL     1      -2.433  16.170  13.491  0.00  0.00    +0.000 C 
ATOM     12  C   UNL     1      -4.889  14.610  12.770  0.00  0.00    +0.000 C 
ATOM     13  C   UNL     1      -2.149  15.051  12.394  0.00  0.00    +0.000 C 
ATOM     14  C   UNL     1      -2.525  17.383  16.470  0.00  0.00    +0.000 C 
ATOM     15  C   UNL     1      -4.546  15.173  11.592  0.00  0.00    +0.000 C 
ATOM     16  C   UNL     1      -3.094  15.028  11.172  0.00  0.00    +0.000 C 
ATOM     17  C   UNL     1      -1.004  16.535  13.871  0.00  0.00    +0.000 C 
ATOM     18  C   UNL     1      -0.716  15.333  11.997  0.00  0.00    +0.000 C 
ATOM     19  C   UNL     1      -0.047  16.145  13.019  0.00  0.00    +0.000 C 
ATOM     20  C   UNL     1       1.410  16.396  13.024  0.00  0.00    +0.000 C 
ENDROOT
BRANCH   7  21
ATOM     21  O   UNL     1      -2.988  14.544  15.248  0.00  0.00    +0.000 OA
ATOM     22  H   UNL     1      -3.655  14.242  15.904  0.00  0.00    +0.000 HD
ENDBRANCH   7  21
BRANCH  13  23
ATOM     23  O   UNL     1      -2.079  13.731  12.987  0.00  0.00    +0.000 OA
ATOM     24  H   UNL     1      -1.389  13.246  12.488  0.00  0.00    +0.000 HD
ENDBRANCH  13  23
BRANCH   3  25
ATOM     25  O   UNL     1      -7.085  16.543  16.711  0.00  0.00    +0.000 OA
BRANCH  25  27
ATOM     26  O   UNL     1      -8.745  17.482  15.525  0.00  0.00    +0.000 OA
ATOM     27  C   UNL     1      -7.576  17.519  15.905  0.00  0.00    +0.000 C 
ATOM     28  C   UNL     1      -6.694  18.680  15.558  0.00  0.00    +0.000 C 
ENDBRANCH  25  27
ENDBRANCH   3  25
BRANCH  15  29
ATOM     29  C   UNL     1      -5.270  16.349  10.991  0.00  0.00    +0.000 C 
BRANCH  29  30
ATOM     30  O   UNL     1      -4.313  17.346  10.676  0.00  0.00    +0.000 OA
ATOM     31  H   UNL     1      -4.465  18.084  11.293  0.00  0.00    +0.000 HD
ENDBRANCH  29  30
ENDBRANCH  15  29
BRANCH   6  32
ATOM     32  O   UNL     1      -4.847  16.918  18.044  0.00  0.00    +0.000 OA
BRANCH  32  34
ATOM     33  O   UNL     1      -4.786  17.420  20.222  0.00  0.00    +0.000 OA
ATOM     34  C   UNL     1      -4.781  16.559  19.346  0.00  0.00    +0.000 C 
BRANCH  34  35
ATOM     35  C   UNL     1      -4.701  15.096  19.707  0.00  0.00    +0.000 C 
BRANCH  35  36
ATOM     36  C   UNL     1      -6.085  14.473  19.845  0.00  0.00    +0.000 C 
BRANCH  36  37
ATOM     37  C   UNL     1      -6.128  12.968  19.559  0.00  0.00    +0.000 C 
BRANCH  37  38
ATOM     38  C   UNL     1      -7.541  12.371  19.516  0.00  0.00    +0.000 C 
BRANCH  38  39
ATOM     39  C   UNL     1      -7.534  10.842  19.623  0.00  0.00    +0.000 C 
BRANCH  39  40
ATOM     40  C   UNL     1      -8.246  10.313  20.871  0.00  0.00    +0.000 C 
BRANCH  40  41
ATOM     41  C   UNL     1      -9.144  11.358  21.538  0.00  0.00    +0.000 C 
BRANCH  41  42
ATOM     42  C   UNL     1      -9.142  11.271  23.067  0.00  0.00    +0.000 C 
BRANCH  42  43
ATOM     43  C   UNL     1      -7.912  11.857  23.767  0.00  0.00    +0.000 C 
BRANCH  43  44
ATOM     44  C   UNL     1      -7.280  13.073  23.083  0.00  0.00    +0.000 C 
BRANCH  44  45
ATOM     45  C   UNL     1      -7.908  14.427  23.427  0.00  0.00    +0.000 C 
BRANCH  45  46
ATOM     46  C   UNL     1      -8.827  15.024  22.359  0.00  0.00    +0.000 C 
ATOM     47  C   UNL     1     -10.305  14.820  22.649  0.00  0.00    +0.000 C 
ENDBRANCH  45  46
ENDBRANCH  44  45
ENDBRANCH  43  44
ENDBRANCH  42  43
ENDBRANCH  41  42
ENDBRANCH  40  41
ENDBRANCH  39  40
ENDBRANCH  38  39
ENDBRANCH  37  38
ENDBRANCH  36  37
ENDBRANCH  35  36
ENDBRANCH  34  35
ENDBRANCH  32  34
ENDBRANCH   6  32
TORSDOF 20
ENDMDL
MODEL 7
REMARK VINA RESULT:      -3.9     18.988     22.289
REMARK  Name = 27924_Phorbol.pdbqt.pdb
REMARK  26 active torsions:
REMARK  status: ('A' for Active; 'I' for Inactive)
REMARK    1  A    between atoms: O_1  and  C_10
REMARK    2  A    between atoms: O_1  and  C_26
REMARK    3  A    between atoms: O_2  and  C_13
REMARK    4  A    between atoms: O_2  and  C_28
REMARK    5  A    between atoms: O_3  and  C_14
REMARK    6  A    between atoms: O_4  and  C_20
REMARK    7  A    between atoms: O_7  and  C_29
REMARK    8  A    between atoms: C_11  and  C_16
REMARK    9  A    between atoms: C_11  and  C_17
REMARK   10  A    between atoms: C_15  and  C_21
REMARK   11  A    between atoms: C_22  and  C_29
REMARK   12  A    between atoms: C_26  and  C_30
REMARK   13  A    between atoms: C_27  and  C_31
REMARK   14  A    between atoms: C_28  and  C_32
REMARK   15  A    between atoms: C_32  and  C_33
REMARK   16  A    between atoms: C_33  and  C_34
REMARK   17  A    between atoms: C_34  and  C_35
REMARK   18  A    between atoms: C_35  and  C_36
REMARK   19  A    between atoms: C_36  and  C_37
REMARK   20  A    between atoms: C_37  and  C_38
REMARK   21  A    between atoms: C_38  and  C_39
REMARK   22  A    between atoms: C_39  and  C_40
REMARK   23  A    between atoms: C_40  and  C_41
REMARK   24  A    between atoms: C_41  and  C_42
REMARK   25  A    between atoms: C_42  and  C_43
REMARK   26  A    between atoms: C_43  and  C_44
REMARK                            x       y       z     vdW  Elec       q    Type
REMARK                         _______ _______ _______ _____ _____    ______ ____
ROOT
ATOM      1  O   UNL     1     -14.016  -4.909  16.817  0.00  0.00    +0.000 OA
ATOM      2  C   UNL     1      -9.858  -0.960  20.996  0.00  0.00    +0.000 C 
ATOM      3  C   UNL     1     -10.458   0.179  21.800  0.00  0.00    +0.000 C 
ATOM      4  C   UNL     1      -9.563   0.462  20.559  0.00  0.00    +0.000 C 
ATOM      5  C   UNL     1     -10.732  -2.013  20.385  0.00  0.00    +0.000 C 
ATOM      6  C   UNL     1     -11.993   0.304  21.801  0.00  0.00    +0.000 C 
ATOM      7  C   UNL     1     -12.295  -1.712  20.249  0.00  0.00    +0.000 C 
ATOM      8  C   UNL     1     -12.684  -1.097  21.652  0.00  0.00    +0.000 C 
ATOM      9  C   UNL     1      -8.117   0.886  20.754  0.00  0.00    +0.000 C 
ATOM     10  C   UNL     1     -10.127   1.013  19.273  0.00  0.00    +0.000 C 
ATOM     11  C   UNL     1     -13.039  -3.055  19.758  0.00  0.00    +0.000 C 
ATOM     12  C   UNL     1     -10.134  -2.648  19.143  0.00  0.00    +0.000 C 
ATOM     13  C   UNL     1     -12.648  -3.544  18.293  0.00  0.00    +0.000 C 
ATOM     14  C   UNL     1     -14.182  -0.983  21.938  0.00  0.00    +0.000 C 
ATOM     15  C   UNL     1     -10.270  -3.988  19.034  0.00  0.00    +0.000 C 
ATOM     16  C   UNL     1     -11.426  -4.482  18.183  0.00  0.00    +0.000 C 
ATOM     17  C   UNL     1     -14.559  -3.078  19.646  0.00  0.00    +0.000 C 
ATOM     18  C   UNL     1     -13.920  -4.211  17.815  0.00  0.00    +0.000 C 
ATOM     19  C   UNL     1     -15.066  -3.773  18.620  0.00  0.00    +0.000 C 
ATOM     20  C   UNL     1     -16.467  -4.077  18.259  0.00  0.00    +0.000 C 
ENDROOT
BRANCH   7  21
ATOM     21  O   UNL     1     -12.566  -0.692  19.279  0.00  0.00    +0.000 OA
ATOM     22  H   UNL     1     -13.461  -0.330  19.463  0.00  0.00    +0.000 HD
ENDBRANCH   7  21
BRANCH  13  23
ATOM     23  O   UNL     1     -12.494  -2.426  17.385  0.00  0.00    +0.000 OA
ATOM     24  H   UNL     1     -11.550  -2.168  17.429  0.00  0.00    +0.000 HD
ENDBRANCH  13  23
BRANCH   3  25
ATOM     25  O   UNL     1      -9.854   0.217  23.119  0.00  0.00    +0.000 OA
BRANCH  25  27
ATOM     26  O   UNL     1     -10.429  -1.598  24.310  0.00  0.00    +0.000 OA
ATOM     27  C   UNL     1      -9.541  -0.875  23.861  0.00  0.00    +0.000 C 
ATOM     28  C   UNL     1      -8.097  -1.228  24.054  0.00  0.00    +0.000 C 
ENDBRANCH  25  27
ENDBRANCH   3  25
BRANCH  15  29
ATOM     29  C   UNL     1      -9.783  -4.959  20.078  0.00  0.00    +0.000 C 
BRANCH  29  30
ATOM     30  O   UNL     1     -10.646  -6.084  20.072  0.00  0.00    +0.000 OA
ATOM     31  H   UNL     1     -11.555  -5.739  20.017  0.00  0.00    +0.000 HD
ENDBRANCH  29  30
ENDBRANCH  15  29
BRANCH   6  32
ATOM     32  O   UNL     1     -12.390   0.920  23.057  0.00  0.00    +0.000 OA
BRANCH  32  34
ATOM     33  O   UNL     1     -14.017   2.454  23.005  0.00  0.00    +0.000 OA
ATOM     34  C   UNL     1     -12.833   2.190  23.203  0.00  0.00    +0.000 C 
BRANCH  34  35
ATOM     35  C   UNL     1     -11.863   3.271  23.610  0.00  0.00    +0.000 C 
BRANCH  35  36
ATOM     36  C   UNL     1     -11.661   4.294  22.499  0.00  0.00    +0.000 C 
BRANCH  36  37
ATOM     37  C   UNL     1     -10.699   3.840  21.395  0.00  0.00    +0.000 C 
BRANCH  37  38
ATOM     38  C   UNL     1     -10.027   4.986  20.628  0.00  0.00    +0.000 C 
BRANCH  38  39
ATOM     39  C   UNL     1     -10.882   6.259  20.609  0.00  0.00    +0.000 C 
BRANCH  39  40
ATOM     40  C   UNL     1     -11.389   6.634  19.214  0.00  0.00    +0.000 C 
BRANCH  40  41
ATOM     41  C   UNL     1     -10.760   5.793  18.100  0.00  0.00    +0.000 C 
BRANCH  41  42
ATOM     42  C   UNL     1     -10.211   6.632  16.944  0.00  0.00    +0.000 C 
BRANCH  42  43
ATOM     43  C   UNL     1      -9.384   5.873  15.903  0.00  0.00    +0.000 C 
BRANCH  43  44
ATOM     44  C   UNL     1      -7.997   5.417  16.365  0.00  0.00    +0.000 C 
BRANCH  44  45
ATOM     45  C   UNL     1      -7.643   3.959  16.057  0.00  0.00    +0.000 C 
BRANCH  45  46
ATOM     46  C   UNL     1      -7.149   3.129  17.243  0.00  0.00    +0.000 C 
ATOM     47  C   UNL     1      -7.266   1.629  17.023  0.00  0.00    +0.000 C 
ENDBRANCH  45  46
ENDBRANCH  44  45
ENDBRANCH  43  44
ENDBRANCH  42  43
ENDBRANCH  41  42
ENDBRANCH  40  41
ENDBRANCH  39  40
ENDBRANCH  38  39
ENDBRANCH  37  38
ENDBRANCH  36  37
ENDBRANCH  35  36
ENDBRANCH  34  35
ENDBRANCH  32  34
ENDBRANCH   6  32
TORSDOF 20
ENDMDL
MODEL 8
REMARK VINA RESULT:      -3.9     26.326     30.071
REMARK  Name = 27924_Phorbol.pdbqt.pdb
REMARK  26 active torsions:
REMARK  status: ('A' for Active; 'I' for Inactive)
REMARK    1  A    between atoms: O_1  and  C_10
REMARK    2  A    between atoms: O_1  and  C_26
REMARK    3  A    between atoms: O_2  and  C_13
REMARK    4  A    between atoms: O_2  and  C_28
REMARK    5  A    between atoms: O_3  and  C_14
REMARK    6  A    between atoms: O_4  and  C_20
REMARK    7  A    between atoms: O_7  and  C_29
REMARK    8  A    between atoms: C_11  and  C_16
REMARK    9  A    between atoms: C_11  and  C_17
REMARK   10  A    between atoms: C_15  and  C_21
REMARK   11  A    between atoms: C_22  and  C_29
REMARK   12  A    between atoms: C_26  and  C_30
REMARK   13  A    between atoms: C_27  and  C_31
REMARK   14  A    between atoms: C_28  and  C_32
REMARK   15  A    between atoms: C_32  and  C_33
REMARK   16  A    between atoms: C_33  and  C_34
REMARK   17  A    between atoms: C_34  and  C_35
REMARK   18  A    between atoms: C_35  and  C_36
REMARK   19  A    between atoms: C_36  and  C_37
REMARK   20  A    between atoms: C_37  and  C_38
REMARK   21  A    between atoms: C_38  and  C_39
REMARK   22  A    between atoms: C_39  and  C_40
REMARK   23  A    between atoms: C_40  and  C_41
REMARK   24  A    between atoms: C_41  and  C_42
REMARK   25  A    between atoms: C_42  and  C_43
REMARK   26  A    between atoms: C_43  and  C_44
REMARK                            x       y       z     vdW  Elec       q    Type
REMARK                         _______ _______ _______ _____ _____    ______ ____
ROOT
ATOM      1  O   UNL     1      -7.348  25.323  25.301  0.00  0.00    +0.000 OA
ATOM      2  C   UNL     1     -11.076  22.998  19.728  0.00  0.00    +0.000 C 
ATOM      3  C   UNL     1     -12.186  21.984  19.932  0.00  0.00    +0.000 C 
ATOM      4  C   UNL     1     -10.842  21.574  19.265  0.00  0.00    +0.000 C 
ATOM      5  C   UNL     1     -10.509  23.760  20.888  0.00  0.00    +0.000 C 
ATOM      6  C   UNL     1     -12.567  21.643  21.384  0.00  0.00    +0.000 C 
ATOM      7  C   UNL     1     -10.796  23.215  22.362  0.00  0.00    +0.000 C 
ATOM      8  C   UNL     1     -12.337  22.865  22.341  0.00  0.00    +0.000 C 
ATOM      9  C   UNL     1     -10.767  21.413  17.756  0.00  0.00    +0.000 C 
ATOM     10  C   UNL     1      -9.840  20.685  19.961  0.00  0.00    +0.000 C 
ATOM     11  C   UNL     1     -10.261  24.301  23.427  0.00  0.00    +0.000 C 
ATOM     12  C   UNL     1      -9.070  24.194  20.679  0.00  0.00    +0.000 C 
ATOM     13  C   UNL     1      -8.683  24.516  23.434  0.00  0.00    +0.000 C 
ATOM     14  C   UNL     1     -12.979  22.601  23.703  0.00  0.00    +0.000 C 
ATOM     15  C   UNL     1      -8.759  25.445  21.082  0.00  0.00    +0.000 C 
ATOM     16  C   UNL     1      -8.127  25.574  22.456  0.00  0.00    +0.000 C 
ATOM     17  C   UNL     1     -10.504  24.081  24.915  0.00  0.00    +0.000 C 
ATOM     18  C   UNL     1      -8.404  24.875  24.878  0.00  0.00    +0.000 C 
ATOM     19  C   UNL     1      -9.517  24.460  25.738  0.00  0.00    +0.000 C 
ATOM     20  C   UNL     1      -9.445  24.475  27.214  0.00  0.00    +0.000 C 
ENDROOT
BRANCH   7  21
ATOM     21  O   UNL     1     -10.111  21.983  22.625  0.00  0.00    +0.000 OA
ATOM     22  H   UNL     1      -9.359  21.915  21.995  0.00  0.00    +0.000 HD
ENDBRANCH   7  21
BRANCH  13  23
ATOM     23  O   UNL     1      -7.976  23.264  23.258  0.00  0.00    +0.000 OA
ATOM     24  H   UNL     1      -8.416  22.807  22.511  0.00  0.00    +0.000 HD
ENDBRANCH  13  23
BRANCH   3  25
ATOM     25  O   UNL     1     -13.313  22.317  19.081  0.00  0.00    +0.000 OA
BRANCH  25  27
ATOM     26  O   UNL     1     -14.133  24.328  19.650  0.00  0.00    +0.000 OA
ATOM     27  C   UNL     1     -13.709  23.578  18.773  0.00  0.00    +0.000 C 
ATOM     28  C   UNL     1     -13.542  24.064  17.365  0.00  0.00    +0.000 C 
ENDBRANCH  25  27
ENDBRANCH   3  25
BRANCH  15  29
ATOM     29  C   UNL     1      -9.472  26.677  20.588  0.00  0.00    +0.000 C 
BRANCH  29  30
ATOM     30  O   UNL     1      -9.792  27.483  21.709  0.00  0.00    +0.000 OA
ATOM     31  H   UNL     1      -9.134  27.279  22.398  0.00  0.00    +0.000 HD
ENDBRANCH  29  30
ENDBRANCH  15  29
BRANCH   6  32
ATOM     32  O   UNL     1     -13.969  21.259  21.400  0.00  0.00    +0.000 OA
BRANCH  32  34
ATOM     33  O   UNL     1     -15.460  19.749  20.694  0.00  0.00    +0.000 OA
ATOM     34  C   UNL     1     -14.438  19.992  21.331  0.00  0.00    +0.000 C 
BRANCH  34  35
ATOM     35  C   UNL     1     -13.694  18.888  22.041  0.00  0.00    +0.000 C 
BRANCH  35  36
ATOM     36  C   UNL     1     -12.700  18.194  21.118  0.00  0.00    +0.000 C 
BRANCH  36  37
ATOM     37  C   UNL     1     -11.382  17.802  21.796  0.00  0.00    +0.000 C 
BRANCH  37  38
ATOM     38  C   UNL     1     -11.237  16.301  22.079  0.00  0.00    +0.000 C 
BRANCH  38  39
ATOM     39  C   UNL     1     -11.196  15.988  23.578  0.00  0.00    +0.000 C 
BRANCH  39  40
ATOM     40  C   UNL     1     -12.393  15.166  24.064  0.00  0.00    +0.000 C 
BRANCH  40  41
ATOM     41  C   UNL     1     -13.450  16.011  24.779  0.00  0.00    +0.000 C 
BRANCH  41  42
ATOM     42  C   UNL     1     -12.852  17.071  25.708  0.00  0.00    +0.000 C 
BRANCH  42  43
ATOM     43  C   UNL     1     -13.669  18.357  25.864  0.00  0.00    +0.000 C 
BRANCH  43  44
ATOM     44  C   UNL     1     -12.904  19.661  25.614  0.00  0.00    +0.000 C 
BRANCH  44  45
ATOM     45  C   UNL     1     -11.486  19.499  25.057  0.00  0.00    +0.000 C 
BRANCH  45  46
ATOM     46  C   UNL     1     -10.413  20.376  25.705  0.00  0.00    +0.000 C 
ATOM     47  C   UNL     1     -10.843  20.978  27.033  0.00  0.00    +0.000 C 
ENDBRANCH  45  46
ENDBRANCH  44  45
ENDBRANCH  43  44
ENDBRANCH  42  43
ENDBRANCH  41  42
ENDBRANCH  40  41
ENDBRANCH  39  40
ENDBRANCH  38  39
ENDBRANCH  37  38
ENDBRANCH  36  37
ENDBRANCH  35  36
ENDBRANCH  34  35
ENDBRANCH  32  34
ENDBRANCH   6  32
TORSDOF 20
ENDMDL
MODEL 9
REMARK VINA RESULT:      -3.7     26.293     30.203
REMARK  Name = 27924_Phorbol.pdbqt.pdb
REMARK  26 active torsions:
REMARK  status: ('A' for Active; 'I' for Inactive)
REMARK    1  A    between atoms: O_1  and  C_10
REMARK    2  A    between atoms: O_1  and  C_26
REMARK    3  A    between atoms: O_2  and  C_13
REMARK    4  A    between atoms: O_2  and  C_28
REMARK    5  A    between atoms: O_3  and  C_14
REMARK    6  A    between atoms: O_4  and  C_20
REMARK    7  A    between atoms: O_7  and  C_29
REMARK    8  A    between atoms: C_11  and  C_16
REMARK    9  A    between atoms: C_11  and  C_17
REMARK   10  A    between atoms: C_15  and  C_21
REMARK   11  A    between atoms: C_22  and  C_29
REMARK   12  A    between atoms: C_26  and  C_30
REMARK   13  A    between atoms: C_27  and  C_31
REMARK   14  A    between atoms: C_28  and  C_32
REMARK   15  A    between atoms: C_32  and  C_33
REMARK   16  A    between atoms: C_33  and  C_34
REMARK   17  A    between atoms: C_34  and  C_35
REMARK   18  A    between atoms: C_35  and  C_36
REMARK   19  A    between atoms: C_36  and  C_37
REMARK   20  A    between atoms: C_37  and  C_38
REMARK   21  A    between atoms: C_38  and  C_39
REMARK   22  A    between atoms: C_39  and  C_40
REMARK   23  A    between atoms: C_40  and  C_41
REMARK   24  A    between atoms: C_41  and  C_42
REMARK   25  A    between atoms: C_42  and  C_43
REMARK   26  A    between atoms: C_43  and  C_44
REMARK                            x       y       z     vdW  Elec       q    Type
REMARK                         _______ _______ _______ _____ _____    ______ ____
ROOT
ATOM      1  O   UNL     1      -7.678  24.847  24.910  0.00  0.00    +0.000 OA
ATOM      2  C   UNL     1     -10.282  18.908  22.028  0.00  0.00    +0.000 C 
ATOM      3  C   UNL     1     -11.641  18.392  22.461  0.00  0.00    +0.000 C 
ATOM      4  C   UNL     1     -10.336  17.666  22.896  0.00  0.00    +0.000 C 
ATOM      5  C   UNL     1      -9.855  20.310  22.346  0.00  0.00    +0.000 C 
ATOM      6  C   UNL     1     -12.474  19.298  23.386  0.00  0.00    +0.000 C 
ATOM      7  C   UNL     1     -10.663  21.109  23.468  0.00  0.00    +0.000 C 
ATOM      8  C   UNL     1     -12.177  20.817  23.123  0.00  0.00    +0.000 C 
ATOM      9  C   UNL     1      -9.910  16.391  22.188  0.00  0.00    +0.000 C 
ATOM     10  C   UNL     1      -9.843  17.692  24.322  0.00  0.00    +0.000 C 
ATOM     11  C   UNL     1     -10.153  22.638  23.483  0.00  0.00    +0.000 C 
ATOM     12  C   UNL     1      -8.351  20.472  22.461  0.00  0.00    +0.000 C 
ATOM     13  C   UNL     1      -8.638  22.837  23.933  0.00  0.00    +0.000 C 
ATOM     14  C   UNL     1     -13.206  21.690  23.842  0.00  0.00    +0.000 C 
ATOM     15  C   UNL     1      -7.825  21.579  21.893  0.00  0.00    +0.000 C 
ATOM     16  C   UNL     1      -7.571  22.756  22.819  0.00  0.00    +0.000 C 
ATOM     17  C   UNL     1     -10.833  23.652  24.393  0.00  0.00    +0.000 C 
ATOM     18  C   UNL     1      -8.664  24.198  24.594  0.00  0.00    +0.000 C 
ATOM     19  C   UNL     1     -10.036  24.568  24.959  0.00  0.00    +0.000 C 
ATOM     20  C   UNL     1     -10.358  25.732  25.811  0.00  0.00    +0.000 C 
ENDROOT
BRANCH   7  21
ATOM     21  O   UNL     1     -10.443  20.571  24.779  0.00  0.00    +0.000 OA
ATOM     22  H   UNL     1      -9.599  20.065  24.759  0.00  0.00    +0.000 HD
ENDBRANCH   7  21
BRANCH  13  23
ATOM     23  O   UNL     1      -8.285  21.944  25.018  0.00  0.00    +0.000 OA
ATOM     24  H   UNL     1      -8.890  21.177  24.945  0.00  0.00    +0.000 HD
ENDBRANCH  13  23
BRANCH   3  25
ATOM     25  O   UNL     1     -12.364  17.893  21.305  0.00  0.00    +0.000 OA
BRANCH  25  27
ATOM     26  O   UNL     1     -12.992  19.422  19.784  0.00  0.00    +0.000 OA
ATOM     27  C   UNL     1     -12.311  18.436  20.062  0.00  0.00    +0.000 C 
ATOM     28  C   UNL     1     -11.349  17.864  19.065  0.00  0.00    +0.000 C 
ENDBRANCH  25  27
ENDBRANCH   3  25
BRANCH  15  29
ATOM     29  C   UNL     1      -8.010  21.936  20.442  0.00  0.00    +0.000 C 
BRANCH  29  30
ATOM     30  O   UNL     1      -8.568  23.238  20.373  0.00  0.00    +0.000 OA
ATOM     31  H   UNL     1      -8.292  23.703  21.183  0.00  0.00    +0.000 HD
ENDBRANCH  29  30
ENDBRANCH  15  29
BRANCH   6  32
ATOM     32  O   UNL     1     -13.879  19.018  23.140  0.00  0.00    +0.000 OA
BRANCH  32  34
ATOM     33  O   UNL     1     -15.888  18.217  23.711  0.00  0.00    +0.000 OA
ATOM     34  C   UNL     1     -14.678  18.259  23.924  0.00  0.00    +0.000 C 
BRANCH  34  35
ATOM     35  C   UNL     1     -14.070  17.469  25.056  0.00  0.00    +0.000 C 
BRANCH  35  36
ATOM     36  C   UNL     1     -13.629  16.083  24.602  0.00  0.00    +0.000 C 
BRANCH  36  37
ATOM     37  C   UNL     1     -12.534  15.456  25.472  0.00  0.00    +0.000 C 
BRANCH  37  38
ATOM     38  C   UNL     1     -13.046  14.448  26.508  0.00  0.00    +0.000 C 
BRANCH  38  39
ATOM     39  C   UNL     1     -13.144  15.050  27.914  0.00  0.00    +0.000 C 
BRANCH  39  40
ATOM     40  C   UNL     1     -14.583  15.227  28.405  0.00  0.00    +0.000 C 
BRANCH  40  41
ATOM     41  C   UNL     1     -15.001  16.695  28.524  0.00  0.00    +0.000 C 
BRANCH  41  42
ATOM     42  C   UNL     1     -13.872  17.607  29.013  0.00  0.00    +0.000 C 
BRANCH  42  43
ATOM     43  C   UNL     1     -13.868  19.027  28.439  0.00  0.00    +0.000 C 
BRANCH  43  44
ATOM     44  C   UNL     1     -12.550  19.478  27.801  0.00  0.00    +0.000 C 
BRANCH  44  45
ATOM     45  C   UNL     1     -11.523  18.370  27.551  0.00  0.00    +0.000 C 
BRANCH  45  46
ATOM     46  C   UNL     1     -10.207  18.496  28.321  0.00  0.00    +0.000 C 
ATOM     47  C   UNL     1     -10.304  19.398  29.542  0.00  0.00    +0.000 C 
ENDBRANCH  45  46
ENDBRANCH  44  45
ENDBRANCH  43  44
ENDBRANCH  42  43
ENDBRANCH  41  42
ENDBRANCH  40  41
ENDBRANCH  39  40
ENDBRANCH  38  39
ENDBRANCH  37  38
ENDBRANCH  36  37
ENDBRANCH  35  36
ENDBRANCH  34  35
ENDBRANCH  32  34
ENDBRANCH   6  32
TORSDOF 20
ENDMDL
