MODEL 1
REMARK VINA RESULT:      -3.1      0.000      0.000
REMARK  Name = 2Methylcholine.pdbqt.pdb
REMARK  3 active torsions:
REMARK  status: ('A' for Active; 'I' for Inactive)
REMARK    1  A    between atoms: C_1  and  N_2
REMARK    2  A    between atoms: C_1  and  C_6
REMARK    3  A    between atoms: C_6  and  O_8
REMARK                            x       y       z     vdW  Elec       q    Type
REMARK                         _______ _______ _______ _____ _____    ______ ____
ROOT
ATOM      1  C   UNL     1     -21.862   8.416  16.755  0.00  0.00    +0.000 C 
ENDROOT
BRANCH   1   2
ATOM      2  N   UNL     1     -23.306   8.541  16.724  0.00  0.00    +0.000 N 
ATOM      3  C   UNL     1     -23.926   7.265  17.090  0.00  0.00    +0.000 C 
ATOM      4  C   UNL     1     -23.739   9.575  17.668  0.00  0.00    +0.000 C 
ATOM      5  C   UNL     1     -23.742   8.914  15.375  0.00  0.00    +0.000 C 
ENDBRANCH   1   2
BRANCH   1   6
ATOM      6  C   UNL     1     -20.468   8.284  16.810  0.00  0.00    +0.000 C 
ATOM      7  C   UNL     1     -19.576   9.116  15.968  0.00  0.00    +0.000 C 
BRANCH   6   8
ATOM      8  O   UNL     1     -19.859   7.389  17.635  0.00  0.00    +0.000 OA
ATOM      9  H   UNL     1     -19.234   7.874  18.208  0.00  0.00    +0.000 HD
ENDBRANCH   6   8
ENDBRANCH   1   6
TORSDOF 3
ENDMDL
MODEL 2
REMARK VINA RESULT:      -3.0      3.301      4.087
REMARK  Name = 2Methylcholine.pdbqt.pdb
REMARK  3 active torsions:
REMARK  status: ('A' for Active; 'I' for Inactive)
REMARK    1  A    between atoms: C_1  and  N_2
REMARK    2  A    between atoms: C_1  and  C_6
REMARK    3  A    between atoms: C_6  and  O_8
REMARK                            x       y       z     vdW  Elec       q    Type
REMARK                         _______ _______ _______ _____ _____    ______ ____
ROOT
ATOM      1  C   UNL     1     -20.230   5.978  18.541  0.00  0.00    +0.000 C 
ENDROOT
BRANCH   1   2
ATOM      2  N   UNL     1     -20.920   6.541  17.397  0.00  0.00    +0.000 N 
ATOM      3  C   UNL     1     -22.158   7.195  17.832  0.00  0.00    +0.000 C 
ATOM      4  C   UNL     1     -20.063   7.528  16.733  0.00  0.00    +0.000 C 
ATOM      5  C   UNL     1     -21.250   5.478  16.445  0.00  0.00    +0.000 C 
ENDBRANCH   1   2
BRANCH   1   6
ATOM      6  C   UNL     1     -19.543   5.424  19.630  0.00  0.00    +0.000 C 
ATOM      7  C   UNL     1     -19.840   4.058  20.120  0.00  0.00    +0.000 C 
BRANCH   6   8
ATOM      8  O   UNL     1     -18.571   6.107  20.295  0.00  0.00    +0.000 OA
ATOM      9  H   UNL     1     -17.849   6.304  19.667  0.00  0.00    +0.000 HD
ENDBRANCH   6   8
ENDBRANCH   1   6
TORSDOF 3
ENDMDL
MODEL 3
REMARK VINA RESULT:      -3.0     13.237     14.409
REMARK  Name = 2Methylcholine.pdbqt.pdb
REMARK  3 active torsions:
REMARK  status: ('A' for Active; 'I' for Inactive)
REMARK    1  A    between atoms: C_1  and  N_2
REMARK    2  A    between atoms: C_1  and  C_6
REMARK    3  A    between atoms: C_6  and  O_8
REMARK                            x       y       z     vdW  Elec       q    Type
REMARK                         _______ _______ _______ _____ _____    ______ ____
ROOT
ATOM      1  C   UNL     1     -15.601  19.352  22.230  0.00  0.00    +0.000 C 
ENDROOT
BRANCH   1   2
ATOM      2  N   UNL     1     -14.154  19.407  22.157  0.00  0.00    +0.000 N 
ATOM      3  C   UNL     1     -13.707  19.008  20.819  0.00  0.00    +0.000 C 
ATOM      4  C   UNL     1     -13.691  20.770  22.432  0.00  0.00    +0.000 C 
ATOM      5  C   UNL     1     -13.574  18.496  23.147  0.00  0.00    +0.000 C 
ENDBRANCH   1   2
BRANCH   1   6
ATOM      6  C   UNL     1     -16.999  19.297  22.328  0.00  0.00    +0.000 C 
ATOM      7  C   UNL     1     -17.797  18.357  21.506  0.00  0.00    +0.000 C 
BRANCH   6   8
ATOM      8  O   UNL     1     -17.696  20.099  23.179  0.00  0.00    +0.000 OA
ATOM      9  H   UNL     1     -17.540  21.029  22.923  0.00  0.00    +0.000 HD
ENDBRANCH   6   8
ENDBRANCH   1   6
TORSDOF 3
ENDMDL
MODEL 4
REMARK VINA RESULT:      -3.0     13.357     14.466
REMARK  Name = 2Methylcholine.pdbqt.pdb
REMARK  3 active torsions:
REMARK  status: ('A' for Active; 'I' for Inactive)
REMARK    1  A    between atoms: C_1  and  N_2
REMARK    2  A    between atoms: C_1  and  C_6
REMARK    3  A    between atoms: C_6  and  O_8
REMARK                            x       y       z     vdW  Elec       q    Type
REMARK                         _______ _______ _______ _____ _____    ______ ____
ROOT
ATOM      1  C   UNL     1     -15.690  19.124  22.908  0.00  0.00    +0.000 C 
ENDROOT
BRANCH   1   2
ATOM      2  N   UNL     1     -14.271  19.046  23.194  0.00  0.00    +0.000 N 
ATOM      3  C   UNL     1     -14.008  17.943  24.123  0.00  0.00    +0.000 C 
ATOM      4  C   UNL     1     -13.523  18.820  21.955  0.00  0.00    +0.000 C 
ATOM      5  C   UNL     1     -13.819  20.300  23.803  0.00  0.00    +0.000 C 
ENDBRANCH   1   2
BRANCH   1   6
ATOM      6  C   UNL     1     -17.067  19.184  22.654  0.00  0.00    +0.000 C 
ATOM      7  C   UNL     1     -17.683  18.424  21.540  0.00  0.00    +0.000 C 
BRANCH   6   8
ATOM      8  O   UNL     1     -17.910  19.938  23.411  0.00  0.00    +0.000 OA
ATOM      9  H   UNL     1     -18.224  19.393  24.158  0.00  0.00    +0.000 HD
ENDBRANCH   6   8
ENDBRANCH   1   6
TORSDOF 3
ENDMDL
MODEL 5
REMARK VINA RESULT:      -2.9      2.201      2.794
REMARK  Name = 2Methylcholine.pdbqt.pdb
REMARK  3 active torsions:
REMARK  status: ('A' for Active; 'I' for Inactive)
REMARK    1  A    between atoms: C_1  and  N_2
REMARK    2  A    between atoms: C_1  and  C_6
REMARK    3  A    between atoms: C_6  and  O_8
REMARK                            x       y       z     vdW  Elec       q    Type
REMARK                         _______ _______ _______ _____ _____    ______ ____
ROOT
ATOM      1  C   UNL     1     -22.064   7.422  17.338  0.00  0.00    +0.000 C 
ENDROOT
BRANCH   1   2
ATOM      2  N   UNL     1     -22.580   6.069  17.265  0.00  0.00    +0.000 N 
ATOM      3  C   UNL     1     -22.886   5.579  18.612  0.00  0.00    +0.000 C 
ATOM      4  C   UNL     1     -23.800   6.043  16.455  0.00  0.00    +0.000 C 
ATOM      5  C   UNL     1     -21.580   5.191  16.652  0.00  0.00    +0.000 C 
ENDBRANCH   1   2
BRANCH   1   6
ATOM      6  C   UNL     1     -21.591   8.740  17.411  0.00  0.00    +0.000 C 
ATOM      7  C   UNL     1     -20.444   9.198  16.592  0.00  0.00    +0.000 C 
BRANCH   6   8
ATOM      8  O   UNL     1     -22.156   9.667  18.232  0.00  0.00    +0.000 OA
ATOM      9  H   UNL     1     -23.125   9.622  18.126  0.00  0.00    +0.000 HD
ENDBRANCH   6   8
ENDBRANCH   1   6
TORSDOF 3
ENDMDL
MODEL 6
REMARK VINA RESULT:      -2.8      1.433      2.295
REMARK  Name = 2Methylcholine.pdbqt.pdb
REMARK  3 active torsions:
REMARK  status: ('A' for Active; 'I' for Inactive)
REMARK    1  A    between atoms: C_1  and  N_2
REMARK    2  A    between atoms: C_1  and  C_6
REMARK    3  A    between atoms: C_6  and  O_8
REMARK                            x       y       z     vdW  Elec       q    Type
REMARK                         _______ _______ _______ _____ _____    ______ ____
ROOT
ATOM      1  C   UNL     1     -22.365   7.531  16.670  0.00  0.00    +0.000 C 
ENDROOT
BRANCH   1   2
ATOM      2  N   UNL     1     -23.715   7.722  16.177  0.00  0.00    +0.000 N 
ATOM      3  C   UNL     1     -23.787   8.950  15.381  0.00  0.00    +0.000 C 
ATOM      4  C   UNL     1     -24.108   6.584  15.341  0.00  0.00    +0.000 C 
ATOM      5  C   UNL     1     -24.643   7.828  17.306  0.00  0.00    +0.000 C 
ENDBRANCH   1   2
BRANCH   1   6
ATOM      6  C   UNL     1     -21.068   7.354  17.171  0.00  0.00    +0.000 C 
ATOM      7  C   UNL     1     -20.379   6.044  17.094  0.00  0.00    +0.000 C 
BRANCH   6   8
ATOM      8  O   UNL     1     -20.374   8.370  17.754  0.00  0.00    +0.000 OA
ATOM      9  H   UNL     1     -19.432   8.116  17.793  0.00  0.00    +0.000 HD
ENDBRANCH   6   8
ENDBRANCH   1   6
TORSDOF 3
ENDMDL
MODEL 7
REMARK VINA RESULT:      -2.8     13.549     14.601
REMARK  Name = 2Methylcholine.pdbqt.pdb
REMARK  3 active torsions:
REMARK  status: ('A' for Active; 'I' for Inactive)
REMARK    1  A    between atoms: C_1  and  N_2
REMARK    2  A    between atoms: C_1  and  C_6
REMARK    3  A    between atoms: C_6  and  O_8
REMARK                            x       y       z     vdW  Elec       q    Type
REMARK                         _______ _______ _______ _____ _____    ______ ____
ROOT
ATOM      1  C   UNL     1     -15.801  19.444  22.789  0.00  0.00    +0.000 C 
ENDROOT
BRANCH   1   2
ATOM      2  N   UNL     1     -14.623  19.244  23.610  0.00  0.00    +0.000 N 
ATOM      3  C   UNL     1     -14.199  20.519  24.195  0.00  0.00    +0.000 C 
ATOM      4  C   UNL     1     -14.921  18.296  24.688  0.00  0.00    +0.000 C 
ATOM      5  C   UNL     1     -13.533  18.708  22.790  0.00  0.00    +0.000 C 
ENDBRANCH   1   2
BRANCH   1   6
ATOM      6  C   UNL     1     -16.923  19.642  21.972  0.00  0.00    +0.000 C 
ATOM      7  C   UNL     1     -17.747  18.505  21.499  0.00  0.00    +0.000 C 
BRANCH   6   8
ATOM      8  O   UNL     1     -17.316  20.882  21.571  0.00  0.00    +0.000 OA
ATOM      9  H   UNL     1     -16.971  21.536  22.209  0.00  0.00    +0.000 HD
ENDBRANCH   6   8
ENDBRANCH   1   6
TORSDOF 3
ENDMDL
MODEL 8
REMARK VINA RESULT:      -2.7      2.584      3.964
REMARK  Name = 2Methylcholine.pdbqt.pdb
REMARK  3 active torsions:
REMARK  status: ('A' for Active; 'I' for Inactive)
REMARK    1  A    between atoms: C_1  and  N_2
REMARK    2  A    between atoms: C_1  and  C_6
REMARK    3  A    between atoms: C_6  and  O_8
REMARK                            x       y       z     vdW  Elec       q    Type
REMARK                         _______ _______ _______ _____ _____    ______ ____
ROOT
ATOM      1  C   UNL     1     -23.176   7.339  16.281  0.00  0.00    +0.000 C 
ENDROOT
BRANCH   1   2
ATOM      2  N   UNL     1     -22.209   6.639  17.103  0.00  0.00    +0.000 N 
ATOM      3  C   UNL     1     -21.120   7.547  17.475  0.00  0.00    +0.000 C 
ATOM      4  C   UNL     1     -22.856   6.140  18.319  0.00  0.00    +0.000 C 
ATOM      5  C   UNL     1     -21.653   5.506  16.358  0.00  0.00    +0.000 C 
ENDBRANCH   1   2
BRANCH   1   6
ATOM      6  C   UNL     1     -24.131   8.008  15.503  0.00  0.00    +0.000 C 
ATOM      7  C   UNL     1     -25.339   7.316  14.995  0.00  0.00    +0.000 C 
BRANCH   6   8
ATOM      8  O   UNL     1     -24.003   9.322  15.172  0.00  0.00    +0.000 OA
ATOM      9  H   UNL     1     -23.397   9.391  14.410  0.00  0.00    +0.000 HD
ENDBRANCH   6   8
ENDBRANCH   1   6
TORSDOF 3
ENDMDL
MODEL 9
REMARK VINA RESULT:      -2.5     23.488     24.275
REMARK  Name = 2Methylcholine.pdbqt.pdb
REMARK  3 active torsions:
REMARK  status: ('A' for Active; 'I' for Inactive)
REMARK    1  A    between atoms: C_1  and  N_2
REMARK    2  A    between atoms: C_1  and  C_6
REMARK    3  A    between atoms: C_6  and  O_8
REMARK                            x       y       z     vdW  Elec       q    Type
REMARK                         _______ _______ _______ _____ _____    ______ ____
ROOT
ATOM      1  C   UNL     1      -3.391  15.162   3.130  0.00  0.00    +0.000 C 
ENDROOT
BRANCH   1   2
ATOM      2  N   UNL     1      -3.772  15.563   1.790  0.00  0.00    +0.000 N 
ATOM      3  C   UNL     1      -3.293  14.575   0.819  0.00  0.00    +0.000 C 
ATOM      4  C   UNL     1      -5.231  15.662   1.695  0.00  0.00    +0.000 C 
ATOM      5  C   UNL     1      -3.183  16.867   1.477  0.00  0.00    +0.000 C 
ENDBRANCH   1   2
BRANCH   1   6
ATOM      6  C   UNL     1      -3.003  14.796   4.427  0.00  0.00    +0.000 C 
ATOM      7  C   UNL     1      -3.112  15.740   5.564  0.00  0.00    +0.000 C 
BRANCH   6   8
ATOM      8  O   UNL     1      -2.508  13.560   4.712  0.00  0.00    +0.000 OA
ATOM      9  H   UNL     1      -2.415  13.481   5.681  0.00  0.00    +0.000 HD
ENDBRANCH   6   8
ENDBRANCH   1   6
TORSDOF 3
ENDMDL
