MODEL 1
REMARK VINA RESULT:      -7.7      0.000      0.000
REMARK  Name = 3035817_K252a.pdbqt.pdb
REMARK  3 active torsions:
REMARK  status: ('A' for Active; 'I' for Inactive)
REMARK    1  A    between atoms: C_3  and  O_7
REMARK    2  A    between atoms: C_3  and  C_9
REMARK    3  A    between atoms: C_9  and  O_11
REMARK                            x       y       z     vdW  Elec       q    Type
REMARK                         _______ _______ _______ _____ _____    ______ ____
ROOT
ATOM      1  O   UNL     1     -16.846   7.705  -4.594  0.00  0.00    +0.000 OA
ATOM      2  C   UNL     1     -16.586   7.167  -3.249  0.00  0.00    +0.000 C 
ATOM      3  C   UNL     1     -15.424   6.106  -3.476  0.00  0.00    +0.000 C 
ATOM      4  C   UNL     1     -15.574   7.778  -5.189  0.00  0.00    +0.000 C 
ATOM      5  C   UNL     1     -14.842   6.674  -4.689  0.00  0.00    +0.000 C 
ATOM      6  C   UNL     1     -17.946   6.553  -2.783  0.00  0.00    +0.000 C 
ATOM      7  N   UNL     1     -16.175   8.311  -2.410  0.00  0.00    +0.000 N 
ATOM      8  C   UNL     1     -15.535   9.480  -2.734  0.00  0.00    +0.000 A 
ATOM      9  C   UNL     1     -14.990   9.827  -3.971  0.00  0.00    +0.000 A 
ATOM     10  C   UNL     1     -15.300  10.429  -1.734  0.00  0.00    +0.000 A 
ATOM     11  N   UNL     1     -14.980   9.023  -5.069  0.00  0.00    +0.000 N 
ATOM     12  C   UNL     1     -14.305  11.046  -4.006  0.00  0.00    +0.000 A 
ATOM     13  C   UNL     1     -14.151   9.773  -5.923  0.00  0.00    +0.000 A 
ATOM     14  C   UNL     1     -13.753  11.019  -5.306  0.00  0.00    +0.000 A 
ATOM     15  C   UNL     1     -13.729   9.445  -7.221  0.00  0.00    +0.000 A 
ATOM     16  C   UNL     1     -12.920  11.882  -6.045  0.00  0.00    +0.000 A 
ATOM     17  C   UNL     1     -12.513  11.541  -7.334  0.00  0.00    +0.000 A 
ATOM     18  C   UNL     1     -12.911  10.342  -7.908  0.00  0.00    +0.000 A 
ATOM     19  C   UNL     1     -14.077  12.021  -3.013  0.00  0.00    +0.000 A 
ATOM     20  C   UNL     1     -14.638  11.665  -1.752  0.00  0.00    +0.000 A 
ATOM     21  C   UNL     1     -13.379  13.281  -2.919  0.00  0.00    +0.000 C 
ATOM     22  C   UNL     1     -14.276  12.754  -0.803  0.00  0.00    +0.000 C 
ATOM     23  N   UNL     1     -13.570  13.612  -1.571  0.00  0.00    +0.000 N 
ATOM     24  H   UNL     1     -13.180  14.469  -1.202  0.00  0.00    +0.000 HD
ATOM     25  O   UNL     1     -12.760  13.969  -3.716  0.00  0.00    +0.000 OA
ATOM     26  C   UNL     1     -15.805   9.782  -0.593  0.00  0.00    +0.000 A 
ATOM     27  C   UNL     1     -16.303   8.490  -1.009  0.00  0.00    +0.000 A 
ATOM     28  C   UNL     1     -15.871  10.118   0.775  0.00  0.00    +0.000 A 
ATOM     29  C   UNL     1     -16.819   7.598  -0.053  0.00  0.00    +0.000 A 
ATOM     30  C   UNL     1     -16.863   7.979   1.288  0.00  0.00    +0.000 A 
ATOM     31  C   UNL     1     -16.404   9.220   1.698  0.00  0.00    +0.000 A 
ENDROOT
BRANCH   3  32
ATOM     32  O   UNL     1     -14.424   6.078  -2.447  0.00  0.00    +0.000 OA
ATOM     33  H   UNL     1     -14.612   6.824  -1.836  0.00  0.00    +0.000 HD
ENDBRANCH   3  32
BRANCH   3  34
ATOM     34  C   UNL     1     -15.978   4.704  -3.719  0.00  0.00    +0.000 C 
ATOM     35  O   UNL     1     -16.471   4.406  -4.810  0.00  0.00    +0.000 OA
BRANCH  34  36
ATOM     36  O   UNL     1     -15.891   3.924  -2.599  0.00  0.00    +0.000 OA
ATOM     37  C   UNL     1     -16.866   2.934  -2.417  0.00  0.00    +0.000 C 
ENDBRANCH  34  36
ENDBRANCH   3  34
TORSDOF 3
ENDMDL
MODEL 2
REMARK VINA RESULT:      -7.2     11.902     15.112
REMARK  Name = 3035817_K252a.pdbqt.pdb
REMARK  3 active torsions:
REMARK  status: ('A' for Active; 'I' for Inactive)
REMARK    1  A    between atoms: C_3  and  O_7
REMARK    2  A    between atoms: C_3  and  C_9
REMARK    3  A    between atoms: C_9  and  O_11
REMARK                            x       y       z     vdW  Elec       q    Type
REMARK                         _______ _______ _______ _____ _____    ______ ____
ROOT
ATOM      1  O   UNL     1      -2.603  17.534   2.555  0.00  0.00    +0.000 OA
ATOM      2  C   UNL     1      -3.086  16.170   2.286  0.00  0.00    +0.000 C 
ATOM      3  C   UNL     1      -3.674  15.686   3.681  0.00  0.00    +0.000 C 
ATOM      4  C   UNL     1      -3.556  18.070   3.439  0.00  0.00    +0.000 C 
ATOM      5  C   UNL     1      -3.987  16.993   4.252  0.00  0.00    +0.000 C 
ATOM      6  C   UNL     1      -1.828  15.378   1.800  0.00  0.00    +0.000 C 
ATOM      7  N   UNL     1      -4.111  16.287   1.229  0.00  0.00    +0.000 N 
ATOM      8  C   UNL     1      -4.970  17.311   0.919  0.00  0.00    +0.000 A 
ATOM      9  C   UNL     1      -5.166  18.492   1.636  0.00  0.00    +0.000 A 
ATOM     10  C   UNL     1      -5.826  17.175  -0.178  0.00  0.00    +0.000 A 
ATOM     11  N   UNL     1      -4.543  18.804   2.805  0.00  0.00    +0.000 N 
ATOM     12  C   UNL     1      -6.175  19.331   1.150  0.00  0.00    +0.000 A 
ATOM     13  C   UNL     1      -5.253  19.964   3.167  0.00  0.00    +0.000 A 
ATOM     14  C   UNL     1      -6.230  20.316   2.160  0.00  0.00    +0.000 A 
ATOM     15  C   UNL     1      -5.091  20.749   4.319  0.00  0.00    +0.000 A 
ATOM     16  C   UNL     1      -7.019  21.462   2.381  0.00  0.00    +0.000 A 
ATOM     17  C   UNL     1      -6.842  22.231   3.531  0.00  0.00    +0.000 A 
ATOM     18  C   UNL     1      -5.895  21.877   4.482  0.00  0.00    +0.000 A 
ATOM     19  C   UNL     1      -7.032  19.216   0.036  0.00  0.00    +0.000 A 
ATOM     20  C   UNL     1      -6.825  18.010  -0.697  0.00  0.00    +0.000 A 
ATOM     21  C   UNL     1      -8.108  19.983  -0.545  0.00  0.00    +0.000 C 
ATOM     22  C   UNL     1      -7.825  18.007  -1.800  0.00  0.00    +0.000 C 
ATOM     23  N   UNL     1      -8.491  19.168  -1.619  0.00  0.00    +0.000 N 
ATOM     24  H   UNL     1      -9.247  19.456  -2.225  0.00  0.00    +0.000 HD
ATOM     25  O   UNL     1      -8.630  21.053  -0.272  0.00  0.00    +0.000 OA
ATOM     26  C   UNL     1      -5.530  15.873  -0.619  0.00  0.00    +0.000 A 
ATOM     27  C   UNL     1      -4.515  15.336   0.258  0.00  0.00    +0.000 A 
ATOM     28  C   UNL     1      -6.032  15.051  -1.649  0.00  0.00    +0.000 A 
ATOM     29  C   UNL     1      -4.067  14.015   0.083  0.00  0.00    +0.000 A 
ATOM     30  C   UNL     1      -4.593  13.242  -0.952  0.00  0.00    +0.000 A 
ATOM     31  C   UNL     1      -5.555  13.751  -1.809  0.00  0.00    +0.000 A 
ENDROOT
BRANCH   3  32
ATOM     32  O   UNL     1      -4.882  14.915   3.591  0.00  0.00    +0.000 OA
ATOM     33  H   UNL     1      -4.947  14.580   2.670  0.00  0.00    +0.000 HD
ENDBRANCH   3  32
BRANCH   3  34
ATOM     34  C   UNL     1      -2.628  14.944   4.510  0.00  0.00    +0.000 C 
ATOM     35  O   UNL     1      -2.552  13.714   4.466  0.00  0.00    +0.000 OA
BRANCH  34  36
ATOM     36  O   UNL     1      -1.895  15.801   5.284  0.00  0.00    +0.000 OA
ATOM     37  C   UNL     1      -0.529  15.930   4.999  0.00  0.00    +0.000 C 
ENDBRANCH  34  36
ENDBRANCH   3  34
TORSDOF 3
ENDMDL
MODEL 3
REMARK VINA RESULT:      -7.1      1.536      5.290
REMARK  Name = 3035817_K252a.pdbqt.pdb
REMARK  3 active torsions:
REMARK  status: ('A' for Active; 'I' for Inactive)
REMARK    1  A    between atoms: C_3  and  O_7
REMARK    2  A    between atoms: C_3  and  C_9
REMARK    3  A    between atoms: C_9  and  O_11
REMARK                            x       y       z     vdW  Elec       q    Type
REMARK                         _______ _______ _______ _____ _____    ______ ____
ROOT
ATOM      1  O   UNL     1     -15.362   5.242  -2.971  0.00  0.00    +0.000 OA
ATOM      2  C   UNL     1     -15.817   5.490  -4.348  0.00  0.00    +0.000 C 
ATOM      3  C   UNL     1     -17.397   5.337  -4.267  0.00  0.00    +0.000 C 
ATOM      4  C   UNL     1     -16.350   5.840  -2.168  0.00  0.00    +0.000 C 
ATOM      5  C   UNL     1     -17.576   5.660  -2.853  0.00  0.00    +0.000 C 
ATOM      6  C   UNL     1     -15.103   4.404  -5.218  0.00  0.00    +0.000 C 
ATOM      7  N   UNL     1     -15.380   6.858  -4.696  0.00  0.00    +0.000 N 
ATOM      8  C   UNL     1     -15.179   7.964  -3.911  0.00  0.00    +0.000 A 
ATOM      9  C   UNL     1     -15.466   8.097  -2.552  0.00  0.00    +0.000 A 
ATOM     10  C   UNL     1     -14.715   9.144  -4.501  0.00  0.00    +0.000 A 
ATOM     11  N   UNL     1     -16.038   7.132  -1.781  0.00  0.00    +0.000 N 
ATOM     12  C   UNL     1     -15.250   9.369  -2.013  0.00  0.00    +0.000 A 
ATOM     13  C   UNL     1     -16.275   7.860  -0.602  0.00  0.00    +0.000 A 
ATOM     14  C   UNL     1     -15.779   9.215  -0.713  0.00  0.00    +0.000 A 
ATOM     15  C   UNL     1     -16.888   7.412   0.580  0.00  0.00    +0.000 A 
ATOM     16  C   UNL     1     -15.943  10.068   0.397  0.00  0.00    +0.000 A 
ATOM     17  C   UNL     1     -16.551   9.604   1.562  0.00  0.00    +0.000 A 
ATOM     18  C   UNL     1     -17.016   8.300   1.648  0.00  0.00    +0.000 A 
ATOM     19  C   UNL     1     -14.766  10.561  -2.590  0.00  0.00    +0.000 A 
ATOM     20  C   UNL     1     -14.470  10.421  -3.977  0.00  0.00    +0.000 A 
ATOM     21  C   UNL     1     -14.527  11.917  -2.156  0.00  0.00    +0.000 C 
ATOM     22  C   UNL     1     -14.022  11.759  -4.454  0.00  0.00    +0.000 C 
ATOM     23  N   UNL     1     -14.092  12.523  -3.342  0.00  0.00    +0.000 N 
ATOM     24  H   UNL     1     -13.844  13.503  -3.346  0.00  0.00    +0.000 HD
ATOM     25  O   UNL     1     -14.636  12.496  -1.086  0.00  0.00    +0.000 OA
ATOM     26  C   UNL     1     -14.649   8.785  -5.860  0.00  0.00    +0.000 A 
ATOM     27  C   UNL     1     -15.083   7.410  -5.968  0.00  0.00    +0.000 A 
ATOM     28  C   UNL     1     -14.307   9.476  -7.040  0.00  0.00    +0.000 A 
ATOM     29  C   UNL     1     -15.173   6.803  -7.232  0.00  0.00    +0.000 A 
ATOM     30  C   UNL     1     -14.821   7.529  -8.370  0.00  0.00    +0.000 A 
ATOM     31  C   UNL     1     -14.388   8.842  -8.278  0.00  0.00    +0.000 A 
ENDROOT
BRANCH   3  32
ATOM     32  O   UNL     1     -18.136   6.281  -5.057  0.00  0.00    +0.000 OA
ATOM     33  H   UNL     1     -17.575   6.518  -5.828  0.00  0.00    +0.000 HD
ENDBRANCH   3  32
BRANCH   3  34
ATOM     34  C   UNL     1     -17.845   3.912  -4.581  0.00  0.00    +0.000 C 
ATOM     35  O   UNL     1     -18.174   3.598  -5.727  0.00  0.00    +0.000 OA
BRANCH  34  36
ATOM     36  O   UNL     1     -17.871   3.131  -3.459  0.00  0.00    +0.000 OA
ATOM     37  C   UNL     1     -17.172   1.917  -3.493  0.00  0.00    +0.000 C 
ENDBRANCH  34  36
ENDBRANCH   3  34
TORSDOF 3
ENDMDL
MODEL 4
REMARK VINA RESULT:      -6.8     10.724     13.918
REMARK  Name = 3035817_K252a.pdbqt.pdb
REMARK  3 active torsions:
REMARK  status: ('A' for Active; 'I' for Inactive)
REMARK    1  A    between atoms: C_3  and  O_7
REMARK    2  A    between atoms: C_3  and  C_9
REMARK    3  A    between atoms: C_9  and  O_11
REMARK                            x       y       z     vdW  Elec       q    Type
REMARK                         _______ _______ _______ _____ _____    ______ ____
ROOT
ATOM      1  O   UNL     1      -4.913  14.835   2.189  0.00  0.00    +0.000 OA
ATOM      2  C   UNL     1      -4.223  16.092   2.520  0.00  0.00    +0.000 C 
ATOM      3  C   UNL     1      -2.792  15.936   1.846  0.00  0.00    +0.000 C 
ATOM      4  C   UNL     1      -4.489  14.541   0.881  0.00  0.00    +0.000 C 
ATOM      5  C   UNL     1      -3.147  14.987   0.793  0.00  0.00    +0.000 C 
ATOM      6  C   UNL     1      -4.202  16.151   4.082  0.00  0.00    +0.000 C 
ATOM      7  N   UNL     1      -5.029  17.182   1.932  0.00  0.00    +0.000 N 
ATOM      8  C   UNL     1      -5.842  17.204   0.828  0.00  0.00    +0.000 A 
ATOM      9  C   UNL     1      -6.015  16.186  -0.111  0.00  0.00    +0.000 A 
ATOM     10  C   UNL     1      -6.534  18.378   0.514  0.00  0.00    +0.000 A 
ATOM     11  N   UNL     1      -5.360  14.994  -0.095  0.00  0.00    +0.000 N 
ATOM     12  C   UNL     1      -6.836  16.504  -1.198  0.00  0.00    +0.000 A 
ATOM     13  C   UNL     1      -5.752  14.474  -1.341  0.00  0.00    +0.000 A 
ATOM     14  C   UNL     1      -6.671  15.364  -2.015  0.00  0.00    +0.000 A 
ATOM     15  C   UNL     1      -5.369  13.256  -1.927  0.00  0.00    +0.000 A 
ATOM     16  C   UNL     1      -7.156  14.975  -3.280  0.00  0.00    +0.000 A 
ATOM     17  C   UNL     1      -6.767  13.761  -3.844  0.00  0.00    +0.000 A 
ATOM     18  C   UNL     1      -5.887  12.920  -3.177  0.00  0.00    +0.000 A 
ATOM     19  C   UNL     1      -7.554  17.675  -1.518  0.00  0.00    +0.000 A 
ATOM     20  C   UNL     1      -7.378  18.710  -0.555  0.00  0.00    +0.000 A 
ATOM     21  C   UNL     1      -8.397  18.127  -2.599  0.00  0.00    +0.000 C 
ATOM     22  C   UNL     1      -8.147  19.886  -1.049  0.00  0.00    +0.000 C 
ATOM     23  N   UNL     1      -8.682  19.442  -2.207  0.00  0.00    +0.000 N 
ATOM     24  H   UNL     1      -9.270  20.025  -2.787  0.00  0.00    +0.000 HD
ATOM     25  O   UNL     1      -8.817  17.607  -3.622  0.00  0.00    +0.000 OA
ATOM     26  C   UNL     1      -6.080  19.260   1.510  0.00  0.00    +0.000 A 
ATOM     27  C   UNL     1      -5.147  18.534   2.342  0.00  0.00    +0.000 A 
ATOM     28  C   UNL     1      -6.317  20.621   1.795  0.00  0.00    +0.000 A 
ATOM     29  C   UNL     1      -4.488  19.194   3.394  0.00  0.00    +0.000 A 
ATOM     30  C   UNL     1      -4.757  20.541   3.636  0.00  0.00    +0.000 A 
ATOM     31  C   UNL     1      -5.661  21.244   2.856  0.00  0.00    +0.000 A 
ENDROOT
BRANCH   3  32
ATOM     32  O   UNL     1      -2.277  17.132   1.241  0.00  0.00    +0.000 OA
ATOM     33  H   UNL     1      -2.845  17.877   1.536  0.00  0.00    +0.000 HD
ENDBRANCH   3  32
BRANCH   3  34
ATOM     34  C   UNL     1      -1.770  15.346   2.815  0.00  0.00    +0.000 C 
ATOM     35  O   UNL     1      -1.768  14.138   3.063  0.00  0.00    +0.000 OA
BRANCH  34  36
ATOM     36  O   UNL     1      -0.968  16.313   3.355  0.00  0.00    +0.000 OA
ATOM     37  C   UNL     1      -0.394  16.059   4.608  0.00  0.00    +0.000 C 
ENDBRANCH  34  36
ENDBRANCH   3  34
TORSDOF 3
ENDMDL
MODEL 5
REMARK VINA RESULT:      -6.5     25.219     29.083
REMARK  Name = 3035817_K252a.pdbqt.pdb
REMARK  3 active torsions:
REMARK  status: ('A' for Active; 'I' for Inactive)
REMARK    1  A    between atoms: C_3  and  O_7
REMARK    2  A    between atoms: C_3  and  C_9
REMARK    3  A    between atoms: C_9  and  O_11
REMARK                            x       y       z     vdW  Elec       q    Type
REMARK                         _______ _______ _______ _____ _____    ______ ____
ROOT
ATOM      1  O   UNL     1      -8.932  16.009  24.548  0.00  0.00    +0.000 OA
ATOM      2  C   UNL     1      -9.346  15.816  23.149  0.00  0.00    +0.000 C 
ATOM      3  C   UNL     1      -9.605  14.252  23.036  0.00  0.00    +0.000 C 
ATOM      4  C   UNL     1      -9.732  15.108  25.273  0.00  0.00    +0.000 C 
ATOM      5  C   UNL     1      -9.904  13.977  24.439  0.00  0.00    +0.000 C 
ATOM      6  C   UNL     1      -8.148  16.341  22.291  0.00  0.00    +0.000 C 
ATOM      7  N   UNL     1     -10.566  16.625  22.955  0.00  0.00    +0.000 N 
ATOM      8  C   UNL     1     -11.549  16.994  23.837  0.00  0.00    +0.000 A 
ATOM      9  C   UNL     1     -11.696  16.575  25.160  0.00  0.00    +0.000 A 
ATOM     10  C   UNL     1     -12.592  17.814  23.393  0.00  0.00    +0.000 A 
ATOM     11  N   UNL     1     -10.882  15.683  25.787  0.00  0.00    +0.000 N 
ATOM     12  C   UNL     1     -12.846  17.032  25.813  0.00  0.00    +0.000 A 
ATOM     13  C   UNL     1     -11.598  15.484  26.981  0.00  0.00    +0.000 A 
ATOM     14  C   UNL     1     -12.780  16.315  27.028  0.00  0.00    +0.000 A 
ATOM     15  C   UNL     1     -11.275  14.629  28.048  0.00  0.00    +0.000 A 
ATOM     16  C   UNL     1     -13.601  16.229  28.170  0.00  0.00    +0.000 A 
ATOM     17  C   UNL     1     -13.263  15.376  29.220  0.00  0.00    +0.000 A 
ATOM     18  C   UNL     1     -12.121  14.590  29.156  0.00  0.00    +0.000 A 
ATOM     19  C   UNL     1     -13.894  17.872  25.384  0.00  0.00    +0.000 A 
ATOM     20  C   UNL     1     -13.739  18.302  24.034  0.00  0.00    +0.000 A 
ATOM     21  C   UNL     1     -15.123  18.386  25.941  0.00  0.00    +0.000 C 
ATOM     22  C   UNL     1     -14.933  19.131  23.712  0.00  0.00    +0.000 C 
ATOM     23  N   UNL     1     -15.643  19.111  24.861  0.00  0.00    +0.000 N 
ATOM     24  H   UNL     1     -16.525  19.596  24.958  0.00  0.00    +0.000 HD
ATOM     25  O   UNL     1     -15.666  18.287  27.031  0.00  0.00    +0.000 OA
ATOM     26  C   UNL     1     -12.284  17.964  22.029  0.00  0.00    +0.000 A 
ATOM     27  C   UNL     1     -11.075  17.215  21.771  0.00  0.00    +0.000 A 
ATOM     28  C   UNL     1     -12.911  18.621  20.950  0.00  0.00    +0.000 A 
ATOM     29  C   UNL     1     -10.564  17.141  20.463  0.00  0.00    +0.000 A 
ATOM     30  C   UNL     1     -11.220  17.810  19.430  0.00  0.00    +0.000 A 
ATOM     31  C   UNL     1     -12.371  18.544  19.668  0.00  0.00    +0.000 A 
ENDROOT
BRANCH   3  32
ATOM     32  O   UNL     1     -10.739  13.885  22.236  0.00  0.00    +0.000 OA
ATOM     33  H   UNL     1     -11.541  14.218  22.696  0.00  0.00    +0.000 HD
ENDBRANCH   3  32
BRANCH   3  34
ATOM     34  C   UNL     1      -8.359  13.504  22.568  0.00  0.00    +0.000 C 
ATOM     35  O   UNL     1      -7.444  13.256  23.358  0.00  0.00    +0.000 OA
BRANCH  34  36
ATOM     36  O   UNL     1      -8.404  13.232  21.229  0.00  0.00    +0.000 OA
ATOM     37  C   UNL     1      -8.219  11.903  20.826  0.00  0.00    +0.000 C 
ENDBRANCH  34  36
ENDBRANCH   3  34
TORSDOF 3
ENDMDL
MODEL 6
REMARK VINA RESULT:      -6.5     11.063     14.024
REMARK  Name = 3035817_K252a.pdbqt.pdb
REMARK  3 active torsions:
REMARK  status: ('A' for Active; 'I' for Inactive)
REMARK    1  A    between atoms: C_3  and  O_7
REMARK    2  A    between atoms: C_3  and  C_9
REMARK    3  A    between atoms: C_9  and  O_11
REMARK                            x       y       z     vdW  Elec       q    Type
REMARK                         _______ _______ _______ _____ _____    ______ ____
ROOT
ATOM      1  O   UNL     1     -24.555  15.708   3.498  0.00  0.00    +0.000 OA
ATOM      2  C   UNL     1     -24.069  14.362   3.155  0.00  0.00    +0.000 C 
ATOM      3  C   UNL     1     -22.684  14.626   2.422  0.00  0.00    +0.000 C 
ATOM      4  C   UNL     1     -23.393  16.414   3.856  0.00  0.00    +0.000 C 
ATOM      5  C   UNL     1     -22.359  15.916   3.026  0.00  0.00    +0.000 C 
ATOM      6  C   UNL     1     -25.180  13.744   2.244  0.00  0.00    +0.000 C 
ATOM      7  N   UNL     1     -23.924  13.629   4.430  0.00  0.00    +0.000 N 
ATOM      8  C   UNL     1     -23.644  14.075   5.696  0.00  0.00    +0.000 A 
ATOM      9  C   UNL     1     -23.298  15.372   6.076  0.00  0.00    +0.000 A 
ATOM     10  C   UNL     1     -23.605  13.156   6.750  0.00  0.00    +0.000 A 
ATOM     11  N   UNL     1     -23.148  16.418   5.218  0.00  0.00    +0.000 N 
ATOM     12  C   UNL     1     -22.969  15.537   7.425  0.00  0.00    +0.000 A 
ATOM     13  C   UNL     1     -22.611  17.383   6.089  0.00  0.00    +0.000 A 
ATOM     14  C   UNL     1     -22.520  16.876   7.441  0.00  0.00    +0.000 A 
ATOM     15  C   UNL     1     -22.206  18.692   5.783  0.00  0.00    +0.000 A 
ATOM     16  C   UNL     1     -22.002  17.733   8.432  0.00  0.00    +0.000 A 
ATOM     17  C   UNL     1     -21.607  19.031   8.109  0.00  0.00    +0.000 A 
ATOM     18  C   UNL     1     -21.707  19.498   6.806  0.00  0.00    +0.000 A 
ATOM     19  C   UNL     1     -22.944  14.626   8.501  0.00  0.00    +0.000 A 
ATOM     20  C   UNL     1     -23.302  13.302   8.111  0.00  0.00    +0.000 A 
ATOM     21  C   UNL     1     -22.605  14.665   9.903  0.00  0.00    +0.000 C 
ATOM     22  C   UNL     1     -23.181  12.453   9.327  0.00  0.00    +0.000 C 
ATOM     23  N   UNL     1     -22.785  13.327  10.278  0.00  0.00    +0.000 N 
ATOM     24  H   UNL     1     -22.615  13.044  11.233  0.00  0.00    +0.000 HD
ATOM     25  O   UNL     1     -22.248  15.552  10.665  0.00  0.00    +0.000 OA
ATOM     26  C   UNL     1     -23.839  11.939   6.085  0.00  0.00    +0.000 A 
ATOM     27  C   UNL     1     -24.000  12.235   4.679  0.00  0.00    +0.000 A 
ATOM     28  C   UNL     1     -23.899  10.592   6.499  0.00  0.00    +0.000 A 
ATOM     29  C   UNL     1     -24.190  11.187   3.761  0.00  0.00    +0.000 A 
ATOM     30  C   UNL     1     -24.244   9.872   4.221  0.00  0.00    +0.000 A 
ATOM     31  C   UNL     1     -24.108   9.576   5.568  0.00  0.00    +0.000 A 
ENDROOT
BRANCH   3  32
ATOM     32  O   UNL     1     -21.645  13.688   2.739  0.00  0.00    +0.000 OA
ATOM     33  H   UNL     1     -21.948  12.803   2.441  0.00  0.00    +0.000 HD
ENDBRANCH   3  32
BRANCH   3  34
ATOM     34  C   UNL     1     -22.856  14.739   0.909  0.00  0.00    +0.000 C 
ATOM     35  O   UNL     1     -22.582  13.786   0.175  0.00  0.00    +0.000 OA
BRANCH  34  36
ATOM     36  O   UNL     1     -23.274  15.987   0.539  0.00  0.00    +0.000 OA
ATOM     37  C   UNL     1     -24.159  16.084  -0.543  0.00  0.00    +0.000 C 
ENDBRANCH  34  36
ENDBRANCH   3  34
TORSDOF 3
ENDMDL
MODEL 7
REMARK VINA RESULT:      -6.4      2.120      5.572
REMARK  Name = 3035817_K252a.pdbqt.pdb
REMARK  3 active torsions:
REMARK  status: ('A' for Active; 'I' for Inactive)
REMARK    1  A    between atoms: C_3  and  O_7
REMARK    2  A    between atoms: C_3  and  C_9
REMARK    3  A    between atoms: C_9  and  O_11
REMARK                            x       y       z     vdW  Elec       q    Type
REMARK                         _______ _______ _______ _____ _____    ______ ____
ROOT
ATOM      1  O   UNL     1     -15.606   4.695  -1.887  0.00  0.00    +0.000 OA
ATOM      2  C   UNL     1     -16.466   4.332  -3.025  0.00  0.00    +0.000 C 
ATOM      3  C   UNL     1     -17.942   4.559  -2.481  0.00  0.00    +0.000 C 
ATOM      4  C   UNL     1     -16.260   5.791  -1.295  0.00  0.00    +0.000 C 
ATOM      5  C   UNL     1     -17.647   5.552  -1.452  0.00  0.00    +0.000 C 
ATOM      6  C   UNL     1     -16.113   2.843  -3.347  0.00  0.00    +0.000 C 
ATOM      7  N   UNL     1     -16.105   5.242  -4.131  0.00  0.00    +0.000 N 
ATOM      8  C   UNL     1     -15.617   6.524  -4.119  0.00  0.00    +0.000 A 
ATOM      9  C   UNL     1     -15.450   7.351  -3.008  0.00  0.00    +0.000 A 
ATOM     10  C   UNL     1     -15.317   7.151  -5.332  0.00  0.00    +0.000 A 
ATOM     11  N   UNL     1     -15.786   7.016  -1.733  0.00  0.00    +0.000 N 
ATOM     12  C   UNL     1     -15.021   8.653  -3.286  0.00  0.00    +0.000 A 
ATOM     13  C   UNL     1     -15.605   8.254  -1.091  0.00  0.00    +0.000 A 
ATOM     14  C   UNL     1     -15.113   9.255  -2.012  0.00  0.00    +0.000 A 
ATOM     15  C   UNL     1     -15.827   8.566   0.260  0.00  0.00    +0.000 A 
ATOM     16  C   UNL     1     -14.878  10.551  -1.512  0.00  0.00    +0.000 A 
ATOM     17  C   UNL     1     -15.102  10.841  -0.166  0.00  0.00    +0.000 A 
ATOM     18  C   UNL     1     -15.570   9.864   0.701  0.00  0.00    +0.000 A 
ATOM     19  C   UNL     1     -14.696   9.292  -4.500  0.00  0.00    +0.000 A 
ATOM     20  C   UNL     1     -14.864   8.443  -5.632  0.00  0.00    +0.000 A 
ATOM     21  C   UNL     1     -14.274  10.609  -4.913  0.00  0.00    +0.000 C 
ATOM     22  C   UNL     1     -14.536   9.263  -6.831  0.00  0.00    +0.000 C 
ATOM     23  N   UNL     1     -14.214  10.465  -6.306  0.00  0.00    +0.000 N 
ATOM     24  H   UNL     1     -13.940  11.249  -6.882  0.00  0.00    +0.000 HD
ATOM     25  O   UNL     1     -14.012  11.642  -4.315  0.00  0.00    +0.000 OA
ATOM     26  C   UNL     1     -15.703   6.175  -6.269  0.00  0.00    +0.000 A 
ATOM     27  C   UNL     1     -16.207   5.039  -5.531  0.00  0.00    +0.000 A 
ATOM     28  C   UNL     1     -15.726   6.125  -7.678  0.00  0.00    +0.000 A 
ATOM     29  C   UNL     1     -16.721   3.928  -6.223  0.00  0.00    +0.000 A 
ATOM     30  C   UNL     1     -16.719   3.926  -7.618  0.00  0.00    +0.000 A 
ATOM     31  C   UNL     1     -16.225   5.003  -8.336  0.00  0.00    +0.000 A 
ENDROOT
BRANCH   3  32
ATOM     32  O   UNL     1     -18.854   5.129  -3.432  0.00  0.00    +0.000 OA
ATOM     33  H   UNL     1     -18.418   5.095  -4.312  0.00  0.00    +0.000 HD
ENDBRANCH   3  32
BRANCH   3  34
ATOM     34  C   UNL     1     -18.527   3.282  -1.882  0.00  0.00    +0.000 C 
ATOM     35  O   UNL     1     -18.173   2.896  -0.765  0.00  0.00    +0.000 OA
BRANCH  34  36
ATOM     36  O   UNL     1     -19.390   2.666  -2.746  0.00  0.00    +0.000 OA
ATOM     37  C   UNL     1     -19.795   1.360  -2.442  0.00  0.00    +0.000 C 
ENDBRANCH  34  36
ENDBRANCH   3  34
TORSDOF 3
ENDMDL
MODEL 8
REMARK VINA RESULT:      -6.4      7.893     11.924
REMARK  Name = 3035817_K252a.pdbqt.pdb
REMARK  3 active torsions:
REMARK  status: ('A' for Active; 'I' for Inactive)
REMARK    1  A    between atoms: C_3  and  O_7
REMARK    2  A    between atoms: C_3  and  C_9
REMARK    3  A    between atoms: C_9  and  O_11
REMARK                            x       y       z     vdW  Elec       q    Type
REMARK                         _______ _______ _______ _____ _____    ______ ____
ROOT
ATOM      1  O   UNL     1      -9.925  -0.543   0.281  0.00  0.00    +0.000 OA
ATOM      2  C   UNL     1     -10.166  -0.946   1.676  0.00  0.00    +0.000 C 
ATOM      3  C   UNL     1      -9.956   0.392   2.507  0.00  0.00    +0.000 C 
ATOM      4  C   UNL     1     -10.482   0.746   0.193  0.00  0.00    +0.000 C 
ATOM      5  C   UNL     1     -10.262   1.355   1.453  0.00  0.00    +0.000 C 
ATOM      6  C   UNL     1      -9.112  -2.065   1.967  0.00  0.00    +0.000 C 
ATOM      7  N   UNL     1     -11.550  -1.458   1.734  0.00  0.00    +0.000 N 
ATOM      8  C   UNL     1     -12.658  -1.139   0.990  0.00  0.00    +0.000 A 
ATOM      9  C   UNL     1     -12.771  -0.124   0.039  0.00  0.00    +0.000 A 
ATOM     10  C   UNL     1     -13.858  -1.817   1.229  0.00  0.00    +0.000 A 
ATOM     11  N   UNL     1     -11.782   0.753  -0.283  0.00  0.00    +0.000 N 
ATOM     12  C   UNL     1     -14.047   0.049  -0.507  0.00  0.00    +0.000 A 
ATOM     13  C   UNL     1     -12.493   1.644  -1.105  0.00  0.00    +0.000 A 
ATOM     14  C   UNL     1     -13.865   1.219  -1.276  0.00  0.00    +0.000 A 
ATOM     15  C   UNL     1     -12.015   2.806  -1.734  0.00  0.00    +0.000 A 
ATOM     16  C   UNL     1     -14.705   2.014  -2.082  0.00  0.00    +0.000 A 
ATOM     17  C   UNL     1     -14.212   3.163  -2.700  0.00  0.00    +0.000 A 
ATOM     18  C   UNL     1     -12.891   3.550  -2.525  0.00  0.00    +0.000 A 
ATOM     19  C   UNL     1     -15.259  -0.638  -0.291  0.00  0.00    +0.000 A 
ATOM     20  C   UNL     1     -15.139  -1.677   0.678  0.00  0.00    +0.000 A 
ATOM     21  C   UNL     1     -16.620  -0.542  -0.763  0.00  0.00    +0.000 C 
ATOM     22  C   UNL     1     -16.495  -2.271   0.834  0.00  0.00    +0.000 C 
ATOM     23  N   UNL     1     -17.249  -1.555  -0.028  0.00  0.00    +0.000 N 
ATOM     24  H   UNL     1     -18.237  -1.728  -0.151  0.00  0.00    +0.000 HD
ATOM     25  O   UNL     1     -17.188   0.177  -1.572  0.00  0.00    +0.000 OA
ATOM     26  C   UNL     1     -13.511  -2.657   2.302  0.00  0.00    +0.000 A 
ATOM     27  C   UNL     1     -12.122  -2.408   2.617  0.00  0.00    +0.000 A 
ATOM     28  C   UNL     1     -14.221  -3.588   3.087  0.00  0.00    +0.000 A 
ATOM     29  C   UNL     1     -11.520  -3.075   3.699  0.00  0.00    +0.000 A 
ATOM     30  C   UNL     1     -12.266  -3.989   4.444  0.00  0.00    +0.000 A 
ATOM     31  C   UNL     1     -13.593  -4.248   4.141  0.00  0.00    +0.000 A 
ENDROOT
BRANCH   3  32
ATOM     32  O   UNL     1     -10.877   0.579   3.592  0.00  0.00    +0.000 OA
ATOM     33  H   UNL     1     -10.509   0.111   4.373  0.00  0.00    +0.000 HD
ENDBRANCH   3  32
BRANCH   3  34
ATOM     34  C   UNL     1      -8.518   0.534   2.999  0.00  0.00    +0.000 C 
ATOM     35  O   UNL     1      -7.591   0.665   2.196  0.00  0.00    +0.000 OA
BRANCH  34  36
ATOM     36  O   UNL     1      -8.438   0.439   4.361  0.00  0.00    +0.000 OA
ATOM     37  C   UNL     1      -7.759   1.456   5.046  0.00  0.00    +0.000 C 
ENDBRANCH  34  36
ENDBRANCH   3  34
TORSDOF 3
ENDMDL
MODEL 9
REMARK VINA RESULT:      -6.3     10.636     13.788
REMARK  Name = 3035817_K252a.pdbqt.pdb
REMARK  3 active torsions:
REMARK  status: ('A' for Active; 'I' for Inactive)
REMARK    1  A    between atoms: C_3  and  O_7
REMARK    2  A    between atoms: C_3  and  C_9
REMARK    3  A    between atoms: C_9  and  O_11
REMARK                            x       y       z     vdW  Elec       q    Type
REMARK                         _______ _______ _______ _____ _____    ______ ____
ROOT
ATOM      1  O   UNL     1      -3.302  17.534   0.602  0.00  0.00    +0.000 OA
ATOM      2  C   UNL     1      -3.520  16.092   0.801  0.00  0.00    +0.000 C 
ATOM      3  C   UNL     1      -4.172  15.996   2.247  0.00  0.00    +0.000 C 
ATOM      4  C   UNL     1      -4.423  18.138   1.197  0.00  0.00    +0.000 C 
ATOM      5  C   UNL     1      -4.759  17.332   2.312  0.00  0.00    +0.000 C 
ATOM      6  C   UNL     1      -2.102  15.442   0.683  0.00  0.00    +0.000 C 
ATOM      7  N   UNL     1      -4.426  15.650  -0.278  0.00  0.00    +0.000 N 
ATOM      8  C   UNL     1      -5.402  16.326  -0.966  0.00  0.00    +0.000 A 
ATOM      9  C   UNL     1      -5.869  17.616  -0.715  0.00  0.00    +0.000 A 
ATOM     10  C   UNL     1      -6.096  15.669  -1.987  0.00  0.00    +0.000 A 
ATOM     11  N   UNL     1      -5.441  18.414   0.301  0.00  0.00    +0.000 N 
ATOM     12  C   UNL     1      -6.942  18.033  -1.511  0.00  0.00    +0.000 A 
ATOM     13  C   UNL     1      -6.368  19.467   0.202  0.00  0.00    +0.000 A 
ATOM     14  C   UNL     1      -7.272  19.268  -0.910  0.00  0.00    +0.000 A 
ATOM     15  C   UNL     1      -6.468  20.607   1.016  0.00  0.00    +0.000 A 
ATOM     16  C   UNL     1      -8.259  20.247  -1.139  0.00  0.00    +0.000 A 
ATOM     17  C   UNL     1      -8.341  21.374  -0.322  0.00  0.00    +0.000 A 
ATOM     18  C   UNL     1      -7.461  21.546   0.737  0.00  0.00    +0.000 A 
ATOM     19  C   UNL     1      -7.638  17.390  -2.555  0.00  0.00    +0.000 A 
ATOM     20  C   UNL     1      -7.155  16.074  -2.811  0.00  0.00    +0.000 A 
ATOM     21  C   UNL     1      -8.755  17.696  -3.417  0.00  0.00    +0.000 C 
ATOM     22  C   UNL     1      -8.011  15.510  -3.891  0.00  0.00    +0.000 C 
ATOM     23  N   UNL     1      -8.876  16.513  -4.157  0.00  0.00    +0.000 N 
ATOM     24  H   UNL     1      -9.596  16.430  -4.861  0.00  0.00    +0.000 HD
ATOM     25  O   UNL     1      -9.473  18.674  -3.559  0.00  0.00    +0.000 OA
ATOM     26  C   UNL     1      -5.542  14.377  -1.933  0.00  0.00    +0.000 A 
ATOM     27  C   UNL     1      -4.556  14.371  -0.876  0.00  0.00    +0.000 A 
ATOM     28  C   UNL     1      -5.783  13.178  -2.635  0.00  0.00    +0.000 A 
ATOM     29  C   UNL     1      -3.879  13.180  -0.558  0.00  0.00    +0.000 A 
ATOM     30  C   UNL     1      -4.152  12.020  -1.284  0.00  0.00    +0.000 A 
ATOM     31  C   UNL     1      -5.083  12.018  -2.310  0.00  0.00    +0.000 A 
ENDROOT
BRANCH   3  32
ATOM     32  O   UNL     1      -5.218  15.021   2.374  0.00  0.00    +0.000 OA
ATOM     33  H   UNL     1      -4.827  14.225   2.797  0.00  0.00    +0.000 HD
ENDBRANCH   3  32
BRANCH   3  34
ATOM     34  C   UNL     1      -3.118  15.790   3.332  0.00  0.00    +0.000 C 
ATOM     35  O   UNL     1      -2.503  16.752   3.798  0.00  0.00    +0.000 OA
BRANCH  34  36
ATOM     36  O   UNL     1      -2.948  14.465   3.627  0.00  0.00    +0.000 OA
ATOM     37  C   UNL     1      -1.686  14.054   4.078  0.00  0.00    +0.000 C 
ENDBRANCH  34  36
ENDBRANCH   3  34
TORSDOF 3
ENDMDL
