MODEL 1
REMARK VINA RESULT:      -5.4      0.000      0.000
REMARK  Name = 3136_Dimethoxy.pdbqt.pdb
REMARK  2 active torsions:
REMARK  status: ('A' for Active; 'I' for Inactive)
REMARK    1  A    between atoms: C_7  and  O_13
REMARK    2  A    between atoms: C_8  and  O_15
REMARK                            x       y       z     vdW  Elec       q    Type
REMARK                         _______ _______ _______ _____ _____    ______ ____
ROOT
ATOM      1  O   UNL     1     -17.893   5.796  -0.082  0.00  0.00    +0.000 OA
ATOM      2  O   UNL     1     -14.673   8.802  -3.081  0.00  0.00    +0.000 OA
ATOM      3  C   UNL     1     -16.561   7.711  -0.233  0.00  0.00    +0.000 A 
ATOM      4  C   UNL     1     -15.703   8.480  -1.006  0.00  0.00    +0.000 A 
ATOM      5  C   UNL     1     -17.177   6.499  -0.782  0.00  0.00    +0.000 C 
ATOM      6  C   UNL     1     -15.389   8.094  -2.386  0.00  0.00    +0.000 C 
ATOM      7  C   UNL     1     -16.890   6.148  -2.195  0.00  0.00    +0.000 C 
ATOM      8  C   UNL     1     -15.980   6.839  -2.910  0.00  0.00    +0.000 C 
ATOM      9  C   UNL     1     -16.845   8.087   1.080  0.00  0.00    +0.000 A 
ATOM     10  C   UNL     1     -15.127   9.635  -0.474  0.00  0.00    +0.000 A 
ATOM     11  C   UNL     1     -16.270   9.238   1.613  0.00  0.00    +0.000 A 
ATOM     12  C   UNL     1     -15.411  10.012   0.837  0.00  0.00    +0.000 A 
ENDROOT
BRANCH   7  13
ATOM     13  O   UNL     1     -17.539   5.021  -2.667  0.00  0.00    +0.000 OA
ATOM     14  C   UNL     1     -18.698   5.403  -3.369  0.00  0.00    +0.000 C 
ENDBRANCH   7  13
BRANCH   8  15
ATOM     15  O   UNL     1     -15.606   6.504  -4.200  0.00  0.00    +0.000 OA
ATOM     16  C   UNL     1     -14.512   5.620  -4.161  0.00  0.00    +0.000 C 
ENDBRANCH   8  15
TORSDOF 2
ENDMDL
MODEL 2
REMARK VINA RESULT:      -5.3      0.601      3.033
REMARK  Name = 3136_Dimethoxy.pdbqt.pdb
REMARK  2 active torsions:
REMARK  status: ('A' for Active; 'I' for Inactive)
REMARK    1  A    between atoms: C_7  and  O_13
REMARK    2  A    between atoms: C_8  and  O_15
REMARK                            x       y       z     vdW  Elec       q    Type
REMARK                         _______ _______ _______ _____ _____    ______ ____
ROOT
ATOM      1  O   UNL     1     -14.681   8.864  -3.119  0.00  0.00    +0.000 OA
ATOM      2  O   UNL     1     -18.125   5.858  -0.380  0.00  0.00    +0.000 OA
ATOM      3  C   UNL     1     -15.755   8.457  -1.082  0.00  0.00    +0.000 A 
ATOM      4  C   UNL     1     -16.670   7.689  -0.376  0.00  0.00    +0.000 A 
ATOM      5  C   UNL     1     -15.450   8.154  -2.485  0.00  0.00    +0.000 C 
ATOM      6  C   UNL     1     -17.358   6.564  -1.019  0.00  0.00    +0.000 C 
ATOM      7  C   UNL     1     -16.115   6.984  -3.108  0.00  0.00    +0.000 C 
ATOM      8  C   UNL     1     -17.077   6.302  -2.452  0.00  0.00    +0.000 C 
ATOM      9  C   UNL     1     -15.113   9.527  -0.460  0.00  0.00    +0.000 A 
ATOM     10  C   UNL     1     -16.947   7.983   0.960  0.00  0.00    +0.000 A 
ATOM     11  C   UNL     1     -15.390   9.824   0.873  0.00  0.00    +0.000 A 
ATOM     12  C   UNL     1     -16.306   9.052   1.583  0.00  0.00    +0.000 A 
ENDROOT
BRANCH   7  13
ATOM     13  O   UNL     1     -15.750   6.724  -4.416  0.00  0.00    +0.000 OA
ATOM     14  C   UNL     1     -14.640   5.858  -4.434  0.00  0.00    +0.000 C 
ENDBRANCH   7  13
BRANCH   8  15
ATOM     15  O   UNL     1     -17.793   5.260  -3.013  0.00  0.00    +0.000 OA
ATOM     16  C   UNL     1     -17.170   4.036  -2.703  0.00  0.00    +0.000 C 
ENDBRANCH   8  15
TORSDOF 2
ENDMDL
MODEL 3
REMARK VINA RESULT:      -5.1      2.555      4.405
REMARK  Name = 3136_Dimethoxy.pdbqt.pdb
REMARK  2 active torsions:
REMARK  status: ('A' for Active; 'I' for Inactive)
REMARK    1  A    between atoms: C_7  and  O_13
REMARK    2  A    between atoms: C_8  and  O_15
REMARK                            x       y       z     vdW  Elec       q    Type
REMARK                         _______ _______ _______ _____ _____    ______ ____
ROOT
ATOM      1  O   UNL     1     -15.327   9.771  -4.551  0.00  0.00    +0.000 OA
ATOM      2  O   UNL     1     -15.139  10.001   0.770  0.00  0.00    +0.000 OA
ATOM      3  C   UNL     1     -14.793  11.025  -2.650  0.00  0.00    +0.000 A 
ATOM      4  C   UNL     1     -14.767  11.093  -1.264  0.00  0.00    +0.000 A 
ATOM      5  C   UNL     1     -15.258   9.810  -3.329  0.00  0.00    +0.000 C 
ATOM      6  C   UNL     1     -15.211   9.957  -0.450  0.00  0.00    +0.000 C 
ATOM      7  C   UNL     1     -15.657   8.651  -2.494  0.00  0.00    +0.000 C 
ATOM      8  C   UNL     1     -15.727   8.755  -1.151  0.00  0.00    +0.000 C 
ATOM      9  C   UNL     1     -14.374  12.115  -3.412  0.00  0.00    +0.000 A 
ATOM     10  C   UNL     1     -14.317  12.252  -0.630  0.00  0.00    +0.000 A 
ATOM     11  C   UNL     1     -13.925  13.272  -2.780  0.00  0.00    +0.000 A 
ATOM     12  C   UNL     1     -13.896  13.341  -1.389  0.00  0.00    +0.000 A 
ENDROOT
BRANCH   7  13
ATOM     13  O   UNL     1     -16.040   7.522  -3.195  0.00  0.00    +0.000 OA
ATOM     14  C   UNL     1     -14.942   6.652  -3.326  0.00  0.00    +0.000 C 
ENDBRANCH   7  13
BRANCH   8  15
ATOM     15  O   UNL     1     -16.176   7.739  -0.328  0.00  0.00    +0.000 OA
ATOM     16  C   UNL     1     -17.572   7.834  -0.177  0.00  0.00    +0.000 C 
ENDBRANCH   8  15
TORSDOF 2
ENDMDL
MODEL 4
REMARK VINA RESULT:      -4.7      1.391      3.232
REMARK  Name = 3136_Dimethoxy.pdbqt.pdb
REMARK  2 active torsions:
REMARK  status: ('A' for Active; 'I' for Inactive)
REMARK    1  A    between atoms: C_7  and  O_13
REMARK    2  A    between atoms: C_8  and  O_15
REMARK                            x       y       z     vdW  Elec       q    Type
REMARK                         _______ _______ _______ _____ _____    ______ ____
ROOT
ATOM      1  O   UNL     1     -16.270   8.164  -4.081  0.00  0.00    +0.000 OA
ATOM      2  O   UNL     1     -17.007   7.864   1.188  0.00  0.00    +0.000 OA
ATOM      3  C   UNL     1     -15.896   9.122  -1.981  0.00  0.00    +0.000 A 
ATOM      4  C   UNL     1     -16.109   9.057  -0.612  0.00  0.00    +0.000 A 
ATOM      5  C   UNL     1     -16.416   8.077  -2.869  0.00  0.00    +0.000 C 
ATOM      6  C   UNL     1     -16.865   7.946  -0.024  0.00  0.00    +0.000 C 
ATOM      7  C   UNL     1     -17.136   6.934  -2.256  0.00  0.00    +0.000 C 
ATOM      8  C   UNL     1     -17.429   6.924  -0.940  0.00  0.00    +0.000 C 
ATOM      9  C   UNL     1     -15.180  10.187  -2.527  0.00  0.00    +0.000 A 
ATOM     10  C   UNL     1     -15.604  10.054   0.223  0.00  0.00    +0.000 A 
ATOM     11  C   UNL     1     -14.676  11.185  -1.696  0.00  0.00    +0.000 A 
ATOM     12  C   UNL     1     -14.887  11.118  -0.320  0.00  0.00    +0.000 A 
ENDROOT
BRANCH   7  13
ATOM     13  O   UNL     1     -17.560   5.960  -3.141  0.00  0.00    +0.000 OA
ATOM     14  C   UNL     1     -18.893   6.208  -3.515  0.00  0.00    +0.000 C 
ENDBRANCH   7  13
BRANCH   8  15
ATOM     15  O   UNL     1     -18.173   5.930  -0.329  0.00  0.00    +0.000 OA
ATOM     16  C   UNL     1     -17.354   4.814  -0.075  0.00  0.00    +0.000 C 
ENDBRANCH   8  15
TORSDOF 2
ENDMDL
MODEL 5
REMARK VINA RESULT:      -4.5     24.739     26.971
REMARK  Name = 3136_Dimethoxy.pdbqt.pdb
REMARK  2 active torsions:
REMARK  status: ('A' for Active; 'I' for Inactive)
REMARK    1  A    between atoms: C_7  and  O_13
REMARK    2  A    between atoms: C_8  and  O_15
REMARK                            x       y       z     vdW  Elec       q    Type
REMARK                         _______ _______ _______ _____ _____    ______ ____
ROOT
ATOM      1  O   UNL     1     -14.861  20.338  20.771  0.00  0.00    +0.000 OA
ATOM      2  O   UNL     1     -12.814  16.914  24.304  0.00  0.00    +0.000 OA
ATOM      3  C   UNL     1     -13.237  18.721  21.235  0.00  0.00    +0.000 A 
ATOM      4  C   UNL     1     -12.689  17.847  22.163  0.00  0.00    +0.000 A 
ATOM      5  C   UNL     1     -14.411  19.532  21.574  0.00  0.00    +0.000 C 
ATOM      6  C   UNL     1     -13.267  17.722  23.506  0.00  0.00    +0.000 C 
ATOM      7  C   UNL     1     -15.016  19.359  22.918  0.00  0.00    +0.000 C 
ATOM      8  C   UNL     1     -14.423  18.586  23.851  0.00  0.00    +0.000 C 
ATOM      9  C   UNL     1     -12.674  18.834  19.964  0.00  0.00    +0.000 A 
ATOM     10  C   UNL     1     -11.575  17.077  21.826  0.00  0.00    +0.000 A 
ATOM     11  C   UNL     1     -11.561  18.067  19.626  0.00  0.00    +0.000 A 
ATOM     12  C   UNL     1     -11.012  17.188  20.557  0.00  0.00    +0.000 A 
ENDROOT
BRANCH   7  13
ATOM     13  O   UNL     1     -16.147  20.116  23.159  0.00  0.00    +0.000 OA
ATOM     14  C   UNL     1     -17.296  19.330  22.951  0.00  0.00    +0.000 C 
ENDBRANCH   7  13
BRANCH   8  15
ATOM     15  O   UNL     1     -14.890  18.456  25.147  0.00  0.00    +0.000 OA
ATOM     16  C   UNL     1     -14.290  19.431  25.966  0.00  0.00    +0.000 C 
ENDBRANCH   8  15
TORSDOF 2
ENDMDL
MODEL 6
REMARK VINA RESULT:      -4.2     25.899     28.014
REMARK  Name = 3136_Dimethoxy.pdbqt.pdb
REMARK  2 active torsions:
REMARK  status: ('A' for Active; 'I' for Inactive)
REMARK    1  A    between atoms: C_7  and  O_13
REMARK    2  A    between atoms: C_8  and  O_15
REMARK                            x       y       z     vdW  Elec       q    Type
REMARK                         _______ _______ _______ _____ _____    ______ ____
ROOT
ATOM      1  O   UNL     1     -12.277  18.497  21.702  0.00  0.00    +0.000 OA
ATOM      2  O   UNL     1     -15.603  18.316  25.862  0.00  0.00    +0.000 OA
ATOM      3  C   UNL     1     -14.448  18.829  22.505  0.00  0.00    +0.000 A 
ATOM      4  C   UNL     1     -15.319  18.758  23.583  0.00  0.00    +0.000 A 
ATOM      5  C   UNL     1     -13.032  18.483  22.665  0.00  0.00    +0.000 C 
ATOM      6  C   UNL     1     -14.845  18.328  24.902  0.00  0.00    +0.000 C 
ATOM      7  C   UNL     1     -12.555  18.098  24.016  0.00  0.00    +0.000 C 
ATOM      8  C   UNL     1     -13.421  17.933  25.037  0.00  0.00    +0.000 C 
ATOM      9  C   UNL     1     -14.914  19.234  21.255  0.00  0.00    +0.000 A 
ATOM     10  C   UNL     1     -16.663  19.096  23.419  0.00  0.00    +0.000 A 
ATOM     11  C   UNL     1     -16.256  19.570  21.089  0.00  0.00    +0.000 A 
ATOM     12  C   UNL     1     -17.131  19.502  22.171  0.00  0.00    +0.000 A 
ENDROOT
BRANCH   7  13
ATOM     13  O   UNL     1     -11.202  17.829  24.111  0.00  0.00    +0.000 OA
ATOM     14  C   UNL     1     -10.527  18.966  24.594  0.00  0.00    +0.000 C 
ENDBRANCH   7  13
BRANCH   8  15
ATOM     15  O   UNL     1     -13.048  17.490  26.293  0.00  0.00    +0.000 OA
ATOM     16  C   UNL     1     -13.121  16.085  26.341  0.00  0.00    +0.000 C 
ENDBRANCH   8  15
TORSDOF 2
ENDMDL
MODEL 7
REMARK VINA RESULT:      -4.2     19.576     21.713
REMARK  Name = 3136_Dimethoxy.pdbqt.pdb
REMARK  2 active torsions:
REMARK  status: ('A' for Active; 'I' for Inactive)
REMARK    1  A    between atoms: C_7  and  O_13
REMARK    2  A    between atoms: C_8  and  O_15
REMARK                            x       y       z     vdW  Elec       q    Type
REMARK                         _______ _______ _______ _____ _____    ______ ____
ROOT
ATOM      1  O   UNL     1     -11.372   7.342  19.847  0.00  0.00    +0.000 OA
ATOM      2  O   UNL     1     -10.347   2.371  18.225  0.00  0.00    +0.000 OA
ATOM      3  C   UNL     1     -10.471   5.955  18.194  0.00  0.00    +0.000 A 
ATOM      4  C   UNL     1     -10.182   4.661  17.784  0.00  0.00    +0.000 A 
ATOM      5  C   UNL     1     -11.164   6.199  19.464  0.00  0.00    +0.000 C 
ATOM      6  C   UNL     1     -10.557   3.511  18.614  0.00  0.00    +0.000 C 
ATOM      7  C   UNL     1     -11.581   5.025  20.269  0.00  0.00    +0.000 C 
ATOM      8  C   UNL     1     -11.211   3.776  19.918  0.00  0.00    +0.000 C 
ATOM      9  C   UNL     1     -10.104   7.039  17.398  0.00  0.00    +0.000 A 
ATOM     10  C   UNL     1      -9.528   4.442  16.571  0.00  0.00    +0.000 A 
ATOM     11  C   UNL     1      -9.449   6.823  16.188  0.00  0.00    +0.000 A 
ATOM     12  C   UNL     1      -9.162   5.524  15.773  0.00  0.00    +0.000 A 
ENDROOT
BRANCH   7  13
ATOM     13  O   UNL     1     -12.272   5.320  21.430  0.00  0.00    +0.000 OA
ATOM     14  C   UNL     1     -13.644   5.072  21.241  0.00  0.00    +0.000 C 
ENDBRANCH   7  13
BRANCH   8  15
ATOM     15  O   UNL     1     -11.494   2.653  20.676  0.00  0.00    +0.000 OA
ATOM     16  C   UNL     1     -10.479   2.460  21.632  0.00  0.00    +0.000 C 
ENDBRANCH   8  15
TORSDOF 2
ENDMDL
MODEL 8
REMARK VINA RESULT:      -3.8     23.002     25.461
REMARK  Name = 3136_Dimethoxy.pdbqt.pdb
REMARK  2 active torsions:
REMARK  status: ('A' for Active; 'I' for Inactive)
REMARK    1  A    between atoms: C_7  and  O_13
REMARK    2  A    between atoms: C_8  and  O_15
REMARK                            x       y       z     vdW  Elec       q    Type
REMARK                         _______ _______ _______ _____ _____    ______ ____
ROOT
ATOM      1  O   UNL     1     -14.346   4.398  21.256  0.00  0.00    +0.000 OA
ATOM      2  O   UNL     1     -16.875   5.649  25.776  0.00  0.00    +0.000 OA
ATOM      3  C   UNL     1     -16.377   4.882  22.308  0.00  0.00    +0.000 A 
ATOM      4  C   UNL     1     -17.039   5.183  23.490  0.00  0.00    +0.000 A 
ATOM      5  C   UNL     1     -14.920   4.713  22.289  0.00  0.00    +0.000 C 
ATOM      6  C   UNL     1     -16.296   5.332  24.746  0.00  0.00    +0.000 C 
ATOM      7  C   UNL     1     -14.177   4.916  23.557  0.00  0.00    +0.000 C 
ATOM      8  C   UNL     1     -14.830   5.109  24.721  0.00  0.00    +0.000 C 
ATOM      9  C   UNL     1     -17.096   4.737  21.122  0.00  0.00    +0.000 A 
ATOM     10  C   UNL     1     -18.425   5.347  23.494  0.00  0.00    +0.000 A 
ATOM     11  C   UNL     1     -18.480   4.899  21.124  0.00  0.00    +0.000 A 
ATOM     12  C   UNL     1     -19.144   5.205  22.309  0.00  0.00    +0.000 A 
ENDROOT
BRANCH   7  13
ATOM     13  O   UNL     1     -12.803   4.789  23.463  0.00  0.00    +0.000 OA
ATOM     14  C   UNL     1     -12.240   6.022  23.083  0.00  0.00    +0.000 C 
ENDBRANCH   7  13
BRANCH   8  15
ATOM     15  O   UNL     1     -14.195   5.215  25.946  0.00  0.00    +0.000 OA
ATOM     16  C   UNL     1     -13.858   6.560  26.189  0.00  0.00    +0.000 C 
ENDBRANCH   8  15
TORSDOF 2
ENDMDL
MODEL 9
REMARK VINA RESULT:      -3.7     19.452     21.870
REMARK  Name = 3136_Dimethoxy.pdbqt.pdb
REMARK  2 active torsions:
REMARK  status: ('A' for Active; 'I' for Inactive)
REMARK    1  A    between atoms: C_7  and  O_13
REMARK    2  A    between atoms: C_8  and  O_15
REMARK                            x       y       z     vdW  Elec       q    Type
REMARK                         _______ _______ _______ _____ _____    ______ ____
ROOT
ATOM      1  O   UNL     1      -8.918   2.456  19.221  0.00  0.00    +0.000 OA
ATOM      2  O   UNL     1     -11.628   7.020  18.739  0.00  0.00    +0.000 OA
ATOM      3  C   UNL     1      -9.437   4.309  17.892  0.00  0.00    +0.000 A 
ATOM      4  C   UNL     1     -10.162   5.485  17.757  0.00  0.00    +0.000 A 
ATOM      5  C   UNL     1      -9.519   3.518  19.125  0.00  0.00    +0.000 C 
ATOM      6  C   UNL     1     -11.031   5.957  18.841  0.00  0.00    +0.000 C 
ATOM      7  C   UNL     1     -10.362   4.033  20.231  0.00  0.00    +0.000 C 
ATOM      8  C   UNL     1     -11.142   5.121  20.061  0.00  0.00    +0.000 C 
ATOM      9  C   UNL     1      -8.620   3.869  16.852  0.00  0.00    +0.000 A 
ATOM     10  C   UNL     1     -10.071   6.231  16.582  0.00  0.00    +0.000 A 
ATOM     11  C   UNL     1      -8.529   4.612  15.677  0.00  0.00    +0.000 A 
ATOM     12  C   UNL     1      -9.254   5.794  15.542  0.00  0.00    +0.000 A 
ENDROOT
BRANCH   7  13
ATOM     13  O   UNL     1     -10.359   3.267  21.382  0.00  0.00    +0.000 OA
ATOM     14  C   UNL     1      -9.451   3.810  22.310  0.00  0.00    +0.000 C 
ENDBRANCH   7  13
BRANCH   8  15
ATOM     15  O   UNL     1     -12.015   5.595  21.024  0.00  0.00    +0.000 OA
ATOM     16  C   UNL     1     -13.243   4.915  20.925  0.00  0.00    +0.000 C 
ENDBRANCH   8  15
TORSDOF 2
ENDMDL
