MODEL 1
REMARK VINA RESULT:      -5.7      0.000      0.000
REMARK  Name = 326_Cuminaldehyde.pdb
REMARK  1 active torsions:
REMARK  status: ('A' for Active; 'I' for Inactive)
REMARK    1  A    between atoms: C_1  and  C_7
REMARK                            x       y       z     vdW  Elec       q    Type
REMARK                         _______ _______ _______ _____ _____    ______ ____
ROOT
ATOM      1  C   UNL     1     -14.856  10.707  -1.121  0.00  0.00    +0.000 C 
ATOM      2  C   UNL     1     -14.418  11.832  -0.417  0.00  0.00    +0.000 C 
ATOM      3  C   UNL     1     -14.886  10.738  -2.517  0.00  0.00    +0.000 C 
ATOM      4  C   UNL     1     -14.012  12.975  -1.103  0.00  0.00    +0.000 C 
ATOM      5  C   UNL     1     -14.482  11.882  -3.204  0.00  0.00    +0.000 C 
ATOM      6  C   UNL     1     -14.045  12.999  -2.495  0.00  0.00    +0.000 C 
ATOM      7  O   UNL     1     -13.290  15.134  -3.777  0.00  0.00    +0.000 OA
ATOM      8  C   UNL     1     -13.632  14.169  -3.198  0.00  0.00    +0.000 C 
ENDROOT
BRANCH   1   9
ATOM      9  C   UNL     1     -15.279   9.509  -0.401  0.00  0.00    +0.000 C 
ATOM     10  C   UNL     1     -15.693   9.565   1.048  0.00  0.00    +0.000 C 
ATOM     11  C   UNL     1     -15.323   8.160  -1.075  0.00  0.00    +0.000 C 
ENDBRANCH   1   9
TORSDOF 1
ENDMDL
MODEL 2
REMARK VINA RESULT:      -5.5      1.318      2.055
REMARK  Name = 326_Cuminaldehyde.pdb
REMARK  1 active torsions:
REMARK  status: ('A' for Active; 'I' for Inactive)
REMARK    1  A    between atoms: C_1  and  C_7
REMARK                            x       y       z     vdW  Elec       q    Type
REMARK                         _______ _______ _______ _____ _____    ______ ____
ROOT
ATOM      1  C   UNL     1     -15.279   9.166  -1.532  0.00  0.00    +0.000 C 
ATOM      2  C   UNL     1     -15.203   9.819  -0.300  0.00  0.00    +0.000 C 
ATOM      3  C   UNL     1     -14.959   9.863  -2.700  0.00  0.00    +0.000 C 
ATOM      4  C   UNL     1     -14.809  11.154  -0.235  0.00  0.00    +0.000 C 
ATOM      5  C   UNL     1     -14.565  11.198  -2.636  0.00  0.00    +0.000 C 
ATOM      6  C   UNL     1     -14.491  11.842  -1.403  0.00  0.00    +0.000 C 
ATOM      7  O   UNL     1     -13.756  14.336  -1.283  0.00  0.00    +0.000 OA
ATOM      8  C   UNL     1     -14.088  13.209  -1.338  0.00  0.00    +0.000 C 
ENDROOT
BRANCH   1   9
ATOM      9  C   UNL     1     -15.691   7.767  -1.600  0.00  0.00    +0.000 C 
ATOM     10  C   UNL     1     -16.704   7.197  -0.638  0.00  0.00    +0.000 C 
ATOM     11  C   UNL     1     -15.123   6.828  -2.633  0.00  0.00    +0.000 C 
ENDBRANCH   1   9
TORSDOF 1
ENDMDL
MODEL 3
REMARK VINA RESULT:      -5.3      1.609      3.140
REMARK  Name = 326_Cuminaldehyde.pdb
REMARK  1 active torsions:
REMARK  status: ('A' for Active; 'I' for Inactive)
REMARK    1  A    between atoms: C_1  and  C_7
REMARK                            x       y       z     vdW  Elec       q    Type
REMARK                         _______ _______ _______ _____ _____    ______ ____
ROOT
ATOM      1  C   UNL     1     -15.422   8.374  -1.356  0.00  0.00    +0.000 C 
ATOM      2  C   UNL     1     -15.164   9.068  -2.541  0.00  0.00    +0.000 C 
ATOM      3  C   UNL     1     -15.369   9.053  -0.137  0.00  0.00    +0.000 C 
ATOM      4  C   UNL     1     -14.859  10.428  -2.507  0.00  0.00    +0.000 C 
ATOM      5  C   UNL     1     -15.063  10.412  -0.101  0.00  0.00    +0.000 C 
ATOM      6  C   UNL     1     -14.808  11.098  -1.288  0.00  0.00    +0.000 C 
ATOM      7  O   UNL     1     -14.236  13.636  -1.222  0.00  0.00    +0.000 OA
ATOM      8  C   UNL     1     -14.495  12.489  -1.252  0.00  0.00    +0.000 C 
ENDROOT
BRANCH   1   9
ATOM      9  C   UNL     1     -15.743   6.950  -1.393  0.00  0.00    +0.000 C 
ATOM     10  C   UNL     1     -14.839   5.956  -2.078  0.00  0.00    +0.000 C 
ATOM     11  C   UNL     1     -16.993   6.408  -0.747  0.00  0.00    +0.000 C 
ENDBRANCH   1   9
TORSDOF 1
ENDMDL
MODEL 4
REMARK VINA RESULT:      -5.1      3.255      5.312
REMARK  Name = 326_Cuminaldehyde.pdb
REMARK  1 active torsions:
REMARK  status: ('A' for Active; 'I' for Inactive)
REMARK    1  A    between atoms: C_1  and  C_7
REMARK                            x       y       z     vdW  Elec       q    Type
REMARK                         _______ _______ _______ _____ _____    ______ ____
ROOT
ATOM      1  C   UNL     1     -14.858  10.962  -1.594  0.00  0.00    +0.000 C 
ATOM      2  C   UNL     1     -15.146   9.916  -2.474  0.00  0.00    +0.000 C 
ATOM      3  C   UNL     1     -15.190  10.835  -0.243  0.00  0.00    +0.000 C 
ATOM      4  C   UNL     1     -15.758   8.753  -2.008  0.00  0.00    +0.000 C 
ATOM      5  C   UNL     1     -15.803   9.673   0.224  0.00  0.00    +0.000 C 
ATOM      6  C   UNL     1     -16.086   8.634  -0.660  0.00  0.00    +0.000 C 
ATOM      7  O   UNL     1     -17.229   6.465   0.212  0.00  0.00    +0.000 OA
ATOM      8  C   UNL     1     -16.713   7.445  -0.182  0.00  0.00    +0.000 C 
ENDROOT
BRANCH   1   9
ATOM      9  C   UNL     1     -14.217  12.179  -2.083  0.00  0.00    +0.000 C 
ATOM     10  C   UNL     1     -13.687  13.226  -1.135  0.00  0.00    +0.000 C 
ATOM     11  C   UNL     1     -14.054  12.445  -3.559  0.00  0.00    +0.000 C 
ENDBRANCH   1   9
TORSDOF 1
ENDMDL
MODEL 5
REMARK VINA RESULT:      -5.0      3.465      5.041
REMARK  Name = 326_Cuminaldehyde.pdb
REMARK  1 active torsions:
REMARK  status: ('A' for Active; 'I' for Inactive)
REMARK    1  A    between atoms: C_1  and  C_7
REMARK                            x       y       z     vdW  Elec       q    Type
REMARK                         _______ _______ _______ _____ _____    ______ ____
ROOT
ATOM      1  C   UNL     1     -15.095   9.078  -1.471  0.00  0.00    +0.000 C 
ATOM      2  C   UNL     1     -15.215   7.701  -1.266  0.00  0.00    +0.000 C 
ATOM      3  C   UNL     1     -14.899   9.566  -2.765  0.00  0.00    +0.000 C 
ATOM      4  C   UNL     1     -15.141   6.821  -2.345  0.00  0.00    +0.000 C 
ATOM      5  C   UNL     1     -14.823   8.687  -3.844  0.00  0.00    +0.000 C 
ATOM      6  C   UNL     1     -14.945   7.315  -3.632  0.00  0.00    +0.000 C 
ATOM      7  O   UNL     1     -14.804   5.673  -5.646  0.00  0.00    +0.000 OA
ATOM      8  C   UNL     1     -14.868   6.415  -4.736  0.00  0.00    +0.000 C 
ENDROOT
BRANCH   1   9
ATOM      9  C   UNL     1     -15.174   9.999  -0.341  0.00  0.00    +0.000 C 
ATOM     10  C   UNL     1     -15.590   9.529   1.031  0.00  0.00    +0.000 C 
ATOM     11  C   UNL     1     -14.843  11.462  -0.493  0.00  0.00    +0.000 C 
ENDBRANCH   1   9
TORSDOF 1
ENDMDL
MODEL 6
REMARK VINA RESULT:      -4.8     12.192     12.690
REMARK  Name = 326_Cuminaldehyde.pdb
REMARK  1 active torsions:
REMARK  status: ('A' for Active; 'I' for Inactive)
REMARK    1  A    between atoms: C_1  and  C_7
REMARK                            x       y       z     vdW  Elec       q    Type
REMARK                         _______ _______ _______ _____ _____    ______ ____
ROOT
ATOM      1  C   UNL     1     -24.028   9.947   5.951  0.00  0.00    +0.000 C 
ATOM      2  C   UNL     1     -23.234   9.487   7.004  0.00  0.00    +0.000 C 
ATOM      3  C   UNL     1     -24.244  11.319   5.802  0.00  0.00    +0.000 C 
ATOM      4  C   UNL     1     -22.659  10.389   7.897  0.00  0.00    +0.000 C 
ATOM      5  C   UNL     1     -23.670  12.222   6.695  0.00  0.00    +0.000 C 
ATOM      6  C   UNL     1     -22.878  11.755   7.742  0.00  0.00    +0.000 C 
ATOM      7  O   UNL     1     -21.806  13.441   9.410  0.00  0.00    +0.000 OA
ATOM      8  C   UNL     1     -22.291  12.679   8.656  0.00  0.00    +0.000 C 
ENDROOT
BRANCH   1   9
ATOM      9  C   UNL     1     -24.630   9.001   5.016  0.00  0.00    +0.000 C 
ATOM     10  C   UNL     1     -24.888   9.373   3.577  0.00  0.00    +0.000 C 
ATOM     11  C   UNL     1     -25.020   7.609   5.445  0.00  0.00    +0.000 C 
ENDBRANCH   1   9
TORSDOF 1
ENDMDL
MODEL 7
REMARK VINA RESULT:      -4.7      2.514      4.474
REMARK  Name = 326_Cuminaldehyde.pdb
REMARK  1 active torsions:
REMARK  status: ('A' for Active; 'I' for Inactive)
REMARK    1  A    between atoms: C_1  and  C_7
REMARK                            x       y       z     vdW  Elec       q    Type
REMARK                         _______ _______ _______ _____ _____    ______ ____
ROOT
ATOM      1  C   UNL     1     -16.356   7.063  -0.884  0.00  0.00    +0.000 C 
ATOM      2  C   UNL     1     -15.578   7.616  -1.904  0.00  0.00    +0.000 C 
ATOM      3  C   UNL     1     -16.681   7.840   0.230  0.00  0.00    +0.000 C 
ATOM      4  C   UNL     1     -15.133   8.934  -1.813  0.00  0.00    +0.000 C 
ATOM      5  C   UNL     1     -16.235   9.157   0.324  0.00  0.00    +0.000 C 
ATOM      6  C   UNL     1     -15.461   9.702  -0.699  0.00  0.00    +0.000 C 
ATOM      7  O   UNL     1     -14.629  12.161  -0.525  0.00  0.00    +0.000 OA
ATOM      8  C   UNL     1     -15.005  11.050  -0.604  0.00  0.00    +0.000 C 
ENDROOT
BRANCH   1   9
ATOM      9  C   UNL     1     -16.823   5.683  -0.981  0.00  0.00    +0.000 C 
ATOM     10  C   UNL     1     -16.603   4.862  -2.227  0.00  0.00    +0.000 C 
ATOM     11  C   UNL     1     -17.547   5.015   0.161  0.00  0.00    +0.000 C 
ENDBRANCH   1   9
TORSDOF 1
ENDMDL
MODEL 8
REMARK VINA RESULT:      -4.3      2.730      4.263
REMARK  Name = 326_Cuminaldehyde.pdb
REMARK  1 active torsions:
REMARK  status: ('A' for Active; 'I' for Inactive)
REMARK    1  A    between atoms: C_1  and  C_7
REMARK                            x       y       z     vdW  Elec       q    Type
REMARK                         _______ _______ _______ _____ _____    ______ ____
ROOT
ATOM      1  C   UNL     1     -15.074   7.285  -2.944  0.00  0.00    +0.000 C 
ATOM      2  C   UNL     1     -15.224   7.466  -1.567  0.00  0.00    +0.000 C 
ATOM      3  C   UNL     1     -14.876   8.397  -3.766  0.00  0.00    +0.000 C 
ATOM      4  C   UNL     1     -15.175   8.746  -1.017  0.00  0.00    +0.000 C 
ATOM      5  C   UNL     1     -14.827   9.678  -3.217  0.00  0.00    +0.000 C 
ATOM      6  C   UNL     1     -14.977   9.850  -1.843  0.00  0.00    +0.000 C 
ATOM      7  O   UNL     1     -14.887  12.240  -0.817  0.00  0.00    +0.000 OA
ATOM      8  C   UNL     1     -14.928  11.160  -1.281  0.00  0.00    +0.000 C 
ENDROOT
BRANCH   1   9
ATOM      9  C   UNL     1     -15.124   5.944  -3.520  0.00  0.00    +0.000 C 
ATOM     10  C   UNL     1     -13.938   5.350  -4.237  0.00  0.00    +0.000 C 
ATOM     11  C   UNL     1     -16.365   5.093  -3.423  0.00  0.00    +0.000 C 
ENDBRANCH   1   9
TORSDOF 1
ENDMDL
MODEL 9
REMARK VINA RESULT:      -4.3     12.694     14.168
REMARK  Name = 326_Cuminaldehyde.pdb
REMARK  1 active torsions:
REMARK  status: ('A' for Active; 'I' for Inactive)
REMARK    1  A    between atoms: C_1  and  C_7
REMARK                            x       y       z     vdW  Elec       q    Type
REMARK                         _______ _______ _______ _____ _____    ______ ____
ROOT
ATOM      1  C   UNL     1      -6.010   1.595   3.060  0.00  0.00    +0.000 C 
ATOM      2  C   UNL     1      -6.835   1.558   1.933  0.00  0.00    +0.000 C 
ATOM      3  C   UNL     1      -6.577   1.471   4.330  0.00  0.00    +0.000 C 
ATOM      4  C   UNL     1      -8.213   1.398   2.075  0.00  0.00    +0.000 C 
ATOM      5  C   UNL     1      -7.955   1.312   4.474  0.00  0.00    +0.000 C 
ATOM      6  C   UNL     1      -8.770   1.276   3.345  0.00  0.00    +0.000 C 
ATOM      7  O   UNL     1     -11.342   0.979   3.611  0.00  0.00    +0.000 OA
ATOM      8  C   UNL     1     -10.180   1.113   3.491  0.00  0.00    +0.000 C 
ENDROOT
BRANCH   1   9
ATOM      9  C   UNL     1      -4.568   1.761   2.910  0.00  0.00    +0.000 C 
ATOM     10  C   UNL     1      -3.601   0.688   3.347  0.00  0.00    +0.000 C 
ATOM     11  C   UNL     1      -3.977   3.013   2.312  0.00  0.00    +0.000 C 
ENDBRANCH   1   9
TORSDOF 1
ENDMDL
