MODEL 1
REMARK VINA RESULT:      -5.4      0.000      0.000
REMARK  Name = 3363_5FluorouracilDeoxyriboside.pdbqt.pdb
REMARK  4 active torsions:
REMARK  status: ('A' for Active; 'I' for Inactive)
REMARK    1  A    between atoms: N_4  and  C1*_13
REMARK    2  A    between atoms: C3*_12  and  O3*_16
REMARK    3  A    between atoms: C4*_15  and  C5*_18
REMARK    4  A    between atoms: C5*_18  and  O5*_19
REMARK                            x       y       z     vdW  Elec       q    Type
REMARK                         _______ _______ _______ _____ _____    ______ ____
ROOT
ATOM      1  F   UNL     1     -21.835   2.675  20.054  0.00  0.00    +0.000 F 
ATOM      2  O   UNL     1     -22.203   4.587  14.983  0.00  0.00    +0.000 OA
ATOM      3  O   UNL     1     -22.774   1.094  17.904  0.00  0.00    +0.000 OA
ATOM      4  N   UNL     1     -21.882   5.010  17.293  0.00  0.00    +0.000 N 
ATOM      5  N   UNL     1     -22.554   2.903  16.496  0.00  0.00    +0.000 N 
ATOM      6  C   UNL     1     -22.206   4.233  16.155  0.00  0.00    +0.000 C 
ATOM      7  C   UNL     1     -21.950   4.400  18.494  0.00  0.00    +0.000 C 
ATOM      8  C   UNL     1     -22.253   3.213  18.896  0.00  0.00    +0.000 C 
ATOM      9  C   UNL     1     -22.557   2.290  17.756  0.00  0.00    +0.000 C 
ATOM     10  H   UNL     1     -22.754   2.298  15.712  0.00  0.00    +0.000 HD
ENDROOT
BRANCH   4  13
ATOM     11  O4* UNL     1     -20.397   6.743  16.490  0.00  0.00    +0.000 OA
ATOM     12  C3* UNL     1     -21.368   8.581  17.514  0.00  0.00    +0.000 A 
ATOM     13  C1* UNL     1     -21.503   6.321  17.240  0.00  0.00    +0.000 A 
ATOM     14  C2* UNL     1     -22.104   7.434  17.859  0.00  0.00    +0.000 A 
ATOM     15  C4* UNL     1     -20.303   8.131  16.650  0.00  0.00    +0.000 A 
BRANCH  12  16
ATOM     16  O3* UNL     1     -21.921   9.825  17.393  0.00  0.00    +0.000 OA
ATOM     17  H3* UNL     1     -21.704  10.399  18.150  0.00  0.00    +0.000 HD
ENDBRANCH  12  16
BRANCH  15  18
ATOM     18  C5* UNL     1     -19.426   8.923  15.884  0.00  0.00    +0.000 C 
BRANCH  18  19
ATOM     19  O5* UNL     1     -18.582   9.665  15.175  0.00  0.00    +0.000 OA
ATOM     20  H5* UNL     1     -19.028  10.042  14.396  0.00  0.00    +0.000 HD
ENDBRANCH  18  19
ENDBRANCH  15  18
ENDBRANCH   4  13
TORSDOF 4
ENDMDL
MODEL 2
REMARK VINA RESULT:      -4.5     12.348     14.750
REMARK  Name = 3363_5FluorouracilDeoxyriboside.pdbqt.pdb
REMARK  4 active torsions:
REMARK  status: ('A' for Active; 'I' for Inactive)
REMARK    1  A    between atoms: N_4  and  C1*_13
REMARK    2  A    between atoms: C3*_12  and  O3*_16
REMARK    3  A    between atoms: C4*_15  and  C5*_18
REMARK    4  A    between atoms: C5*_18  and  O5*_19
REMARK                            x       y       z     vdW  Elec       q    Type
REMARK                         _______ _______ _______ _____ _____    ______ ____
ROOT
ATOM      1  F   UNL     1     -25.571  16.750   4.582  0.00  0.00    +0.000 F 
ATOM      2  O   UNL     1     -21.704  16.833   8.397  0.00  0.00    +0.000 OA
ATOM      3  O   UNL     1     -23.894  18.992   4.991  0.00  0.00    +0.000 OA
ATOM      4  N   UNL     1     -23.615  15.783   7.466  0.00  0.00    +0.000 N 
ATOM      5  N   UNL     1     -22.886  17.900   6.750  0.00  0.00    +0.000 N 
ATOM      6  C   UNL     1     -22.655  16.811   7.625  0.00  0.00    +0.000 C 
ATOM      7  C   UNL     1     -24.578  15.978   6.542  0.00  0.00    +0.000 C 
ATOM      8  C   UNL     1     -24.865  16.923   5.712  0.00  0.00    +0.000 C 
ATOM      9  C   UNL     1     -23.869  18.040   5.761  0.00  0.00    +0.000 C 
ATOM     10  H   UNL     1     -22.202  18.642   6.799  0.00  0.00    +0.000 HD
ENDROOT
BRANCH   4  13
ATOM     11  O4* UNL     1     -22.900  13.490   7.757  0.00  0.00    +0.000 OA
ATOM     12  C3* UNL     1     -23.966  13.010   9.758  0.00  0.00    +0.000 A 
ATOM     13  C1* UNL     1     -23.613  14.619   8.181  0.00  0.00    +0.000 A 
ATOM     14  C2* UNL     1     -24.257  14.338   9.401  0.00  0.00    +0.000 A 
ATOM     15  C4* UNL     1     -23.109  12.494   8.718  0.00  0.00    +0.000 A 
BRANCH  12  16
ATOM     16  O3* UNL     1     -23.875  12.578  11.051  0.00  0.00    +0.000 OA
ATOM     17  H3* UNL     1     -23.861  13.318  11.685  0.00  0.00    +0.000 HD
ENDBRANCH  12  16
BRANCH  15  18
ATOM     18  C5* UNL     1     -22.387  11.284   8.722  0.00  0.00    +0.000 C 
BRANCH  18  19
ATOM     19  O5* UNL     1     -21.689  10.153   8.724  0.00  0.00    +0.000 OA
ATOM     20  H5* UNL     1     -20.990  10.181   8.048  0.00  0.00    +0.000 HD
ENDBRANCH  18  19
ENDBRANCH  15  18
ENDBRANCH   4  13
TORSDOF 4
ENDMDL
MODEL 3
REMARK VINA RESULT:      -4.1     12.410     13.347
REMARK  Name = 3363_5FluorouracilDeoxyriboside.pdbqt.pdb
REMARK  4 active torsions:
REMARK  status: ('A' for Active; 'I' for Inactive)
REMARK    1  A    between atoms: N_4  and  C1*_13
REMARK    2  A    between atoms: C3*_12  and  O3*_16
REMARK    3  A    between atoms: C4*_15  and  C5*_18
REMARK    4  A    between atoms: C5*_18  and  O5*_19
REMARK                            x       y       z     vdW  Elec       q    Type
REMARK                         _______ _______ _______ _____ _____    ______ ____
ROOT
ATOM      1  F   UNL     1     -24.334  15.715   5.282  0.00  0.00    +0.000 F 
ATOM      2  O   UNL     1     -21.939  12.754   9.156  0.00  0.00    +0.000 OA
ATOM      3  O   UNL     1     -23.509  13.042   4.853  0.00  0.00    +0.000 OA
ATOM      4  N   UNL     1     -22.686  14.868   8.388  0.00  0.00    +0.000 N 
ATOM      5  N   UNL     1     -22.657  12.977   6.992  0.00  0.00    +0.000 N 
ATOM      6  C   UNL     1     -22.382  13.490   8.283  0.00  0.00    +0.000 C 
ATOM      7  C   UNL     1     -23.174  15.476   7.287  0.00  0.00    +0.000 C 
ATOM      8  C   UNL     1     -23.452  15.098   6.086  0.00  0.00    +0.000 C 
ATOM      9  C   UNL     1     -23.219  13.631   5.887  0.00  0.00    +0.000 C 
ATOM     10  H   UNL     1     -22.493  11.987   6.881  0.00  0.00    +0.000 HD
ENDROOT
BRANCH   4  13
ATOM     11  O4* UNL     1     -21.257  15.853  10.074  0.00  0.00    +0.000 OA
ATOM     12  C3* UNL     1     -22.869  16.870  11.392  0.00  0.00    +0.000 A 
ATOM     13  C1* UNL     1     -22.523  15.602   9.529  0.00  0.00    +0.000 A 
ATOM     14  C2* UNL     1     -23.508  16.224  10.319  0.00  0.00    +0.000 A 
ATOM     15  C4* UNL     1     -21.457  16.632  11.220  0.00  0.00    +0.000 A 
BRANCH  12  16
ATOM     16  O3* UNL     1     -23.345  18.009  11.979  0.00  0.00    +0.000 OA
ATOM     17  H3* UNL     1     -24.302  18.124  11.835  0.00  0.00    +0.000 HD
ENDBRANCH  12  16
BRANCH  15  18
ATOM     18  C5* UNL     1     -20.393  17.238  11.917  0.00  0.00    +0.000 C 
BRANCH  18  19
ATOM     19  O5* UNL     1     -19.389  17.794  12.587  0.00  0.00    +0.000 OA
ATOM     20  H5* UNL     1     -19.296  18.733  12.351  0.00  0.00    +0.000 HD
ENDBRANCH  18  19
ENDBRANCH  15  18
ENDBRANCH   4  13
TORSDOF 4
ENDMDL
MODEL 4
REMARK VINA RESULT:      -3.8     11.925     13.066
REMARK  Name = 3363_5FluorouracilDeoxyriboside.pdbqt.pdb
REMARK  4 active torsions:
REMARK  status: ('A' for Active; 'I' for Inactive)
REMARK    1  A    between atoms: N_4  and  C1*_13
REMARK    2  A    between atoms: C3*_12  and  O3*_16
REMARK    3  A    between atoms: C4*_15  and  C5*_18
REMARK    4  A    between atoms: C5*_18  and  O5*_19
REMARK                            x       y       z     vdW  Elec       q    Type
REMARK                         _______ _______ _______ _____ _____    ______ ____
ROOT
ATOM      1  F   UNL     1     -26.692  10.579   2.665  0.00  0.00    +0.000 F 
ATOM      2  O   UNL     1     -24.612   7.281   6.447  0.00  0.00    +0.000 OA
ATOM      3  O   UNL     1     -27.227   7.802   2.712  0.00  0.00    +0.000 OA
ATOM      4  N   UNL     1     -24.628   9.404   5.392  0.00  0.00    +0.000 N 
ATOM      5  N   UNL     1     -25.834   7.578   4.532  0.00  0.00    +0.000 N 
ATOM      6  C   UNL     1     -24.970   8.040   5.554  0.00  0.00    +0.000 C 
ATOM      7  C   UNL     1     -25.151  10.046   4.328  0.00  0.00    +0.000 C 
ATOM      8  C   UNL     1     -25.934   9.714   3.358  0.00  0.00    +0.000 C 
ATOM      9  C   UNL     1     -26.402   8.295   3.471  0.00  0.00    +0.000 C 
ATOM     10  H   UNL     1     -26.138   6.620   4.628  0.00  0.00    +0.000 HD
ENDROOT
BRANCH   4  13
ATOM     11  O4* UNL     1     -23.769  11.495   6.252  0.00  0.00    +0.000 OA
ATOM     12  C3* UNL     1     -22.325  10.677   7.869  0.00  0.00    +0.000 A 
ATOM     13  C1* UNL     1     -23.818  10.095   6.247  0.00  0.00    +0.000 A 
ATOM     14  C2* UNL     1     -22.949   9.590   7.233  0.00  0.00    +0.000 A 
ATOM     15  C4* UNL     1     -22.854  11.866   7.245  0.00  0.00    +0.000 A 
BRANCH  12  16
ATOM     16  O3* UNL     1     -21.929  10.661   9.178  0.00  0.00    +0.000 OA
ATOM     17  H3* UNL     1     -22.041   9.782   9.584  0.00  0.00    +0.000 HD
ENDBRANCH  12  16
BRANCH  15  18
ATOM     18  C5* UNL     1     -22.694  13.200   7.667  0.00  0.00    +0.000 C 
BRANCH  18  19
ATOM     19  O5* UNL     1     -22.531  14.463   8.047  0.00  0.00    +0.000 OA
ATOM     20  H5* UNL     1     -21.756  14.856   7.611  0.00  0.00    +0.000 HD
ENDBRANCH  18  19
ENDBRANCH  15  18
ENDBRANCH   4  13
TORSDOF 4
ENDMDL
MODEL 5
REMARK VINA RESULT:      -3.6     24.724     25.886
REMARK  Name = 3363_5FluorouracilDeoxyriboside.pdbqt.pdb
REMARK  4 active torsions:
REMARK  status: ('A' for Active; 'I' for Inactive)
REMARK    1  A    between atoms: N_4  and  C1*_13
REMARK    2  A    between atoms: C3*_12  and  O3*_16
REMARK    3  A    between atoms: C4*_15  and  C5*_18
REMARK    4  A    between atoms: C5*_18  and  O5*_19
REMARK                            x       y       z     vdW  Elec       q    Type
REMARK                         _______ _______ _______ _____ _____    ______ ____
ROOT
ATOM      1  F   UNL     1      -1.764  19.413   2.366  0.00  0.00    +0.000 F 
ATOM      2  O   UNL     1      -4.611  15.080   3.989  0.00  0.00    +0.000 OA
ATOM      3  O   UNL     1      -1.278  18.120   4.835  0.00  0.00    +0.000 OA
ATOM      4  N   UNL     1      -4.356  16.894   2.484  0.00  0.00    +0.000 N 
ATOM      5  N   UNL     1      -3.018  16.674   4.404  0.00  0.00    +0.000 N 
ATOM      6  C   UNL     1      -4.069  16.120   3.633  0.00  0.00    +0.000 C 
ATOM      7  C   UNL     1      -3.619  18.007   2.292  0.00  0.00    +0.000 C 
ATOM      8  C   UNL     1      -2.658  18.583   2.930  0.00  0.00    +0.000 C 
ATOM      9  C   UNL     1      -2.236  17.807   4.139  0.00  0.00    +0.000 C 
ATOM     10  H   UNL     1      -2.750  16.134   5.214  0.00  0.00    +0.000 HD
ENDROOT
BRANCH   4  13
ATOM     11  O4* UNL     1      -6.064  17.557   0.903  0.00  0.00    +0.000 OA
ATOM     12  C3* UNL     1      -6.739  15.464   0.172  0.00  0.00    +0.000 A 
ATOM     13  C1* UNL     1      -5.319  16.575   1.568  0.00  0.00    +0.000 A 
ATOM     14  C2* UNL     1      -5.717  15.299   1.124  0.00  0.00    +0.000 A 
ATOM     15  C4* UNL     1      -6.941  16.886   0.041  0.00  0.00    +0.000 A 
BRANCH  12  16
ATOM     16  O3* UNL     1      -6.945  14.604  -0.870  0.00  0.00    +0.000 OA
ATOM     17  H3* UNL     1      -6.711  13.687  -0.641  0.00  0.00    +0.000 HD
ENDBRANCH  12  16
BRANCH  15  18
ATOM     18  C5* UNL     1      -7.708  17.559  -0.930  0.00  0.00    +0.000 C 
BRANCH  18  19
ATOM     19  O5* UNL     1      -8.445  18.176  -1.846  0.00  0.00    +0.000 OA
ATOM     20  H5* UNL     1      -8.174  17.910  -2.742  0.00  0.00    +0.000 HD
ENDBRANCH  18  19
ENDBRANCH  15  18
ENDBRANCH   4  13
TORSDOF 4
ENDMDL
MODEL 6
REMARK VINA RESULT:      -3.5     19.856     21.901
REMARK  Name = 3363_5FluorouracilDeoxyriboside.pdbqt.pdb
REMARK  4 active torsions:
REMARK  status: ('A' for Active; 'I' for Inactive)
REMARK    1  A    between atoms: N_4  and  C1*_13
REMARK    2  A    between atoms: C3*_12  and  O3*_16
REMARK    3  A    between atoms: C4*_15  and  C5*_18
REMARK    4  A    between atoms: C5*_18  and  O5*_19
REMARK                            x       y       z     vdW  Elec       q    Type
REMARK                         _______ _______ _______ _____ _____    ______ ____
ROOT
ATOM      1  F   UNL     1      -4.187  17.413   9.777  0.00  0.00    +0.000 F 
ATOM      2  O   UNL     1      -4.796  13.931  13.902  0.00  0.00    +0.000 OA
ATOM      3  O   UNL     1      -6.690  16.950  11.011  0.00  0.00    +0.000 OA
ATOM      4  N   UNL     1      -3.445  14.790  12.154  0.00  0.00    +0.000 N 
ATOM      5  N   UNL     1      -5.710  15.379  12.379  0.00  0.00    +0.000 N 
ATOM      6  C   UNL     1      -4.634  14.622  12.903  0.00  0.00    +0.000 C 
ATOM      7  C   UNL     1      -3.502  15.614  11.087  0.00  0.00    +0.000 C 
ATOM      8  C   UNL     1      -4.422  16.333  10.541  0.00  0.00    +0.000 C 
ATOM      9  C   UNL     1      -5.714  16.269  11.298  0.00  0.00    +0.000 C 
ATOM     10  H   UNL     1      -6.570  15.321  12.905  0.00  0.00    +0.000 HD
ENDROOT
BRANCH   4  13
ATOM     11  O4* UNL     1      -1.625  14.363  13.690  0.00  0.00    +0.000 OA
ATOM     12  C3* UNL     1      -0.359  12.923  12.388  0.00  0.00    +0.000 A 
ATOM     13  C1* UNL     1      -2.260  14.181  12.454  0.00  0.00    +0.000 A 
ATOM     14  C2* UNL     1      -1.501  13.300  11.660  0.00  0.00    +0.000 A 
ATOM     15  C4* UNL     1      -0.454  13.595  13.661  0.00  0.00    +0.000 A 
BRANCH  12  16
ATOM     16  O3* UNL     1       0.256  11.710  12.253  0.00  0.00    +0.000 OA
ATOM     17  H3* UNL     1       1.213  11.762  12.425  0.00  0.00    +0.000 HD
ENDBRANCH  12  16
BRANCH  15  18
ATOM     18  C5* UNL     1       0.338  13.380  14.806  0.00  0.00    +0.000 C 
BRANCH  18  19
ATOM     19  O5* UNL     1       1.102  13.183  15.875  0.00  0.00    +0.000 OA
ATOM     20  H5* UNL     1       1.940  12.758  15.624  0.00  0.00    +0.000 HD
ENDBRANCH  18  19
ENDBRANCH  15  18
ENDBRANCH   4  13
TORSDOF 4
ENDMDL
MODEL 7
REMARK VINA RESULT:      -3.2     14.324     15.876
REMARK  Name = 3363_5FluorouracilDeoxyriboside.pdbqt.pdb
REMARK  4 active torsions:
REMARK  status: ('A' for Active; 'I' for Inactive)
REMARK    1  A    between atoms: N_4  and  C1*_13
REMARK    2  A    between atoms: C3*_12  and  O3*_16
REMARK    3  A    between atoms: C4*_15  and  C5*_18
REMARK    4  A    between atoms: C5*_18  and  O5*_19
REMARK                            x       y       z     vdW  Elec       q    Type
REMARK                         _______ _______ _______ _____ _____    ______ ____
ROOT
ATOM      1  F   UNL     1     -22.734  20.620  17.148  0.00  0.00    +0.000 F 
ATOM      2  O   UNL     1     -21.474  19.302  12.031  0.00  0.00    +0.000 OA
ATOM      3  O   UNL     1     -24.286  18.811  15.625  0.00  0.00    +0.000 OA
ATOM      4  N   UNL     1     -21.132  20.710  13.908  0.00  0.00    +0.000 N 
ATOM      5  N   UNL     1     -22.897  19.159  13.821  0.00  0.00    +0.000 N 
ATOM      6  C   UNL     1     -21.781  19.709  13.145  0.00  0.00    +0.000 C 
ATOM      7  C   UNL     1     -21.648  20.989  15.122  0.00  0.00    +0.000 C 
ATOM      8  C   UNL     1     -22.646  20.550  15.810  0.00  0.00    +0.000 C 
ATOM      9  C   UNL     1     -23.369  19.439  15.111  0.00  0.00    +0.000 C 
ATOM     10  H   UNL     1     -23.369  18.412  13.332  0.00  0.00    +0.000 HD
ENDROOT
BRANCH   4  13
ATOM     11  O4* UNL     1     -18.794  20.749  13.287  0.00  0.00    +0.000 OA
ATOM     12  C3* UNL     1     -18.570  23.002  12.791  0.00  0.00    +0.000 A 
ATOM     13  C1* UNL     1     -20.023  21.390  13.490  0.00  0.00    +0.000 A 
ATOM     14  C2* UNL     1     -19.898  22.758  13.182  0.00  0.00    +0.000 A 
ATOM     15  C4* UNL     1     -17.892  21.730  12.857  0.00  0.00    +0.000 A 
BRANCH  12  16
ATOM     16  O3* UNL     1     -18.213  23.966  11.890  0.00  0.00    +0.000 OA
ATOM     17  H3* UNL     1     -17.975  24.805  12.326  0.00  0.00    +0.000 HD
ENDBRANCH  12  16
BRANCH  15  18
ATOM     18  C5* UNL     1     -16.608  21.415  12.370  0.00  0.00    +0.000 C 
BRANCH  18  19
ATOM     19  O5* UNL     1     -15.397  21.101  11.922  0.00  0.00    +0.000 OA
ATOM     20  H5* UNL     1     -15.191  20.170  12.115  0.00  0.00    +0.000 HD
ENDBRANCH  18  19
ENDBRANCH  15  18
ENDBRANCH   4  13
TORSDOF 4
ENDMDL
MODEL 8
REMARK VINA RESULT:      -3.2     16.006     17.004
REMARK  Name = 3363_5FluorouracilDeoxyriboside.pdbqt.pdb
REMARK  4 active torsions:
REMARK  status: ('A' for Active; 'I' for Inactive)
REMARK    1  A    between atoms: N_4  and  C1*_13
REMARK    2  A    between atoms: C3*_12  and  O3*_16
REMARK    3  A    between atoms: C4*_15  and  C5*_18
REMARK    4  A    between atoms: C5*_18  and  O5*_19
REMARK                            x       y       z     vdW  Elec       q    Type
REMARK                         _______ _______ _______ _____ _____    ______ ____
ROOT
ATOM      1  F   UNL     1     -13.885  12.416  31.494  0.00  0.00    +0.000 F 
ATOM      2  O   UNL     1     -12.636  14.435  26.608  0.00  0.00    +0.000 OA
ATOM      3  O   UNL     1     -12.673  10.850  29.473  0.00  0.00    +0.000 OA
ATOM      4  N   UNL     1     -13.765  14.682  28.678  0.00  0.00    +0.000 N 
ATOM      5  N   UNL     1     -12.758  12.654  28.044  0.00  0.00    +0.000 N 
ATOM      6  C   UNL     1     -13.032  13.995  27.680  0.00  0.00    +0.000 C 
ATOM      7  C   UNL     1     -14.088  13.990  29.789  0.00  0.00    +0.000 C 
ATOM      8  C   UNL     1     -13.887  12.784  30.202  0.00  0.00    +0.000 C 
ATOM      9  C   UNL     1     -13.064  11.986  29.237  0.00  0.00    +0.000 C 
ATOM     10  H   UNL     1     -12.202  12.135  27.379  0.00  0.00    +0.000 HD
ENDROOT
BRANCH   4  13
ATOM     11  O4* UNL     1     -15.490  16.359  28.430  0.00  0.00    +0.000 OA
ATOM     12  C3* UNL     1     -14.178  18.268  28.490  0.00  0.00    +0.000 A 
ATOM     13  C1* UNL     1     -14.148  15.989  28.580  0.00  0.00    +0.000 A 
ATOM     14  C2* UNL     1     -13.343  17.144  28.627  0.00  0.00    +0.000 A 
ATOM     15  C4* UNL     1     -15.522  17.757  28.373  0.00  0.00    +0.000 A 
BRANCH  12  16
ATOM     16  O3* UNL     1     -13.910  19.480  29.062  0.00  0.00    +0.000 OA
ATOM     17  H3* UNL     1     -13.184  19.946  28.610  0.00  0.00    +0.000 HD
ENDBRANCH  12  16
BRANCH  15  18
ATOM     18  C5* UNL     1     -16.725  18.489  28.421  0.00  0.00    +0.000 C 
BRANCH  18  19
ATOM     19  O5* UNL     1     -17.853  19.189  28.483  0.00  0.00    +0.000 OA
ATOM     20  H5* UNL     1     -18.371  19.079  27.667  0.00  0.00    +0.000 HD
ENDBRANCH  18  19
ENDBRANCH  15  18
ENDBRANCH   4  13
TORSDOF 4
ENDMDL
MODEL 9
REMARK VINA RESULT:      -3.1     20.400     22.909
REMARK  Name = 3363_5FluorouracilDeoxyriboside.pdbqt.pdb
REMARK  4 active torsions:
REMARK  status: ('A' for Active; 'I' for Inactive)
REMARK    1  A    between atoms: N_4  and  C1*_13
REMARK    2  A    between atoms: C3*_12  and  O3*_16
REMARK    3  A    between atoms: C4*_15  and  C5*_18
REMARK    4  A    between atoms: C5*_18  and  O5*_19
REMARK                            x       y       z     vdW  Elec       q    Type
REMARK                         _______ _______ _______ _____ _____    ______ ____
ROOT
ATOM      1  F   UNL     1      -4.834  21.382   9.381  0.00  0.00    +0.000 F 
ATOM      2  O   UNL     1      -3.599  16.446   7.477  0.00  0.00    +0.000 OA
ATOM      3  O   UNL     1      -3.823  20.976   6.771  0.00  0.00    +0.000 OA
ATOM      4  N   UNL     1      -4.159  17.830   9.319  0.00  0.00    +0.000 N 
ATOM      5  N   UNL     1      -3.646  18.721   7.205  0.00  0.00    +0.000 N 
ATOM      6  C   UNL     1      -3.788  17.546   7.983  0.00  0.00    +0.000 C 
ATOM      7  C   UNL     1      -4.318  19.127   9.651  0.00  0.00    +0.000 C 
ATOM      8  C   UNL     1      -4.211  20.248   9.021  0.00  0.00    +0.000 C 
ATOM      9  C   UNL     1      -3.876  20.053   7.574  0.00  0.00    +0.000 C 
ATOM     10  H   UNL     1      -3.421  18.566   6.233  0.00  0.00    +0.000 HD
ENDROOT
BRANCH   4  13
ATOM     11  O4* UNL     1      -3.314  16.276  10.969  0.00  0.00    +0.000 OA
ATOM     12  C3* UNL     1      -5.319  15.392  11.723  0.00  0.00    +0.000 A 
ATOM     13  C1* UNL     1      -4.371  16.875  10.273  0.00  0.00    +0.000 A 
ATOM     14  C2* UNL     1      -5.595  16.350  10.731  0.00  0.00    +0.000 A 
ATOM     15  C4* UNL     1      -3.883  15.362  11.864  0.00  0.00    +0.000 A 
BRANCH  12  16
ATOM     16  O3* UNL     1      -6.155  15.130  12.772  0.00  0.00    +0.000 OA
ATOM     17  H3* UNL     1      -5.759  14.513  13.412  0.00  0.00    +0.000 HD
ENDBRANCH  12  16
BRANCH  15  18
ATOM     18  C5* UNL     1      -3.133  14.717  12.867  0.00  0.00    +0.000 C 
BRANCH  18  19
ATOM     19  O5* UNL     1      -2.410  14.104  13.798  0.00  0.00    +0.000 OA
ATOM     20  H5* UNL     1      -2.962  13.489  14.311  0.00  0.00    +0.000 HD
ENDBRANCH  18  19
ENDBRANCH  15  18
ENDBRANCH   4  13
TORSDOF 4
ENDMDL
