MODEL 1
REMARK VINA RESULT:      -4.4      0.000      0.000
REMARK  Name = 3385_5Fluorouracil.pdbqt.pdb
REMARK  0 active torsions:
REMARK  status: ('A' for Active; 'I' for Inactive)
REMARK                            x       y       z     vdW  Elec       q    Type
REMARK                         _______ _______ _______ _____ _____    ______ ____
ROOT
ATOM      1  F   UNL     1     -22.273   6.447  18.334  0.00  0.00    +0.000 F 
ATOM      2  O   UNL     1     -22.725   9.230  18.063  0.00  0.00    +0.000 OA
ATOM      3  O   UNL     1     -18.975   9.611  15.404  0.00  0.00    +0.000 OA
ATOM      4  N   UNL     1     -20.814   9.423  16.795  0.00  0.00    +0.000 N 
ATOM      5  N   UNL     1     -19.450   7.588  16.398  0.00  0.00    +0.000 N 
ATOM      6  C   UNL     1     -21.708   8.716  17.611  0.00  0.00    +0.000 C 
ATOM      7  C   UNL     1     -19.679   8.930  16.136  0.00  0.00    +0.000 C 
ATOM      8  C   UNL     1     -21.331   7.285  17.871  0.00  0.00    +0.000 C 
ATOM      9  C   UNL     1     -20.282   6.923  17.213  0.00  0.00    +0.000 C 
ATOM     10  H   UNL     1     -21.048  10.387  16.609  0.00  0.00    +0.000 HD
ATOM     11  H   UNL     1     -18.656   7.134  15.965  0.00  0.00    +0.000 HD
ENDROOT
TORSDOF 0
ENDMDL
MODEL 2
REMARK VINA RESULT:      -3.7      9.362      9.645
REMARK  Name = 3385_5Fluorouracil.pdbqt.pdb
REMARK  0 active torsions:
REMARK  status: ('A' for Active; 'I' for Inactive)
REMARK                            x       y       z     vdW  Elec       q    Type
REMARK                         _______ _______ _______ _____ _____    ______ ____
ROOT
ATOM      1  F   UNL     1     -23.787  12.646   9.210  0.00  0.00    +0.000 F 
ATOM      2  O   UNL     1     -24.387  14.173  11.519  0.00  0.00    +0.000 OA
ATOM      3  O   UNL     1     -20.734  16.874  10.717  0.00  0.00    +0.000 OA
ATOM      4  N   UNL     1     -22.523  15.473  11.151  0.00  0.00    +0.000 N 
ATOM      5  N   UNL     1     -21.079  15.023   9.390  0.00  0.00    +0.000 N 
ATOM      6  C   UNL     1     -23.358  14.378  10.886  0.00  0.00    +0.000 C 
ATOM      7  C   UNL     1     -21.383  15.875  10.441  0.00  0.00    +0.000 C 
ATOM      8  C   UNL     1     -22.902  13.493   9.760  0.00  0.00    +0.000 C 
ATOM      9  C   UNL     1     -21.854  13.952   9.163  0.00  0.00    +0.000 C 
ATOM     10  H   UNL     1     -22.811  16.079  11.904  0.00  0.00    +0.000 HD
ATOM     11  H   UNL     1     -20.275  15.229   8.811  0.00  0.00    +0.000 HD
ENDROOT
TORSDOF 0
ENDMDL
MODEL 3
REMARK VINA RESULT:      -3.7      9.298      9.858
REMARK  Name = 3385_5Fluorouracil.pdbqt.pdb
REMARK  0 active torsions:
REMARK  status: ('A' for Active; 'I' for Inactive)
REMARK                            x       y       z     vdW  Elec       q    Type
REMARK                         _______ _______ _______ _____ _____    ______ ____
ROOT
ATOM      1  F   UNL     1     -25.745  14.813   9.607  0.00  0.00    +0.000 F 
ATOM      2  O   UNL     1     -23.895  13.917  11.556  0.00  0.00    +0.000 OA
ATOM      3  O   UNL     1     -21.879  11.189   8.430  0.00  0.00    +0.000 OA
ATOM      4  N   UNL     1     -22.939  12.507  10.009  0.00  0.00    +0.000 N 
ATOM      5  N   UNL     1     -23.795  12.332   7.858  0.00  0.00    +0.000 N 
ATOM      6  C   UNL     1     -23.919  13.411  10.440  0.00  0.00    +0.000 C 
ATOM      7  C   UNL     1     -22.794  11.940   8.735  0.00  0.00    +0.000 C 
ATOM      8  C   UNL     1     -24.983  13.722   9.426  0.00  0.00    +0.000 C 
ATOM      9  C   UNL     1     -24.756  13.164   8.284  0.00  0.00    +0.000 C 
ATOM     10  H   UNL     1     -22.215  12.283  10.676  0.00  0.00    +0.000 HD
ATOM     11  H   UNL     1     -23.778  11.982   6.909  0.00  0.00    +0.000 HD
ENDROOT
TORSDOF 0
ENDMDL
MODEL 4
REMARK VINA RESULT:      -3.6      9.470     10.374
REMARK  Name = 3385_5Fluorouracil.pdbqt.pdb
REMARK  0 active torsions:
REMARK  status: ('A' for Active; 'I' for Inactive)
REMARK                            x       y       z     vdW  Elec       q    Type
REMARK                         _______ _______ _______ _____ _____    ______ ____
ROOT
ATOM      1  F   UNL     1     -22.959  12.581   6.278  0.00  0.00    +0.000 F 
ATOM      2  O   UNL     1     -21.914  11.022   8.399  0.00  0.00    +0.000 OA
ATOM      3  O   UNL     1     -23.985  13.767  11.474  0.00  0.00    +0.000 OA
ATOM      4  N   UNL     1     -22.893  12.437   9.929  0.00  0.00    +0.000 N 
ATOM      5  N   UNL     1     -24.061  14.321   9.240  0.00  0.00    +0.000 N 
ATOM      6  C   UNL     1     -22.525  12.059   8.629  0.00  0.00    +0.000 C 
ATOM      7  C   UNL     1     -23.674  13.535  10.315  0.00  0.00    +0.000 C 
ATOM      8  C   UNL     1     -22.951  13.013   7.549  0.00  0.00    +0.000 C 
ATOM      9  C   UNL     1     -23.673  13.982   8.002  0.00  0.00    +0.000 C 
ATOM     10  H   UNL     1     -22.615  11.811  10.670  0.00  0.00    +0.000 HD
ATOM     11  H   UNL     1     -24.633  15.137   9.412  0.00  0.00    +0.000 HD
ENDROOT
TORSDOF 0
ENDMDL
MODEL 5
REMARK VINA RESULT:      -3.4     13.398     13.448
REMARK  Name = 3385_5Fluorouracil.pdbqt.pdb
REMARK  0 active torsions:
REMARK  status: ('A' for Active; 'I' for Inactive)
REMARK                            x       y       z     vdW  Elec       q    Type
REMARK                         _______ _______ _______ _____ _____    ______ ____
ROOT
ATOM      1  F   UNL     1     -16.175  18.660  24.634  0.00  0.00    +0.000 F 
ATOM      2  O   UNL     1     -17.318  20.105  22.483  0.00  0.00    +0.000 OA
ATOM      3  O   UNL     1     -13.591  19.263  19.899  0.00  0.00    +0.000 OA
ATOM      4  N   UNL     1     -15.426  19.740  21.224  0.00  0.00    +0.000 N 
ATOM      5  N   UNL     1     -13.599  18.612  22.108  0.00  0.00    +0.000 N 
ATOM      6  C   UNL     1     -16.168  19.688  22.413  0.00  0.00    +0.000 C 
ATOM      7  C   UNL     1     -14.150  19.210  20.984  0.00  0.00    +0.000 C 
ATOM      8  C   UNL     1     -15.451  19.068  23.579  0.00  0.00    +0.000 C 
ATOM      9  C   UNL     1     -14.292  18.601  23.256  0.00  0.00    +0.000 C 
ATOM     10  H   UNL     1     -15.888  20.154  20.429  0.00  0.00    +0.000 HD
ATOM     11  H   UNL     1     -12.681  18.194  22.038  0.00  0.00    +0.000 HD
ENDROOT
TORSDOF 0
ENDMDL
MODEL 6
REMARK VINA RESULT:      -3.4     19.290     19.966
REMARK  Name = 3385_5Fluorouracil.pdbqt.pdb
REMARK  0 active torsions:
REMARK  status: ('A' for Active; 'I' for Inactive)
REMARK                            x       y       z     vdW  Elec       q    Type
REMARK                         _______ _______ _______ _____ _____    ______ ____
ROOT
ATOM      1  F   UNL     1      -6.861   1.090   2.912  0.00  0.00    +0.000 F 
ATOM      2  O   UNL     1      -8.908   0.910   4.861  0.00  0.00    +0.000 OA
ATOM      3  O   UNL     1     -12.113   1.000   1.545  0.00  0.00    +0.000 OA
ATOM      4  N   UNL     1     -10.503   1.026   3.206  0.00  0.00    +0.000 N 
ATOM      5  N   UNL     1      -9.901   1.303   0.981  0.00  0.00    +0.000 N 
ATOM      6  C   UNL     1      -9.185   1.084   3.680  0.00  0.00    +0.000 C 
ATOM      7  C   UNL     1     -10.941   1.104   1.876  0.00  0.00    +0.000 C 
ATOM      8  C   UNL     1      -8.146   1.358   2.630  0.00  0.00    +0.000 C 
ATOM      9  C   UNL     1      -8.645   1.402   1.440  0.00  0.00    +0.000 C 
ATOM     10  H   UNL     1     -11.217   0.844   3.896  0.00  0.00    +0.000 HD
ATOM     11  H   UNL     1     -10.112   1.369  -0.007  0.00  0.00    +0.000 HD
ENDROOT
TORSDOF 0
ENDMDL
MODEL 7
REMARK VINA RESULT:      -3.4     18.884     20.046
REMARK  Name = 3385_5Fluorouracil.pdbqt.pdb
REMARK  0 active torsions:
REMARK  status: ('A' for Active; 'I' for Inactive)
REMARK                            x       y       z     vdW  Elec       q    Type
REMARK                         _______ _______ _______ _____ _____    ______ ____
ROOT
ATOM      1  F   UNL     1      -9.550   1.255  -0.468  0.00  0.00    +0.000 F 
ATOM      2  O   UNL     1      -7.857   1.772   1.743  0.00  0.00    +0.000 OA
ATOM      3  O   UNL     1     -11.241   0.589   4.647  0.00  0.00    +0.000 OA
ATOM      4  N   UNL     1      -9.572   1.247   3.186  0.00  0.00    +0.000 N 
ATOM      5  N   UNL     1     -11.682   0.698   2.389  0.00  0.00    +0.000 N 
ATOM      6  C   UNL     1      -9.039   1.496   1.914  0.00  0.00    +0.000 C 
ATOM      7  C   UNL     1     -10.870   0.826   3.506  0.00  0.00    +0.000 C 
ATOM      8  C   UNL     1     -10.022   1.382   0.783  0.00  0.00    +0.000 C 
ATOM      9  C   UNL     1     -11.183   0.978   1.176  0.00  0.00    +0.000 C 
ATOM     10  H   UNL     1      -8.928   1.320   3.960  0.00  0.00    +0.000 HD
ATOM     11  H   UNL     1     -12.639   0.394   2.512  0.00  0.00    +0.000 HD
ENDROOT
TORSDOF 0
ENDMDL
MODEL 8
REMARK VINA RESULT:      -3.3      2.719      3.138
REMARK  Name = 3385_5Fluorouracil.pdbqt.pdb
REMARK  0 active torsions:
REMARK  status: ('A' for Active; 'I' for Inactive)
REMARK                            x       y       z     vdW  Elec       q    Type
REMARK                         _______ _______ _______ _____ _____    ______ ____
ROOT
ATOM      1  F   UNL     1     -22.944   7.878  15.846  0.00  0.00    +0.000 F 
ATOM      2  O   UNL     1     -20.661   9.073  17.021  0.00  0.00    +0.000 OA
ATOM      3  O   UNL     1     -19.373   4.990  18.740  0.00  0.00    +0.000 OA
ATOM      4  N   UNL     1     -20.062   7.046  17.933  0.00  0.00    +0.000 N 
ATOM      5  N   UNL     1     -21.400   5.169  17.661  0.00  0.00    +0.000 N 
ATOM      6  C   UNL     1     -20.936   7.900  17.245  0.00  0.00    +0.000 C 
ATOM      7  C   UNL     1     -20.210   5.671  18.164  0.00  0.00    +0.000 C 
ATOM      8  C   UNL     1     -22.219   7.261  16.793  0.00  0.00    +0.000 C 
ATOM      9  C   UNL     1     -22.255   5.995  17.040  0.00  0.00    +0.000 C 
ATOM     10  H   UNL     1     -19.195   7.456  18.247  0.00  0.00    +0.000 HD
ATOM     11  H   UNL     1     -21.600   4.183  17.771  0.00  0.00    +0.000 HD
ENDROOT
TORSDOF 0
ENDMDL
MODEL 9
REMARK VINA RESULT:      -3.3     17.360     17.898
REMARK  Name = 3385_5Fluorouracil.pdbqt.pdb
REMARK  0 active torsions:
REMARK  status: ('A' for Active; 'I' for Inactive)
REMARK                            x       y       z     vdW  Elec       q    Type
REMARK                         _______ _______ _______ _____ _____    ______ ____
ROOT
ATOM      1  F   UNL     1     -15.276   7.088  -1.291  0.00  0.00    +0.000 F 
ATOM      2  O   UNL     1     -17.716   6.315  -0.078  0.00  0.00    +0.000 OA
ATOM      3  O   UNL     1     -18.795  10.742   0.639  0.00  0.00    +0.000 OA
ATOM      4  N   UNL     1     -18.215   8.523   0.338  0.00  0.00    +0.000 N 
ATOM      5  N   UNL     1     -16.722  10.212  -0.213  0.00  0.00    +0.000 N 
ATOM      6  C   UNL     1     -17.367   7.489  -0.083  0.00  0.00    +0.000 C 
ATOM      7  C   UNL     1     -17.978   9.904   0.287  0.00  0.00    +0.000 C 
ATOM      8  C   UNL     1     -16.012   7.937  -0.555  0.00  0.00    +0.000 C 
ATOM      9  C   UNL     1     -15.895   9.222  -0.577  0.00  0.00    +0.000 C 
ATOM     10  H   UNL     1     -19.130   8.244   0.661  0.00  0.00    +0.000 HD
ATOM     11  H   UNL     1     -16.454  11.185  -0.296  0.00  0.00    +0.000 HD
ENDROOT
TORSDOF 0
ENDMDL
