MODEL 1
REMARK VINA RESULT:      -7.4      0.000      0.000
REMARK  Name = 342374_SipholenolA.pdbqt.pdb
REMARK  5 active torsions:
REMARK  status: ('A' for Active; 'I' for Inactive)
REMARK    1  A    between atoms: C_3  and  C_20
REMARK    2  A    between atoms: C_4  and  O_16
REMARK    3  A    between atoms: C_13  and  O_18
REMARK    4  A    between atoms: C_21  and  C_25
REMARK    5  A    between atoms: C_26  and  O_36
REMARK                            x       y       z     vdW  Elec       q    Type
REMARK                         _______ _______ _______ _____ _____    ______ ____
ROOT
ATOM      1  O   UNL     1     -16.819   5.148  -2.499  0.00  0.00    +0.000 OA
ATOM      2  C   UNL     1     -16.469   7.736  -2.537  0.00  0.00    +0.000 C 
ATOM      3  C   UNL     1     -15.980   8.928  -1.710  0.00  0.00    +0.000 C 
ATOM      4  C   UNL     1     -16.362   9.038  -0.244  0.00  0.00    +0.000 C 
ATOM      5  C   UNL     1     -16.583   6.333  -1.793  0.00  0.00    +0.000 C 
ATOM      6  C   UNL     1     -15.500   7.421  -3.599  0.00  0.00    +0.000 C 
ATOM      7  C   UNL     1     -16.758   7.729   0.237  0.00  0.00    +0.000 C 
ATOM      8  C   UNL     1     -16.879   6.394  -0.417  0.00  0.00    +0.000 C 
ATOM      9  C   UNL     1     -17.858   8.064  -3.148  0.00  0.00    +0.000 C 
ATOM     10  C   UNL     1     -14.841   6.249  -4.284  0.00  0.00    +0.000 C 
ATOM     11  C   UNL     1     -15.682   4.301  -2.869  0.00  0.00    +0.000 C 
ATOM     12  C   UNL     1     -15.204   9.614   0.585  0.00  0.00    +0.000 C 
ATOM     13  C   UNL     1     -14.903   4.851  -4.102  0.00  0.00    +0.000 C 
ATOM     14  C   UNL     1     -14.678   4.125  -1.692  0.00  0.00    +0.000 C 
ATOM     15  C   UNL     1     -16.258   2.912  -3.273  0.00  0.00    +0.000 C 
ENDROOT
BRANCH   4  16
ATOM     16  O   UNL     1     -17.425   9.945  -0.094  0.00  0.00    +0.000 OA
ATOM     17  H   UNL     1     -18.011   9.453   0.509  0.00  0.00    +0.000 HD
ENDBRANCH   4  16
BRANCH  13  18
ATOM     18  O   UNL     1     -14.282   4.021  -5.031  0.00  0.00    +0.000 OA
ATOM     19  H   UNL     1     -14.831   3.912  -5.836  0.00  0.00    +0.000 HD
ENDBRANCH  13  18
BRANCH   3  20
ATOM     20  C   UNL     1     -15.367  10.051  -2.372  0.00  0.00    +0.000 C 
ATOM     21  C   UNL     1     -14.729  11.254  -3.073  0.00  0.00    +0.000 C 
BRANCH  21  25
ATOM     22  C   UNL     1     -12.647  12.112  -5.874  0.00  0.00    +0.000 C 
ATOM     23  C   UNL     1     -14.028  12.485  -5.269  0.00  0.00    +0.000 C 
ATOM     24  C   UNL     1     -11.346  12.786  -5.547  0.00  0.00    +0.000 C 
ATOM     25  C   UNL     1     -14.139  12.386  -3.729  0.00  0.00    +0.000 C 
ATOM     26  C   UNL     1     -10.252  12.496  -6.568  0.00  0.00    +0.000 C 
ATOM     27  C   UNL     1     -12.412  11.388  -7.081  0.00  0.00    +0.000 C 
ATOM     28  C   UNL     1     -10.984  11.632  -7.487  0.00  0.00    +0.000 C 
ATOM     29  C   UNL     1     -11.294  13.538  -4.359  0.00  0.00    +0.000 C 
ATOM     30  C   UNL     1     -13.488  13.394  -2.892  0.00  0.00    +0.000 C 
ATOM     31  C   UNL     1     -15.103  11.526  -5.907  0.00  0.00    +0.000 C 
ATOM     32  C   UNL     1     -14.393  13.934  -5.740  0.00  0.00    +0.000 C 
ATOM     33  C   UNL     1     -12.299  13.753  -3.260  0.00  0.00    +0.000 C 
ATOM     34  C   UNL     1      -9.014  11.876  -5.934  0.00  0.00    +0.000 C 
ATOM     35  C   UNL     1     -13.882  13.684  -1.468  0.00  0.00    +0.000 C 
BRANCH  26  36
ATOM     36  O   UNL     1      -9.848  13.682  -7.201  0.00  0.00    +0.000 OA
ATOM     37  H   UNL     1     -10.624  13.866  -7.760  0.00  0.00    +0.000 HD
ENDBRANCH  26  36
ENDBRANCH  21  25
ENDBRANCH   3  20
TORSDOF 5
ENDMDL
MODEL 2
REMARK VINA RESULT:      -6.1     19.048     23.089
REMARK  Name = 342374_SipholenolA.pdbqt.pdb
REMARK  5 active torsions:
REMARK  status: ('A' for Active; 'I' for Inactive)
REMARK    1  A    between atoms: C_3  and  C_20
REMARK    2  A    between atoms: C_4  and  O_16
REMARK    3  A    between atoms: C_13  and  O_18
REMARK    4  A    between atoms: C_21  and  C_25
REMARK    5  A    between atoms: C_26  and  O_36
REMARK                            x       y       z     vdW  Elec       q    Type
REMARK                         _______ _______ _______ _____ _____    ______ ____
ROOT
ATOM      1  O   UNL     1     -24.618  22.714  18.176  0.00  0.00    +0.000 OA
ATOM      2  C   UNL     1     -24.017  20.805  16.497  0.00  0.00    +0.000 C 
ATOM      3  C   UNL     1     -24.612  19.781  15.528  0.00  0.00    +0.000 C 
ATOM      4  C   UNL     1     -25.846  18.991  15.927  0.00  0.00    +0.000 C 
ATOM      5  C   UNL     1     -25.036  21.618  17.411  0.00  0.00    +0.000 C 
ATOM      6  C   UNL     1     -23.365  21.894  15.752  0.00  0.00    +0.000 C 
ATOM      7  C   UNL     1     -26.521  19.689  17.003  0.00  0.00    +0.000 C 
ATOM      8  C   UNL     1     -26.221  20.940  17.757  0.00  0.00    +0.000 C 
ATOM      9  C   UNL     1     -22.997  20.101  17.433  0.00  0.00    +0.000 C 
ATOM     10  C   UNL     1     -23.201  23.394  15.759  0.00  0.00    +0.000 C 
ATOM     11  C   UNL     1     -24.790  24.066  17.638  0.00  0.00    +0.000 C 
ATOM     12  C   UNL     1     -26.778  18.779  14.724  0.00  0.00    +0.000 C 
ATOM     13  C   UNL     1     -23.710  24.428  16.575  0.00  0.00    +0.000 C 
ATOM     14  C   UNL     1     -26.196  24.264  16.998  0.00  0.00    +0.000 C 
ATOM     15  C   UNL     1     -24.615  25.057  18.826  0.00  0.00    +0.000 C 
ENDROOT
BRANCH   4  16
ATOM     16  O   UNL     1     -25.473  17.704  16.351  0.00  0.00    +0.000 OA
ATOM     17  H   UNL     1     -24.502  17.768  16.322  0.00  0.00    +0.000 HD
ENDBRANCH   4  16
BRANCH  13  18
ATOM     18  O   UNL     1     -23.221  25.720  16.408  0.00  0.00    +0.000 OA
ATOM     19  H   UNL     1     -23.470  26.296  17.162  0.00  0.00    +0.000 HD
ENDBRANCH  13  18
BRANCH   3  20
ATOM     20  C   UNL     1     -23.873  19.400  14.351  0.00  0.00    +0.000 C 
ATOM     21  C   UNL     1     -23.101  18.985  13.095  0.00  0.00    +0.000 C 
BRANCH  21  25
ATOM     22  C   UNL     1     -23.452  16.998  10.121  0.00  0.00    +0.000 C 
ATOM     23  C   UNL     1     -23.072  18.445  10.538  0.00  0.00    +0.000 C 
ATOM     24  C   UNL     1     -22.488  15.856   9.974  0.00  0.00    +0.000 C 
ATOM     25  C   UNL     1     -22.384  18.591  11.917  0.00  0.00    +0.000 C 
ATOM     26  C   UNL     1     -23.063  14.692   9.176  0.00  0.00    +0.000 C 
ATOM     27  C   UNL     1     -24.638  16.590   9.441  0.00  0.00    +0.000 C 
ATOM     28  C   UNL     1     -24.389  15.218   8.877  0.00  0.00    +0.000 C 
ATOM     29  C   UNL     1     -21.237  15.986  10.604  0.00  0.00    +0.000 C 
ATOM     30  C   UNL     1     -20.992  18.168  12.077  0.00  0.00    +0.000 C 
ATOM     31  C   UNL     1     -24.394  19.301  10.551  0.00  0.00    +0.000 C 
ATOM     32  C   UNL     1     -22.161  19.053   9.418  0.00  0.00    +0.000 C 
ATOM     33  C   UNL     1     -20.669  17.053  11.502  0.00  0.00    +0.000 C 
ATOM     34  C   UNL     1     -23.039  13.384   9.956  0.00  0.00    +0.000 C 
ATOM     35  C   UNL     1     -20.086  18.660  13.175  0.00  0.00    +0.000 C 
BRANCH  26  36
ATOM     36  O   UNL     1     -22.321  14.491   8.001  0.00  0.00    +0.000 OA
ATOM     37  H   UNL     1     -21.418  14.435   8.361  0.00  0.00    +0.000 HD
ENDBRANCH  26  36
ENDBRANCH  21  25
ENDBRANCH   3  20
TORSDOF 5
ENDMDL
MODEL 3
REMARK VINA RESULT:      -6.0      3.123      5.362
REMARK  Name = 342374_SipholenolA.pdbqt.pdb
REMARK  5 active torsions:
REMARK  status: ('A' for Active; 'I' for Inactive)
REMARK    1  A    between atoms: C_3  and  C_20
REMARK    2  A    between atoms: C_4  and  O_16
REMARK    3  A    between atoms: C_13  and  O_18
REMARK    4  A    between atoms: C_21  and  C_25
REMARK    5  A    between atoms: C_26  and  O_36
REMARK                            x       y       z     vdW  Elec       q    Type
REMARK                         _______ _______ _______ _____ _____    ______ ____
ROOT
ATOM      1  O   UNL     1     -11.549   3.532  -6.923  0.00  0.00    +0.000 OA
ATOM      2  C   UNL     1     -13.338   4.844  -5.544  0.00  0.00    +0.000 C 
ATOM      3  C   UNL     1     -13.910   5.044  -4.138  0.00  0.00    +0.000 C 
ATOM      4  C   UNL     1     -14.157   3.840  -3.244  0.00  0.00    +0.000 C 
ATOM      5  C   UNL     1     -12.282   3.668  -5.738  0.00  0.00    +0.000 C 
ATOM      6  C   UNL     1     -12.541   6.015  -5.942  0.00  0.00    +0.000 C 
ATOM      7  C   UNL     1     -13.365   2.727  -3.729  0.00  0.00    +0.000 C 
ATOM      8  C   UNL     1     -12.441   2.557  -4.888  0.00  0.00    +0.000 C 
ATOM      9  C   UNL     1     -14.499   4.609  -6.548  0.00  0.00    +0.000 C 
ATOM     10  C   UNL     1     -11.255   6.385  -6.638  0.00  0.00    +0.000 C 
ATOM     11  C   UNL     1     -10.197   4.093  -6.993  0.00  0.00    +0.000 C 
ATOM     12  C   UNL     1     -13.830   4.166  -1.779  0.00  0.00    +0.000 C 
ATOM     13  C   UNL     1     -10.200   5.637  -7.202  0.00  0.00    +0.000 C 
ATOM     14  C   UNL     1      -9.365   3.770  -5.717  0.00  0.00    +0.000 C 
ATOM     15  C   UNL     1      -9.504   3.462  -8.237  0.00  0.00    +0.000 C 
ENDROOT
BRANCH   4  16
ATOM     16  O   UNL     1     -15.521   3.502  -3.265  0.00  0.00    +0.000 OA
ATOM     17  H   UNL     1     -15.532   2.722  -2.682  0.00  0.00    +0.000 HD
ENDBRANCH   4  16
BRANCH  13  18
ATOM     18  O   UNL     1      -9.216   6.300  -7.929  0.00  0.00    +0.000 OA
ATOM     19  H   UNL     1      -8.726   6.937  -7.369  0.00  0.00    +0.000 HD
ENDBRANCH  13  18
BRANCH   3  20
ATOM     20  C   UNL     1     -14.431   6.331  -3.757  0.00  0.00    +0.000 C 
ATOM     21  C   UNL     1     -14.985   7.705  -3.368  0.00  0.00    +0.000 C 
BRANCH  21  25
ATOM     22  C   UNL     1     -14.987  11.133  -4.449  0.00  0.00    +0.000 C 
ATOM     23  C   UNL     1     -15.993  10.012  -4.071  0.00  0.00    +0.000 C 
ATOM     24  C   UNL     1     -14.394  12.126  -3.492  0.00  0.00    +0.000 C 
ATOM     25  C   UNL     1     -15.504   8.995  -3.012  0.00  0.00    +0.000 C 
ATOM     26  C   UNL     1     -13.778  13.332  -4.191  0.00  0.00    +0.000 C 
ATOM     27  C   UNL     1     -14.758  11.671  -5.751  0.00  0.00    +0.000 C 
ATOM     28  C   UNL     1     -14.044  12.984  -5.581  0.00  0.00    +0.000 C 
ATOM     29  C   UNL     1     -14.446  11.808  -2.122  0.00  0.00    +0.000 C 
ATOM     30  C   UNL     1     -15.413   9.401  -1.609  0.00  0.00    +0.000 C 
ATOM     31  C   UNL     1     -16.348   9.225  -5.388  0.00  0.00    +0.000 C 
ATOM     32  C   UNL     1     -17.321  10.689  -3.589  0.00  0.00    +0.000 C 
ATOM     33  C   UNL     1     -14.927  10.582  -1.392  0.00  0.00    +0.000 C 
ATOM     34  C   UNL     1     -12.311  13.524  -3.835  0.00  0.00    +0.000 C 
ATOM     35  C   UNL     1     -15.407   8.435  -0.455  0.00  0.00    +0.000 C 
BRANCH  26  36
ATOM     36  O   UNL     1     -14.454  14.507  -3.825  0.00  0.00    +0.000 OA
ATOM     37  H   UNL     1     -13.736  15.161  -3.890  0.00  0.00    +0.000 HD
ENDBRANCH  26  36
ENDBRANCH  21  25
ENDBRANCH   3  20
TORSDOF 5
ENDMDL
MODEL 4
REMARK VINA RESULT:      -4.9     19.302     21.859
REMARK  Name = 342374_SipholenolA.pdbqt.pdb
REMARK  5 active torsions:
REMARK  status: ('A' for Active; 'I' for Inactive)
REMARK    1  A    between atoms: C_3  and  C_20
REMARK    2  A    between atoms: C_4  and  O_16
REMARK    3  A    between atoms: C_13  and  O_18
REMARK    4  A    between atoms: C_21  and  C_25
REMARK    5  A    between atoms: C_26  and  O_36
REMARK                            x       y       z     vdW  Elec       q    Type
REMARK                         _______ _______ _______ _____ _____    ______ ____
ROOT
ATOM      1  O   UNL     1      -4.810  10.105  18.382  0.00  0.00    +0.000 OA
ATOM      2  C   UNL     1      -5.735  12.100  16.973  0.00  0.00    +0.000 C 
ATOM      3  C   UNL     1      -6.184  13.562  17.049  0.00  0.00    +0.000 C 
ATOM      4  C   UNL     1      -7.048  14.028  18.209  0.00  0.00    +0.000 C 
ATOM      5  C   UNL     1      -5.420  11.364  18.350  0.00  0.00    +0.000 C 
ATOM      6  C   UNL     1      -4.437  12.000  16.288  0.00  0.00    +0.000 C 
ATOM      7  C   UNL     1      -6.915  13.083  19.300  0.00  0.00    +0.000 C 
ATOM      8  C   UNL     1      -6.159  11.808  19.463  0.00  0.00    +0.000 C 
ATOM      9  C   UNL     1      -6.810  11.265  16.224  0.00  0.00    +0.000 C 
ATOM     10  C   UNL     1      -3.113  11.279  16.369  0.00  0.00    +0.000 C 
ATOM     11  C   UNL     1      -3.359  10.020  18.573  0.00  0.00    +0.000 C 
ATOM     12  C   UNL     1      -6.663  15.449  18.646  0.00  0.00    +0.000 C 
ATOM     13  C   UNL     1      -2.565  10.343  17.272  0.00  0.00    +0.000 C 
ATOM     14  C   UNL     1      -2.863  10.972  19.701  0.00  0.00    +0.000 C 
ATOM     15  C   UNL     1      -3.034   8.547  18.956  0.00  0.00    +0.000 C 
ENDROOT
BRANCH   4  16
ATOM     16  O   UNL     1      -8.391  14.104  17.803  0.00  0.00    +0.000 OA
ATOM     17  H   UNL     1      -8.426  15.003  17.430  0.00  0.00    +0.000 HD
ENDBRANCH   4  16
BRANCH  13  18
ATOM     18  O   UNL     1      -1.351   9.738  16.961  0.00  0.00    +0.000 OA
ATOM     19  H   UNL     1      -1.276   8.854  17.378  0.00  0.00    +0.000 HD
ENDBRANCH  13  18
BRANCH   3  20
ATOM     20  C   UNL     1      -5.990  14.426  15.913  0.00  0.00    +0.000 C 
ATOM     21  C   UNL     1      -5.770  15.338  14.703  0.00  0.00    +0.000 C 
BRANCH  21  25
ATOM     22  C   UNL     1      -3.467  15.895  12.000  0.00  0.00    +0.000 C 
ATOM     23  C   UNL     1      -4.984  15.657  12.230  0.00  0.00    +0.000 C 
ATOM     24  C   UNL     1      -2.793  17.236  11.974  0.00  0.00    +0.000 C 
ATOM     25  C   UNL     1      -5.555  16.188  13.567  0.00  0.00    +0.000 C 
ATOM     26  C   UNL     1      -1.410  17.195  11.336  0.00  0.00    +0.000 C 
ATOM     27  C   UNL     1      -2.543  14.989  11.398  0.00  0.00    +0.000 C 
ATOM     28  C   UNL     1      -1.326  15.778  11.000  0.00  0.00    +0.000 C 
ATOM     29  C   UNL     1      -3.483  18.313  12.559  0.00  0.00    +0.000 C 
ATOM     30  C   UNL     1      -5.742  17.628  13.751  0.00  0.00    +0.000 C 
ATOM     31  C   UNL     1      -5.240  14.104  12.164  0.00  0.00    +0.000 C 
ATOM     32  C   UNL     1      -5.766  16.286  11.027  0.00  0.00    +0.000 C 
ATOM     33  C   UNL     1      -4.787  18.384  13.309  0.00  0.00    +0.000 C 
ATOM     34  C   UNL     1      -0.323  17.711  12.268  0.00  0.00    +0.000 C 
ATOM     35  C   UNL     1      -6.680  18.230  14.762  0.00  0.00    +0.000 C 
BRANCH  26  36
ATOM     36  O   UNL     1      -1.382  17.992  10.180  0.00  0.00    +0.000 OA
ATOM     37  H   UNL     1      -1.979  18.715  10.440  0.00  0.00    +0.000 HD
ENDBRANCH  26  36
ENDBRANCH  21  25
ENDBRANCH   3  20
TORSDOF 5
ENDMDL
MODEL 5
REMARK VINA RESULT:      -4.7     11.095     15.518
REMARK  Name = 342374_SipholenolA.pdbqt.pdb
REMARK  5 active torsions:
REMARK  status: ('A' for Active; 'I' for Inactive)
REMARK    1  A    between atoms: C_3  and  C_20
REMARK    2  A    between atoms: C_4  and  O_16
REMARK    3  A    between atoms: C_13  and  O_18
REMARK    4  A    between atoms: C_21  and  C_25
REMARK    5  A    between atoms: C_26  and  O_36
REMARK                            x       y       z     vdW  Elec       q    Type
REMARK                         _______ _______ _______ _____ _____    ______ ____
ROOT
ATOM      1  O   UNL     1      -4.828  21.096   6.532  0.00  0.00    +0.000 OA
ATOM      2  C   UNL     1      -4.208  19.546   4.524  0.00  0.00    +0.000 C 
ATOM      3  C   UNL     1      -4.007  18.087   4.107  0.00  0.00    +0.000 C 
ATOM      4  C   UNL     1      -3.259  17.135   5.025  0.00  0.00    +0.000 C 
ATOM      5  C   UNL     1      -4.431  19.835   6.074  0.00  0.00    +0.000 C 
ATOM      6  C   UNL     1      -5.456  20.073   3.950  0.00  0.00    +0.000 C 
ATOM      7  C   UNL     1      -3.261  17.681   6.367  0.00  0.00    +0.000 C 
ATOM      8  C   UNL     1      -3.801  18.939   6.959  0.00  0.00    +0.000 C 
ATOM      9  C   UNL     1      -2.994  20.392   4.053  0.00  0.00    +0.000 C 
ATOM     10  C   UNL     1      -6.645  20.933   4.301  0.00  0.00    +0.000 C 
ATOM     11  C   UNL     1      -6.248  21.349   6.786  0.00  0.00    +0.000 C 
ATOM     12  C   UNL     1      -3.882  15.731   4.988  0.00  0.00    +0.000 C 
ATOM     13  C   UNL     1      -7.054  21.601   5.476  0.00  0.00    +0.000 C 
ATOM     14  C   UNL     1      -6.920  20.176   7.558  0.00  0.00    +0.000 C 
ATOM     15  C   UNL     1      -6.337  22.650   7.636  0.00  0.00    +0.000 C 
ENDROOT
BRANCH   4  16
ATOM     16  O   UNL     1      -1.937  16.977   4.574  0.00  0.00    +0.000 OA
ATOM     17  H   UNL     1      -1.537  17.817   4.860  0.00  0.00    +0.000 HD
ENDBRANCH   4  16
BRANCH  13  18
ATOM     18  O   UNL     1      -8.144  22.463   5.417  0.00  0.00    +0.000 OA
ATOM     19  H   UNL     1      -7.858  23.396   5.328  0.00  0.00    +0.000 HD
ENDBRANCH  13  18
BRANCH   3  20
ATOM     20  C   UNL     1      -4.313  17.682   2.758  0.00  0.00    +0.000 C 
ATOM     21  C   UNL     1      -4.635  17.236   1.330  0.00  0.00    +0.000 C 
BRANCH  21  25
ATOM     22  C   UNL     1      -4.471  14.349  -0.806  0.00  0.00    +0.000 C 
ATOM     23  C   UNL     1      -5.503  15.404  -0.321  0.00  0.00    +0.000 C 
ATOM     24  C   UNL     1      -3.605  14.480  -2.026  0.00  0.00    +0.000 C 
ATOM     25  C   UNL     1      -4.935  16.809  -0.007  0.00  0.00    +0.000 C 
ATOM     26  C   UNL     1      -3.005  13.153  -2.476  0.00  0.00    +0.000 C 
ATOM     27  C   UNL     1      -4.435  12.967  -0.457  0.00  0.00    +0.000 C 
ATOM     28  C   UNL     1      -3.565  12.265  -1.463  0.00  0.00    +0.000 C 
ATOM     29  C   UNL     1      -3.432  15.773  -2.554  0.00  0.00    +0.000 C 
ATOM     30  C   UNL     1      -4.538  17.689  -1.107  0.00  0.00    +0.000 C 
ATOM     31  C   UNL     1      -6.182  14.841   0.984  0.00  0.00    +0.000 C 
ATOM     32  C   UNL     1      -6.635  15.512  -1.398  0.00  0.00    +0.000 C 
ATOM     33  C   UNL     1      -3.895  17.124  -2.080  0.00  0.00    +0.000 C 
ATOM     34  C   UNL     1      -1.485  13.194  -2.540  0.00  0.00    +0.000 C 
ATOM     35  C   UNL     1      -4.419  19.184  -0.984  0.00  0.00    +0.000 C 
BRANCH  26  36
ATOM     36  O   UNL     1      -3.469  12.817  -3.757  0.00  0.00    +0.000 OA
ATOM     37  H   UNL     1      -3.738  11.891  -3.619  0.00  0.00    +0.000 HD
ENDBRANCH  26  36
ENDBRANCH  21  25
ENDBRANCH   3  20
TORSDOF 5
ENDMDL
MODEL 6
REMARK VINA RESULT:      -4.4     15.051     17.658
REMARK  Name = 342374_SipholenolA.pdbqt.pdb
REMARK  5 active torsions:
REMARK  status: ('A' for Active; 'I' for Inactive)
REMARK    1  A    between atoms: C_3  and  C_20
REMARK    2  A    between atoms: C_4  and  O_16
REMARK    3  A    between atoms: C_13  and  O_18
REMARK    4  A    between atoms: C_21  and  C_25
REMARK    5  A    between atoms: C_26  and  O_36
REMARK                            x       y       z     vdW  Elec       q    Type
REMARK                         _______ _______ _______ _____ _____    ______ ____
ROOT
ATOM      1  O   UNL     1      -2.943  -4.431   6.794  0.00  0.00    +0.000 OA
ATOM      2  C   UNL     1      -2.754  -2.903   4.684  0.00  0.00    +0.000 C 
ATOM      3  C   UNL     1      -3.522  -1.913   3.804  0.00  0.00    +0.000 C 
ATOM      4  C   UNL     1      -4.963  -2.202   3.421  0.00  0.00    +0.000 C 
ATOM      5  C   UNL     1      -3.581  -3.667   5.810  0.00  0.00    +0.000 C 
ATOM      6  C   UNL     1      -1.750  -2.195   5.493  0.00  0.00    +0.000 C 
ATOM      7  C   UNL     1      -5.510  -3.170   4.351  0.00  0.00    +0.000 C 
ATOM      8  C   UNL     1      -4.938  -3.903   5.517  0.00  0.00    +0.000 C 
ATOM      9  C   UNL     1      -2.073  -3.973   3.787  0.00  0.00    +0.000 C 
ATOM     10  C   UNL     1      -1.166  -2.163   6.884  0.00  0.00    +0.000 C 
ATOM     11  C   UNL     1      -2.669  -3.825   8.100  0.00  0.00    +0.000 C 
ATOM     12  C   UNL     1      -5.796  -0.912   3.397  0.00  0.00    +0.000 C 
ATOM     13  C   UNL     1      -1.433  -2.876   8.072  0.00  0.00    +0.000 C 
ATOM     14  C   UNL     1      -3.891  -3.026   8.640  0.00  0.00    +0.000 C 
ATOM     15  C   UNL     1      -2.333  -4.987   9.081  0.00  0.00    +0.000 C 
ENDROOT
BRANCH   4  16
ATOM     16  O   UNL     1      -5.016  -2.714   2.113  0.00  0.00    +0.000 OA
ATOM     17  H   UNL     1      -5.466  -1.990   1.642  0.00  0.00    +0.000 HD
ENDBRANCH   4  16
BRANCH  13  18
ATOM     18  O   UNL     1      -0.582  -2.716   9.161  0.00  0.00    +0.000 OA
ATOM     19  H   UNL     1      -0.420  -3.569   9.616  0.00  0.00    +0.000 HD
ENDBRANCH  13  18
BRANCH   3  20
ATOM     20  C   UNL     1      -2.813  -0.842   3.152  0.00  0.00    +0.000 C 
ATOM     21  C   UNL     1      -2.073   0.308   2.462  0.00  0.00    +0.000 C 
BRANCH  21  25
ATOM     22  C   UNL     1      -0.783   3.601   3.103  0.00  0.00    +0.000 C 
ATOM     23  C   UNL     1      -0.308   2.235   2.538  0.00  0.00    +0.000 C 
ATOM     24  C   UNL     1      -1.383   4.713   2.292  0.00  0.00    +0.000 C 
ATOM     25  C   UNL     1      -1.386   1.391   1.817  0.00  0.00    +0.000 C 
ATOM     26  C   UNL     1      -1.373   6.053   3.020  0.00  0.00    +0.000 C 
ATOM     27  C   UNL     1      -0.394   4.195   4.340  0.00  0.00    +0.000 C 
ATOM     28  C   UNL     1      -0.744   5.656   4.274  0.00  0.00    +0.000 C 
ATOM     29  C   UNL     1      -1.897   4.380   1.026  0.00  0.00    +0.000 C 
ATOM     30  C   UNL     1      -1.847   1.792   0.487  0.00  0.00    +0.000 C 
ATOM     31  C   UNL     1       0.258   1.392   3.742  0.00  0.00    +0.000 C 
ATOM     32  C   UNL     1       0.899   2.497   1.575  0.00  0.00    +0.000 C 
ATOM     33  C   UNL     1      -2.044   3.061   0.316  0.00  0.00    +0.000 C 
ATOM     34  C   UNL     1      -2.766   6.655   3.149  0.00  0.00    +0.000 C 
ATOM     35  C   UNL     1      -2.510   0.857  -0.488  0.00  0.00    +0.000 C 
BRANCH  26  36
ATOM     36  O   UNL     1      -0.580   6.980   2.326  0.00  0.00    +0.000 OA
ATOM     37  H   UNL     1      -1.238   7.375   1.728  0.00  0.00    +0.000 HD
ENDBRANCH  26  36
ENDBRANCH  21  25
ENDBRANCH   3  20
TORSDOF 5
ENDMDL
MODEL 7
REMARK VINA RESULT:      -4.4     20.701     23.563
REMARK  Name = 342374_SipholenolA.pdbqt.pdb
REMARK  5 active torsions:
REMARK  status: ('A' for Active; 'I' for Inactive)
REMARK    1  A    between atoms: C_3  and  C_20
REMARK    2  A    between atoms: C_4  and  O_16
REMARK    3  A    between atoms: C_13  and  O_18
REMARK    4  A    between atoms: C_21  and  C_25
REMARK    5  A    between atoms: C_26  and  O_36
REMARK                            x       y       z     vdW  Elec       q    Type
REMARK                         _______ _______ _______ _____ _____    ______ ____
ROOT
ATOM      1  O   UNL     1      -7.126   9.805  22.062  0.00  0.00    +0.000 OA
ATOM      2  C   UNL     1      -5.709  11.286  20.444  0.00  0.00    +0.000 C 
ATOM      3  C   UNL     1      -4.948  11.283  19.115  0.00  0.00    +0.000 C 
ATOM      4  C   UNL     1      -4.061  10.104  18.754  0.00  0.00    +0.000 C 
ATOM      5  C   UNL     1      -6.249   9.885  20.975  0.00  0.00    +0.000 C 
ATOM      6  C   UNL     1      -6.960  12.048  20.313  0.00  0.00    +0.000 C 
ATOM      7  C   UNL     1      -4.456   8.959  19.551  0.00  0.00    +0.000 C 
ATOM      8  C   UNL     1      -5.485   8.759  20.612  0.00  0.00    +0.000 C 
ATOM      9  C   UNL     1      -4.811  11.900  21.553  0.00  0.00    +0.000 C 
ATOM     10  C   UNL     1      -8.414  12.005  20.717  0.00  0.00    +0.000 C 
ATOM     11  C   UNL     1      -8.566   9.707  21.811  0.00  0.00    +0.000 C 
ATOM     12  C   UNL     1      -4.140   9.795  17.251  0.00  0.00    +0.000 C 
ATOM     13  C   UNL     1      -9.202  11.078  21.432  0.00  0.00    +0.000 C 
ATOM     14  C   UNL     1      -8.892   8.685  20.682  0.00  0.00    +0.000 C 
ATOM     15  C   UNL     1      -9.232   9.244  23.140  0.00  0.00    +0.000 C 
ENDROOT
BRANCH   4  16
ATOM     16  O   UNL     1      -2.716  10.423  19.007  0.00  0.00    +0.000 OA
ATOM     17  H   UNL     1      -2.265   9.919  18.306  0.00  0.00    +0.000 HD
ENDBRANCH   4  16
BRANCH  13  18
ATOM     18  O   UNL     1     -10.503  11.426  21.780  0.00  0.00    +0.000 OA
ATOM     19  H   UNL     1     -10.515  12.111  22.482  0.00  0.00    +0.000 HD
ENDBRANCH  13  18
BRANCH   3  20
ATOM     20  C   UNL     1      -4.886  12.487  18.326  0.00  0.00    +0.000 C 
ATOM     21  C   UNL     1      -4.833  13.762  17.479  0.00  0.00    +0.000 C 
BRANCH  21  25
ATOM     22  C   UNL     1      -4.848  14.852  14.054  0.00  0.00    +0.000 C 
ATOM     23  C   UNL     1      -5.616  15.108  15.380  0.00  0.00    +0.000 C 
ATOM     24  C   UNL     1      -3.632  15.605  13.597  0.00  0.00    +0.000 C 
ATOM     25  C   UNL     1      -4.790  14.952  16.679  0.00  0.00    +0.000 C 
ATOM     26  C   UNL     1      -3.346  15.425  12.110  0.00  0.00    +0.000 C 
ATOM     27  C   UNL     1      -5.346  14.186  12.895  0.00  0.00    +0.000 C 
ATOM     28  C   UNL     1      -4.446  14.542  11.744  0.00  0.00    +0.000 C 
ATOM     29  C   UNL     1      -2.916  16.321  14.572  0.00  0.00    +0.000 C 
ATOM     30  C   UNL     1      -3.808  15.977  17.037  0.00  0.00    +0.000 C 
ATOM     31  C   UNL     1      -6.823  14.097  15.435  0.00  0.00    +0.000 C 
ATOM     32  C   UNL     1      -6.243  16.543  15.313  0.00  0.00    +0.000 C 
ATOM     33  C   UNL     1      -3.082  16.430  16.064  0.00  0.00    +0.000 C 
ATOM     34  C   UNL     1      -1.951  14.874  11.850  0.00  0.00    +0.000 C 
ATOM     35  C   UNL     1      -3.293  16.193  18.435  0.00  0.00    +0.000 C 
BRANCH  26  36
ATOM     36  O   UNL     1      -3.440  16.656  11.443  0.00  0.00    +0.000 OA
ATOM     37  H   UNL     1      -4.161  17.081  11.939  0.00  0.00    +0.000 HD
ENDBRANCH  26  36
ENDBRANCH  21  25
ENDBRANCH   3  20
TORSDOF 5
ENDMDL
MODEL 8
REMARK VINA RESULT:      -4.3     24.701     28.469
REMARK  Name = 342374_SipholenolA.pdbqt.pdb
REMARK  5 active torsions:
REMARK  status: ('A' for Active; 'I' for Inactive)
REMARK    1  A    between atoms: C_3  and  C_20
REMARK    2  A    between atoms: C_4  and  O_16
REMARK    3  A    between atoms: C_13  and  O_18
REMARK    4  A    between atoms: C_21  and  C_25
REMARK    5  A    between atoms: C_26  and  O_36
REMARK                            x       y       z     vdW  Elec       q    Type
REMARK                         _______ _______ _______ _____ _____    ______ ____
ROOT
ATOM      1  O   UNL     1     -11.606  -4.788  23.361  0.00  0.00    +0.000 OA
ATOM      2  C   UNL     1     -11.724  -2.379  22.361  0.00  0.00    +0.000 C 
ATOM      3  C   UNL     1     -12.414  -1.513  21.303  0.00  0.00    +0.000 C 
ATOM      4  C   UNL     1     -12.642  -2.064  19.906  0.00  0.00    +0.000 C 
ATOM      5  C   UNL     1     -12.018  -3.943  22.324  0.00  0.00    +0.000 C 
ATOM      6  C   UNL     1     -12.208  -2.025  23.705  0.00  0.00    +0.000 C 
ATOM      7  C   UNL     1     -12.566  -3.511  19.956  0.00  0.00    +0.000 C 
ATOM      8  C   UNL     1     -12.291  -4.483  21.053  0.00  0.00    +0.000 C 
ATOM      9  C   UNL     1     -10.186  -2.182  22.268  0.00  0.00    +0.000 C 
ATOM     10  C   UNL     1     -12.622  -2.655  25.012  0.00  0.00    +0.000 C 
ATOM     11  C   UNL     1     -12.559  -5.134  24.419  0.00  0.00    +0.000 C 
ATOM     12  C   UNL     1     -13.989  -1.592  19.340  0.00  0.00    +0.000 C 
ATOM     13  C   UNL     1     -12.740  -3.988  25.459  0.00  0.00    +0.000 C 
ATOM     14  C   UNL     1     -13.959  -5.503  23.845  0.00  0.00    +0.000 C 
ATOM     15  C   UNL     1     -11.972  -6.358  25.182  0.00  0.00    +0.000 C 
ENDROOT
BRANCH   4  16
ATOM     16  O   UNL     1     -11.663  -1.564  19.030  0.00  0.00    +0.000 OA
ATOM     17  H   UNL     1     -11.637  -0.625  19.290  0.00  0.00    +0.000 HD
ENDBRANCH   4  16
BRANCH  13  18
ATOM     18  O   UNL     1     -12.997  -4.228  26.806  0.00  0.00    +0.000 OA
ATOM     19  H   UNL     1     -12.300  -3.841  27.377  0.00  0.00    +0.000 HD
ENDBRANCH  13  18
BRANCH   3  20
ATOM     20  C   UNL     1     -12.629  -0.112  21.559  0.00  0.00    +0.000 C 
ATOM     21  C   UNL     1     -12.853   1.376  21.847  0.00  0.00    +0.000 C 
BRANCH  21  25
ATOM     22  C   UNL     1     -15.014   3.584  23.683  0.00  0.00    +0.000 C 
ATOM     23  C   UNL     1     -13.501   3.277  23.519  0.00  0.00    +0.000 C 
ATOM     24  C   UNL     1     -15.791   4.576  22.866  0.00  0.00    +0.000 C 
ATOM     25  C   UNL     1     -13.062   2.768  22.125  0.00  0.00    +0.000 C 
ATOM     26  C   UNL     1     -17.123   4.958  23.503  0.00  0.00    +0.000 C 
ATOM     27  C   UNL     1     -15.821   3.314  24.829  0.00  0.00    +0.000 C 
ATOM     28  C   UNL     1     -17.069   4.145  24.712  0.00  0.00    +0.000 C 
ATOM     29  C   UNL     1     -15.230   4.979  21.641  0.00  0.00    +0.000 C 
ATOM     30  C   UNL     1     -13.005   3.702  21.001  0.00  0.00    +0.000 C 
ATOM     31  C   UNL     1     -13.116   2.187  24.589  0.00  0.00    +0.000 C 
ATOM     32  C   UNL     1     -12.696   4.568  23.895  0.00  0.00    +0.000 C 
ATOM     33  C   UNL     1     -13.988   4.542  20.912  0.00  0.00    +0.000 C 
ATOM     34  C   UNL     1     -18.306   4.686  22.584  0.00  0.00    +0.000 C 
ATOM     35  C   UNL     1     -12.186   3.472  19.759  0.00  0.00    +0.000 C 
BRANCH  26  36
ATOM     36  O   UNL     1     -17.140   6.327  23.813  0.00  0.00    +0.000 OA
ATOM     37  H   UNL     1     -16.203   6.557  23.686  0.00  0.00    +0.000 HD
ENDBRANCH  26  36
ENDBRANCH  21  25
ENDBRANCH   3  20
TORSDOF 5
ENDMDL
MODEL 9
REMARK VINA RESULT:      -4.2     22.485     26.360
REMARK  Name = 342374_SipholenolA.pdbqt.pdb
REMARK  5 active torsions:
REMARK  status: ('A' for Active; 'I' for Inactive)
REMARK    1  A    between atoms: C_3  and  C_20
REMARK    2  A    between atoms: C_4  and  O_16
REMARK    3  A    between atoms: C_13  and  O_18
REMARK    4  A    between atoms: C_21  and  C_25
REMARK    5  A    between atoms: C_26  and  O_36
REMARK                            x       y       z     vdW  Elec       q    Type
REMARK                         _______ _______ _______ _____ _____    ______ ____
ROOT
ATOM      1  O   UNL     1     -26.872  23.517  21.102  0.00  0.00    +0.000 OA
ATOM      2  C   UNL     1     -25.865  22.012  19.220  0.00  0.00    +0.000 C 
ATOM      3  C   UNL     1     -26.168  20.841  18.281  0.00  0.00    +0.000 C 
ATOM      4  C   UNL     1     -26.913  19.625  18.804  0.00  0.00    +0.000 C 
ATOM      5  C   UNL     1     -26.952  22.350  20.333  0.00  0.00    +0.000 C 
ATOM      6  C   UNL     1     -25.822  23.274  18.465  0.00  0.00    +0.000 C 
ATOM      7  C   UNL     1     -27.617  19.993  20.017  0.00  0.00    +0.000 C 
ATOM      8  C   UNL     1     -27.706  21.257  20.803  0.00  0.00    +0.000 C 
ATOM      9  C   UNL     1     -24.511  21.762  19.940  0.00  0.00    +0.000 C 
ATOM     10  C   UNL     1     -26.255  24.716  18.555  0.00  0.00    +0.000 C 
ATOM     11  C   UNL     1     -27.643  24.694  20.693  0.00  0.00    +0.000 C 
ATOM     12  C   UNL     1     -27.875  19.070  17.743  0.00  0.00    +0.000 C 
ATOM     13  C   UNL     1     -26.982  25.460  19.509  0.00  0.00    +0.000 C 
ATOM     14  C   UNL     1     -29.101  24.325  20.288  0.00  0.00    +0.000 C 
ATOM     15  C   UNL     1     -27.672  25.666  21.909  0.00  0.00    +0.000 C 
ENDROOT
BRANCH   4  16
ATOM     16  O   UNL     1     -26.004  18.588  19.074  0.00  0.00    +0.000 OA
ATOM     17  H   UNL     1     -25.268  19.080  19.480  0.00  0.00    +0.000 HD
ENDBRANCH   4  16
BRANCH  13  18
ATOM     18  O   UNL     1     -27.069  26.841  19.363  0.00  0.00    +0.000 OA
ATOM     19  H   UNL     1     -27.972  27.166  19.565  0.00  0.00    +0.000 HD
ENDBRANCH  13  18
BRANCH   3  20
ATOM     20  C   UNL     1     -25.546  20.790  16.982  0.00  0.00    +0.000 C 
ATOM     21  C   UNL     1     -24.887  20.719  15.602  0.00  0.00    +0.000 C 
BRANCH  21  25
ATOM     22  C   UNL     1     -25.340  19.258  12.349  0.00  0.00    +0.000 C 
ATOM     23  C   UNL     1     -25.092  20.648  12.997  0.00  0.00    +0.000 C 
ATOM     24  C   UNL     1     -24.270  18.307  11.899  0.00  0.00    +0.000 C 
ATOM     25  C   UNL     1     -24.270  20.644  14.308  0.00  0.00    +0.000 C 
ATOM     26  C   UNL     1     -24.789  17.232  10.950  0.00  0.00    +0.000 C 
ATOM     27  C   UNL     1     -26.540  18.814  11.717  0.00  0.00    +0.000 C 
ATOM     28  C   UNL     1     -26.195  17.612  10.881  0.00  0.00    +0.000 C 
ATOM     29  C   UNL     1     -22.979  18.498  12.424  0.00  0.00    +0.000 C 
ATOM     30  C   UNL     1     -22.829  20.399  14.255  0.00  0.00    +0.000 C 
ATOM     31  C   UNL     1     -26.497  21.294  13.294  0.00  0.00    +0.000 C 
ATOM     32  C   UNL     1     -24.399  21.566  11.933  0.00  0.00    +0.000 C 
ATOM     33  C   UNL     1     -22.443  19.459  13.451  0.00  0.00    +0.000 C 
ATOM     34  C   UNL     1     -24.516  15.825  11.462  0.00  0.00    +0.000 C 
ATOM     35  C   UNL     1     -21.867  20.811  15.338  0.00  0.00    +0.000 C 
BRANCH  26  36
ATOM     36  O   UNL     1     -24.170  17.348   9.696  0.00  0.00    +0.000 OA
ATOM     37  H   UNL     1     -23.231  17.358   9.953  0.00  0.00    +0.000 HD
ENDBRANCH  26  36
ENDBRANCH  21  25
ENDBRANCH   3  20
TORSDOF 5
ENDMDL
