REMARK  Name = 43806_Diaminocyclohexane.pdbqt.pdb
REMARK  2 active torsions:
REMARK  status: ('A' for Active; 'I' for Inactive)
REMARK    1  A    between atoms: C_1  and  N_7
REMARK    2  A    between atoms: C_2  and  N_10
REMARK                            x       y       z     vdW  Elec       q    Type
REMARK                         _______ _______ _______ _____ _____    ______ ____
ROOT
ATOM      1  C   UNL     1      -0.504   0.613   0.178  0.00  0.00    +0.000 A 
ATOM      2  C   UNL     1       0.801   0.010  -0.171  0.00  0.00    +0.000 A 
ATOM      3  C   UNL     1      -1.593  -0.311   0.289  0.00  0.00    +0.000 A 
ATOM      4  C   UNL     1       0.794  -1.416  -0.315  0.00  0.00    +0.000 A 
ATOM      5  C   UNL     1      -1.677  -1.839   0.139  0.00  0.00    +0.000 A 
ATOM      6  C   UNL     1      -0.323  -2.465  -0.201  0.00  0.00    +0.000 A 
ENDROOT
BRANCH   1   7
ATOM      7  N   UNL     1      -0.658   1.991   0.461  0.00  0.00    +0.000 N 
ATOM      8  H   UNL     1       0.190   2.431   0.804  0.00  0.00    +0.000 HD
ATOM      9  H   UNL     1      -1.468   2.216   1.030  0.00  0.00    +0.000 HD
ENDBRANCH   1   7
BRANCH   2  10
ATOM     10  N   UNL     1       1.958   0.784  -0.424  0.00  0.00    +0.000 N 
ATOM     11  H   UNL     1       1.754   1.724  -0.748  0.00  0.00    +0.000 HD
ATOM     12  H   UNL     1       2.657   0.322  -0.996  0.00  0.00    +0.000 HD
ENDBRANCH   2  10
TORSDOF 2
