MODEL 1
REMARK VINA RESULT:      -4.4      0.000      0.000
REMARK  Name = 43806_Diaminocyclohexane.pdbqt.pdb
REMARK  2 active torsions:
REMARK  status: ('A' for Active; 'I' for Inactive)
REMARK    1  A    between atoms: C_1  and  N_7
REMARK    2  A    between atoms: C_2  and  N_10
REMARK                            x       y       z     vdW  Elec       q    Type
REMARK                         _______ _______ _______ _____ _____    ______ ____
ROOT
ATOM      1  C   UNL     1     -16.999   7.379  -0.072  0.00  0.00    +0.000 A 
ATOM      2  C   UNL     1     -15.905   7.756  -0.994  0.00  0.00    +0.000 A 
ATOM      3  C   UNL     1     -17.065   8.140   1.140  0.00  0.00    +0.000 A 
ATOM      4  C   UNL     1     -15.090   8.851  -0.556  0.00  0.00    +0.000 A 
ATOM      5  C   UNL     1     -16.226   9.311   1.677  0.00  0.00    +0.000 A 
ATOM      6  C   UNL     1     -15.108   9.715   0.714  0.00  0.00    +0.000 A 
ENDROOT
BRANCH   1   7
ATOM      7  N   UNL     1     -17.962   6.393  -0.391  0.00  0.00    +0.000 N 
ATOM      8  H   UNL     1     -17.810   5.956  -1.295  0.00  0.00    +0.000 HD
ATOM      9  H   UNL     1     -18.925   6.687  -0.261  0.00  0.00    +0.000 HD
ENDBRANCH   1   7
BRANCH   2  10
ATOM     10  N   UNL     1     -15.628   7.043  -2.184  0.00  0.00    +0.000 N 
ATOM     11  H   UNL     1     -14.686   7.187  -2.533  0.00  0.00    +0.000 HD
ATOM     12  H   UNL     1     -16.329   7.148  -2.910  0.00  0.00    +0.000 HD
ENDBRANCH   2  10
TORSDOF 2
ENDMDL
MODEL 2
REMARK VINA RESULT:      -4.4      0.035      2.286
REMARK  Name = 43806_Diaminocyclohexane.pdbqt.pdb
REMARK  2 active torsions:
REMARK  status: ('A' for Active; 'I' for Inactive)
REMARK    1  A    between atoms: C_1  and  N_7
REMARK    2  A    between atoms: C_2  and  N_10
REMARK                            x       y       z     vdW  Elec       q    Type
REMARK                         _______ _______ _______ _____ _____    ______ ____
ROOT
ATOM      1  C   UNL     1     -15.908   7.788  -0.979  0.00  0.00    +0.000 A 
ATOM      2  C   UNL     1     -17.006   7.407  -0.065  0.00  0.00    +0.000 A 
ATOM      3  C   UNL     1     -15.087   8.872  -0.529  0.00  0.00    +0.000 A 
ATOM      4  C   UNL     1     -17.070   8.156   1.155  0.00  0.00    +0.000 A 
ATOM      5  C   UNL     1     -15.102   9.723   0.752  0.00  0.00    +0.000 A 
ATOM      6  C   UNL     1     -16.225   9.315   1.707  0.00  0.00    +0.000 A 
ENDROOT
BRANCH   1   7
ATOM      7  N   UNL     1     -15.632   7.086  -2.177  0.00  0.00    +0.000 N 
ATOM      8  H   UNL     1     -16.356   7.188  -2.881  0.00  0.00    +0.000 HD
ATOM      9  H   UNL     1     -15.355   6.119  -2.044  0.00  0.00    +0.000 HD
ENDBRANCH   1   7
BRANCH   2  10
ATOM     10  N   UNL     1     -17.975   6.431  -0.397  0.00  0.00    +0.000 N 
ATOM     11  H   UNL     1     -18.253   5.852   0.388  0.00  0.00    +0.000 HD
ATOM     12  H   UNL     1     -17.754   5.882  -1.222  0.00  0.00    +0.000 HD
ENDBRANCH   2  10
TORSDOF 2
ENDMDL
MODEL 3
REMARK VINA RESULT:      -3.8      1.518      2.209
REMARK  Name = 43806_Diaminocyclohexane.pdbqt.pdb
REMARK  2 active torsions:
REMARK  status: ('A' for Active; 'I' for Inactive)
REMARK    1  A    between atoms: C_1  and  N_7
REMARK    2  A    between atoms: C_2  and  N_10
REMARK                            x       y       z     vdW  Elec       q    Type
REMARK                         _______ _______ _______ _____ _____    ______ ____
ROOT
ATOM      1  C   UNL     1     -17.955   9.023   0.568  0.00  0.00    +0.000 A 
ATOM      2  C   UNL     1     -17.673   8.063  -0.521  0.00  0.00    +0.000 A 
ATOM      3  C   UNL     1     -16.802   9.643   1.150  0.00  0.00    +0.000 A 
ATOM      4  C   UNL     1     -16.288   7.917  -0.860  0.00  0.00    +0.000 A 
ATOM      5  C   UNL     1     -15.299   9.528   0.848  0.00  0.00    +0.000 A 
ATOM      6  C   UNL     1     -15.008   8.551  -0.293  0.00  0.00    +0.000 A 
ENDROOT
BRANCH   1   7
ATOM      7  N   UNL     1     -19.270   9.369   0.960  0.00  0.00    +0.000 N 
ATOM      8  H   UNL     1     -19.834   9.742   0.203  0.00  0.00    +0.000 HD
ATOM      9  H   UNL     1     -19.324   9.938   1.799  0.00  0.00    +0.000 HD
ENDBRANCH   1   7
BRANCH   2  10
ATOM     10  N   UNL     1     -18.682   7.283  -1.134  0.00  0.00    +0.000 N 
ATOM     11  H   UNL     1     -18.818   7.497  -2.117  0.00  0.00    +0.000 HD
ATOM     12  H   UNL     1     -19.557   7.249  -0.622  0.00  0.00    +0.000 HD
ENDBRANCH   2  10
TORSDOF 2
ENDMDL
MODEL 4
REMARK VINA RESULT:      -3.5     24.595     25.762
REMARK  Name = 43806_Diaminocyclohexane.pdbqt.pdb
REMARK  2 active torsions:
REMARK  status: ('A' for Active; 'I' for Inactive)
REMARK    1  A    between atoms: C_1  and  N_7
REMARK    2  A    between atoms: C_2  and  N_10
REMARK                            x       y       z     vdW  Elec       q    Type
REMARK                         _______ _______ _______ _____ _____    ______ ____
ROOT
ATOM      1  C   UNL     1     -16.258  19.289  23.053  0.00  0.00    +0.000 A 
ATOM      2  C   UNL     1     -15.261  18.847  24.052  0.00  0.00    +0.000 A 
ATOM      3  C   UNL     1     -15.769  19.397  21.710  0.00  0.00    +0.000 A 
ATOM      4  C   UNL     1     -13.959  18.558  23.527  0.00  0.00    +0.000 A 
ATOM      5  C   UNL     1     -14.395  19.117  21.080  0.00  0.00    +0.000 A 
ATOM      6  C   UNL     1     -13.370  18.640  22.110  0.00  0.00    +0.000 A 
ENDROOT
BRANCH   1   7
ATOM      7  N   UNL     1     -17.617  19.514  23.377  0.00  0.00    +0.000 N 
ATOM      8  H   UNL     1     -17.838  19.321  24.348  0.00  0.00    +0.000 HD
ATOM      9  H   UNL     1     -18.279  19.087  22.736  0.00  0.00    +0.000 HD
ENDBRANCH   1   7
BRANCH   2  10
ATOM     10  N   UNL     1     -15.541  18.787  25.437  0.00  0.00    +0.000 N 
ATOM     11  H   UNL     1     -16.502  19.021  25.667  0.00  0.00    +0.000 HD
ATOM     12  H   UNL     1     -14.874  19.277  26.024  0.00  0.00    +0.000 HD
ENDBRANCH   2  10
TORSDOF 2
ENDMDL
MODEL 5
REMARK VINA RESULT:      -3.5     17.838     18.780
REMARK  Name = 43806_Diaminocyclohexane.pdbqt.pdb
REMARK  2 active torsions:
REMARK  status: ('A' for Active; 'I' for Inactive)
REMARK    1  A    between atoms: C_1  and  N_7
REMARK    2  A    between atoms: C_2  and  N_10
REMARK                            x       y       z     vdW  Elec       q    Type
REMARK                         _______ _______ _______ _____ _____    ______ ____
ROOT
ATOM      1  C   UNL     1     -10.895   4.870  17.725  0.00  0.00    +0.000 A 
ATOM      2  C   UNL     1     -10.731   6.224  18.297  0.00  0.00    +0.000 A 
ATOM      3  C   UNL     1     -10.360   4.695  16.408  0.00  0.00    +0.000 A 
ATOM      4  C   UNL     1     -10.031   7.157  17.464  0.00  0.00    +0.000 A 
ATOM      5  C   UNL     1      -9.612   5.645  15.457  0.00  0.00    +0.000 A 
ATOM      6  C   UNL     1      -9.424   7.039  16.058  0.00  0.00    +0.000 A 
ENDROOT
BRANCH   1   7
ATOM      7  N   UNL     1     -11.467   3.798  18.450  0.00  0.00    +0.000 N 
ATOM      8  H   UNL     1     -12.296   4.060  18.974  0.00  0.00    +0.000 HD
ATOM      9  H   UNL     1     -10.807   3.268  19.009  0.00  0.00    +0.000 HD
ENDBRANCH   1   7
BRANCH   2  10
ATOM     10  N   UNL     1     -11.291   6.602  19.541  0.00  0.00    +0.000 N 
ATOM     11  H   UNL     1     -11.084   5.952  20.292  0.00  0.00    +0.000 HD
ATOM     12  H   UNL     1     -12.275   6.847  19.503  0.00  0.00    +0.000 HD
ENDBRANCH   2  10
TORSDOF 2
ENDMDL
MODEL 6
REMARK VINA RESULT:      -3.5     17.847     18.784
REMARK  Name = 43806_Diaminocyclohexane.pdbqt.pdb
REMARK  2 active torsions:
REMARK  status: ('A' for Active; 'I' for Inactive)
REMARK    1  A    between atoms: C_1  and  N_7
REMARK    2  A    between atoms: C_2  and  N_10
REMARK                            x       y       z     vdW  Elec       q    Type
REMARK                         _______ _______ _______ _____ _____    ______ ____
ROOT
ATOM      1  C   UNL     1     -10.765   6.214  18.299  0.00  0.00    +0.000 A 
ATOM      2  C   UNL     1     -10.890   4.863  17.711  0.00  0.00    +0.000 A 
ATOM      3  C   UNL     1     -10.068   7.170  17.491  0.00  0.00    +0.000 A 
ATOM      4  C   UNL     1     -10.325   4.714  16.402  0.00  0.00    +0.000 A 
ATOM      5  C   UNL     1      -9.431   7.079  16.095  0.00  0.00    +0.000 A 
ATOM      6  C   UNL     1      -9.579   5.687  15.477  0.00  0.00    +0.000 A 
ENDROOT
BRANCH   1   7
ATOM      7  N   UNL     1     -11.357   6.567  19.535  0.00  0.00    +0.000 N 
ATOM      8  H   UNL     1     -12.221   7.090  19.436  0.00  0.00    +0.000 HD
ATOM      9  H   UNL     1     -10.720   6.995  20.200  0.00  0.00    +0.000 HD
ENDBRANCH   1   7
BRANCH   2  10
ATOM     10  N   UNL     1     -11.454   3.772  18.413  0.00  0.00    +0.000 N 
ATOM     11  H   UNL     1     -11.966   4.047  19.245  0.00  0.00    +0.000 HD
ATOM     12  H   UNL     1     -10.811   3.008  18.591  0.00  0.00    +0.000 HD
ENDBRANCH   2  10
TORSDOF 2
ENDMDL
MODEL 7
REMARK VINA RESULT:      -3.3     24.596     25.427
REMARK  Name = 43806_Diaminocyclohexane.pdbqt.pdb
REMARK  2 active torsions:
REMARK  status: ('A' for Active; 'I' for Inactive)
REMARK    1  A    between atoms: C_1  and  N_7
REMARK    2  A    between atoms: C_2  and  N_10
REMARK                            x       y       z     vdW  Elec       q    Type
REMARK                         _______ _______ _______ _____ _____    ______ ____
ROOT
ATOM      1  C   UNL     1     -15.998  20.029  21.756  0.00  0.00    +0.000 A 
ATOM      2  C   UNL     1     -16.465  19.388  23.005  0.00  0.00    +0.000 A 
ATOM      3  C   UNL     1     -14.632  19.769  21.410  0.00  0.00    +0.000 A 
ATOM      4  C   UNL     1     -15.493  18.571  23.671  0.00  0.00    +0.000 A 
ATOM      5  C   UNL     1     -13.537  18.920  22.076  0.00  0.00    +0.000 A 
ATOM      6  C   UNL     1     -14.026  18.239  23.356  0.00  0.00    +0.000 A 
ENDROOT
BRANCH   1   7
ATOM      7  N   UNL     1     -16.853  20.782  20.918  0.00  0.00    +0.000 N 
ATOM      8  H   UNL     1     -17.218  20.253  20.132  0.00  0.00    +0.000 HD
ATOM      9  H   UNL     1     -16.481  21.684  20.637  0.00  0.00    +0.000 HD
ENDBRANCH   1   7
BRANCH   2  10
ATOM     10  N   UNL     1     -17.749  19.622  23.551  0.00  0.00    +0.000 N 
ATOM     11  H   UNL     1     -17.731  19.890  24.530  0.00  0.00    +0.000 HD
ATOM     12  H   UNL     1     -18.426  18.889  23.364  0.00  0.00    +0.000 HD
ENDBRANCH   2  10
TORSDOF 2
ENDMDL
MODEL 8
REMARK VINA RESULT:      -3.2     15.934     16.867
REMARK  Name = 43806_Diaminocyclohexane.pdbqt.pdb
REMARK  2 active torsions:
REMARK  status: ('A' for Active; 'I' for Inactive)
REMARK    1  A    between atoms: C_1  and  N_7
REMARK    2  A    between atoms: C_2  and  N_10
REMARK                            x       y       z     vdW  Elec       q    Type
REMARK                         _______ _______ _______ _____ _____    ______ ____
ROOT
ATOM      1  C   UNL     1      -0.423   6.853   2.011  0.00  0.00    +0.000 A 
ATOM      2  C   UNL     1      -0.694   6.292   3.353  0.00  0.00    +0.000 A 
ATOM      3  C   UNL     1       0.904   7.358   1.817  0.00  0.00    +0.000 A 
ATOM      4  C   UNL     1       0.421   6.305   4.255  0.00  0.00    +0.000 A 
ATOM      5  C   UNL     1       2.137   7.415   2.734  0.00  0.00    +0.000 A 
ATOM      6  C   UNL     1       1.863   6.816   4.114  0.00  0.00    +0.000 A 
ENDROOT
BRANCH   1   7
ATOM      7  N   UNL     1      -1.375   6.824   0.964  0.00  0.00    +0.000 N 
ATOM      8  H   UNL     1      -2.165   7.443   1.119  0.00  0.00    +0.000 HD
ATOM      9  H   UNL     1      -1.663   5.892   0.683  0.00  0.00    +0.000 HD
ENDBRANCH   1   7
BRANCH   2  10
ATOM     10  N   UNL     1      -1.976   5.847   3.752  0.00  0.00    +0.000 N 
ATOM     11  H   UNL     1      -2.498   6.537   4.283  0.00  0.00    +0.000 HD
ATOM     12  H   UNL     1      -1.987   4.933   4.191  0.00  0.00    +0.000 HD
ENDBRANCH   2  10
TORSDOF 2
ENDMDL
MODEL 9
REMARK VINA RESULT:      -3.1     24.537     25.860
REMARK  Name = 43806_Diaminocyclohexane.pdbqt.pdb
REMARK  2 active torsions:
REMARK  status: ('A' for Active; 'I' for Inactive)
REMARK    1  A    between atoms: C_1  and  N_7
REMARK    2  A    between atoms: C_2  and  N_10
REMARK                            x       y       z     vdW  Elec       q    Type
REMARK                         _______ _______ _______ _____ _____    ______ ____
ROOT
ATOM      1  C   UNL     1     -14.547  19.622  23.867  0.00  0.00    +0.000 A 
ATOM      2  C   UNL     1     -15.526  19.936  22.803  0.00  0.00    +0.000 A 
ATOM      3  C   UNL     1     -13.339  18.997  23.419  0.00  0.00    +0.000 A 
ATOM      4  C   UNL     1     -15.109  19.600  21.473  0.00  0.00    +0.000 A 
ATOM      5  C   UNL     1     -12.831  18.599  22.023  0.00  0.00    +0.000 A 
ATOM      6  C   UNL     1     -13.834  18.943  20.921  0.00  0.00    +0.000 A 
ENDROOT
BRANCH   1   7
ATOM      7  N   UNL     1     -14.749  19.982  25.221  0.00  0.00    +0.000 N 
ATOM      8  H   UNL     1     -13.885  20.108  25.739  0.00  0.00    +0.000 HD
ATOM      9  H   UNL     1     -15.415  19.398  25.717  0.00  0.00    +0.000 HD
ENDBRANCH   1   7
BRANCH   2  10
ATOM     10  N   UNL     1     -16.813  20.457  23.076  0.00  0.00    +0.000 N 
ATOM     11  H   UNL     1     -16.824  21.132  23.835  0.00  0.00    +0.000 HD
ATOM     12  H   UNL     1     -17.539  19.755  23.173  0.00  0.00    +0.000 HD
ENDBRANCH   2  10
TORSDOF 2
ENDMDL
