MODEL 1
REMARK VINA RESULT:      -6.9      0.000      0.000
REMARK  Name = 44234954_SipholenolL.pdbqt.pdb
REMARK  5 active torsions:
REMARK  status: ('A' for Active; 'I' for Inactive)
REMARK    1  A    between atoms: C_3  and  C_20
REMARK    2  A    between atoms: C_4  and  O_16
REMARK    3  A    between atoms: C_13  and  O_18
REMARK    4  A    between atoms: C_21  and  C_25
REMARK    5  A    between atoms: C_26  and  O_36
REMARK                            x       y       z     vdW  Elec       q    Type
REMARK                         _______ _______ _______ _____ _____    ______ ____
ROOT
ATOM      1  O   UNL     1     -12.187  15.817  -6.719  0.00  0.00    +0.000 OA
ATOM      2  C   UNL     1     -13.640  13.758  -6.055  0.00  0.00    +0.000 C 
ATOM      3  C   UNL     1     -14.917  13.349  -5.317  0.00  0.00    +0.000 C 
ATOM      4  C   UNL     1     -16.206  14.107  -5.576  0.00  0.00    +0.000 C 
ATOM      5  C   UNL     1     -13.407  15.321  -6.248  0.00  0.00    +0.000 C 
ATOM      6  C   UNL     1     -12.443  13.390  -5.284  0.00  0.00    +0.000 C 
ATOM      7  C   UNL     1     -15.872  15.441  -6.038  0.00  0.00    +0.000 C 
ATOM      8  C   UNL     1     -14.575  16.101  -6.370  0.00  0.00    +0.000 C 
ATOM      9  C   UNL     1     -13.601  13.082  -7.450  0.00  0.00    +0.000 C 
ATOM     10  C   UNL     1     -11.102  13.940  -4.866  0.00  0.00    +0.000 C 
ATOM     11  C   UNL     1     -11.192  16.332  -5.763  0.00  0.00    +0.000 C 
ATOM     12  C   UNL     1     -17.146  13.340  -6.502  0.00  0.00    +0.000 C 
ATOM     13  C   UNL     1     -10.435  15.176  -5.028  0.00  0.00    +0.000 C 
ATOM     14  C   UNL     1     -10.174  17.139  -6.614  0.00  0.00    +0.000 C 
ATOM     15  C   UNL     1     -11.863  17.249  -4.694  0.00  0.00    +0.000 C 
ENDROOT
BRANCH   4  16
ATOM     16  O   UNL     1     -16.914  14.228  -4.359  0.00  0.00    +0.000 OA
ATOM     17  H   UNL     1     -17.451  15.023  -4.540  0.00  0.00    +0.000 HD
ENDBRANCH   4  16
BRANCH  13  18
ATOM     18  O   UNL     1      -9.244  15.393  -4.346  0.00  0.00    +0.000 OA
ATOM     19  H   UNL     1      -8.624  15.951  -4.849  0.00  0.00    +0.000 HD
ENDBRANCH  13  18
BRANCH   3  20
ATOM     20  C   UNL     1     -14.925  12.218  -4.430  0.00  0.00    +0.000 C 
ATOM     21  C   UNL     1     -14.968  11.006  -3.494  0.00  0.00    +0.000 C 
BRANCH  21  25
ATOM     22  C   UNL     1     -15.168   8.444  -3.253  0.00  0.00    +0.000 A 
ATOM     23  C   UNL     1     -15.226   7.192  -2.294  0.00  0.00    +0.000 A 
ATOM     24  C   UNL     1     -15.255   8.291  -4.828  0.00  0.00    +0.000 C 
ATOM     25  C   UNL     1     -15.047   9.858  -2.646  0.00  0.00    +0.000 A 
ATOM     26  C   UNL     1     -15.319   5.698  -2.680  0.00  0.00    +0.000 C 
ATOM     27  C   UNL     1     -15.395   6.850  -5.062  0.00  0.00    +0.000 C 
ATOM     28  C   UNL     1     -15.432   5.673  -4.125  0.00  0.00    +0.000 C 
ATOM     29  C   UNL     1     -15.219   7.606  -0.929  0.00  0.00    +0.000 A 
ATOM     30  C   UNL     1     -15.023  10.108  -1.178  0.00  0.00    +0.000 A 
ATOM     31  C   UNL     1     -13.940   8.789  -5.474  0.00  0.00    +0.000 C 
ATOM     32  C   UNL     1     -16.511   9.015  -5.360  0.00  0.00    +0.000 C 
ATOM     33  C   UNL     1     -15.115   9.030  -0.467  0.00  0.00    +0.000 A 
ATOM     34  C   UNL     1     -14.127   4.912  -2.151  0.00  0.00    +0.000 C 
ATOM     35  C   UNL     1     -14.773  11.428  -0.507  0.00  0.00    +0.000 C 
BRANCH  26  36
ATOM     36  O   UNL     1     -16.472   5.136  -2.106  0.00  0.00    +0.000 OA
ATOM     37  H   UNL     1     -16.377   4.204  -2.376  0.00  0.00    +0.000 HD
ENDBRANCH  26  36
ENDBRANCH  21  25
ENDBRANCH   3  20
TORSDOF 5
ENDMDL
MODEL 2
REMARK VINA RESULT:      -6.4     16.759     19.674
REMARK  Name = 44234954_SipholenolL.pdbqt.pdb
REMARK  5 active torsions:
REMARK  status: ('A' for Active; 'I' for Inactive)
REMARK    1  A    between atoms: C_3  and  C_20
REMARK    2  A    between atoms: C_4  and  O_16
REMARK    3  A    between atoms: C_13  and  O_18
REMARK    4  A    between atoms: C_21  and  C_25
REMARK    5  A    between atoms: C_26  and  O_36
REMARK                            x       y       z     vdW  Elec       q    Type
REMARK                         _______ _______ _______ _____ _____    ______ ____
ROOT
ATOM      1  O   UNL     1      -1.489  17.663   4.762  0.00  0.00    +0.000 OA
ATOM      2  C   UNL     1      -1.895  17.731   7.335  0.00  0.00    +0.000 C 
ATOM      3  C   UNL     1      -1.255  17.393   8.684  0.00  0.00    +0.000 C 
ATOM      4  C   UNL     1       0.181  17.803   8.955  0.00  0.00    +0.000 C 
ATOM      5  C   UNL     1      -0.961  17.583   6.055  0.00  0.00    +0.000 C 
ATOM      6  C   UNL     1      -2.971  16.783   7.007  0.00  0.00    +0.000 C 
ATOM      7  C   UNL     1       0.872  17.929   7.685  0.00  0.00    +0.000 C 
ATOM      8  C   UNL     1       0.410  17.829   6.269  0.00  0.00    +0.000 C 
ATOM      9  C   UNL     1      -2.454  19.178   7.367  0.00  0.00    +0.000 C 
ATOM     10  C   UNL     1      -3.512  15.976   5.854  0.00  0.00    +0.000 C 
ATOM     11  C   UNL     1      -1.790  16.427   4.020  0.00  0.00    +0.000 C 
ATOM     12  C   UNL     1       0.266  19.042   9.840  0.00  0.00    +0.000 C 
ATOM     13  C   UNL     1      -3.115  15.756   4.516  0.00  0.00    +0.000 C 
ATOM     14  C   UNL     1      -1.969  16.862   2.540  0.00  0.00    +0.000 C 
ATOM     15  C   UNL     1      -0.627  15.396   4.152  0.00  0.00    +0.000 C 
ENDROOT
BRANCH   4  16
ATOM     16  O   UNL     1       0.812  16.780   9.698  0.00  0.00    +0.000 OA
ATOM     17  H   UNL     1       0.477  15.988   9.238  0.00  0.00    +0.000 HD
ENDBRANCH   4  16
BRANCH  13  18
ATOM     18  O   UNL     1      -3.776  14.790   3.766  0.00  0.00    +0.000 OA
ATOM     19  H   UNL     1      -3.800  15.009   2.817  0.00  0.00    +0.000 HD
ENDBRANCH  13  18
BRANCH   3  20
ATOM     20  C   UNL     1      -2.017  16.749   9.719  0.00  0.00    +0.000 C 
ATOM     21  C   UNL     1      -2.843  16.093  10.830  0.00  0.00    +0.000 C 
BRANCH  21  25
ATOM     22  C   UNL     1      -2.982  14.854  13.091  0.00  0.00    +0.000 A 
ATOM     23  C   UNL     1      -3.893  14.256  14.233  0.00  0.00    +0.000 A 
ATOM     24  C   UNL     1      -1.401  14.767  13.154  0.00  0.00    +0.000 C 
ATOM     25  C   UNL     1      -3.645  15.521  11.866  0.00  0.00    +0.000 A 
ATOM     26  C   UNL     1      -3.449  13.573  15.547  0.00  0.00    +0.000 C 
ATOM     27  C   UNL     1      -1.111  14.059  14.404  0.00  0.00    +0.000 C 
ATOM     28  C   UNL     1      -2.001  13.511  15.487  0.00  0.00    +0.000 C 
ATOM     29  C   UNL     1      -5.271  14.384  13.893  0.00  0.00    +0.000 A 
ATOM     30  C   UNL     1      -5.122  15.595  11.686  0.00  0.00    +0.000 A 
ATOM     31  C   UNL     1      -0.803  16.193  13.223  0.00  0.00    +0.000 C 
ATOM     32  C   UNL     1      -0.870  13.937  11.966  0.00  0.00    +0.000 C 
ATOM     33  C   UNL     1      -5.789  15.045  12.649  0.00  0.00    +0.000 A 
ATOM     34  C   UNL     1      -3.972  14.320  16.766  0.00  0.00    +0.000 C 
ATOM     35  C   UNL     1      -5.846  16.338  10.602  0.00  0.00    +0.000 C 
BRANCH  26  36
ATOM     36  O   UNL     1      -3.975  12.272  15.602  0.00  0.00    +0.000 OA
ATOM     37  H   UNL     1      -4.352  12.187  14.707  0.00  0.00    +0.000 HD
ENDBRANCH  26  36
ENDBRANCH  21  25
ENDBRANCH   3  20
TORSDOF 5
ENDMDL
MODEL 3
REMARK VINA RESULT:      -6.0     21.819     25.108
REMARK  Name = 44234954_SipholenolL.pdbqt.pdb
REMARK  5 active torsions:
REMARK  status: ('A' for Active; 'I' for Inactive)
REMARK    1  A    between atoms: C_3  and  C_20
REMARK    2  A    between atoms: C_4  and  O_16
REMARK    3  A    between atoms: C_13  and  O_18
REMARK    4  A    between atoms: C_21  and  C_25
REMARK    5  A    between atoms: C_26  and  O_36
REMARK                            x       y       z     vdW  Elec       q    Type
REMARK                         _______ _______ _______ _____ _____    ______ ____
ROOT
ATOM      1  O   UNL     1     -10.939   4.902  18.710  0.00  0.00    +0.000 OA
ATOM      2  C   UNL     1      -8.809   5.603  17.382  0.00  0.00    +0.000 C 
ATOM      3  C   UNL     1      -7.350   5.222  17.121  0.00  0.00    +0.000 C 
ATOM      4  C   UNL     1      -6.996   3.777  16.820  0.00  0.00    +0.000 C 
ATOM      5  C   UNL     1      -9.666   4.569  18.237  0.00  0.00    +0.000 C 
ATOM      6  C   UNL     1      -8.899   6.804  18.226  0.00  0.00    +0.000 C 
ATOM      7  C   UNL     1      -8.016   2.922  17.398  0.00  0.00    +0.000 C 
ATOM      8  C   UNL     1      -9.303   3.214  18.096  0.00  0.00    +0.000 C 
ATOM      9  C   UNL     1      -9.537   5.846  16.035  0.00  0.00    +0.000 C 
ATOM     10  C   UNL     1      -9.660   7.355  19.406  0.00  0.00    +0.000 C 
ATOM     11  C   UNL     1     -11.102   5.361  20.100  0.00  0.00    +0.000 C 
ATOM     12  C   UNL     1      -6.754   3.545  15.331  0.00  0.00    +0.000 C 
ATOM     13  C   UNL     1     -10.648   6.848  20.282  0.00  0.00    +0.000 C 
ATOM     14  C   UNL     1     -12.623   5.259  20.398  0.00  0.00    +0.000 C 
ATOM     15  C   UNL     1     -10.288   4.466  21.086  0.00  0.00    +0.000 C 
ENDROOT
BRANCH   4  16
ATOM     16  O   UNL     1      -5.764   3.472  17.440  0.00  0.00    +0.000 OA
ATOM     17  H   UNL     1      -5.315   2.985  16.724  0.00  0.00    +0.000 HD
ENDBRANCH   4  16
BRANCH  13  18
ATOM     18  O   UNL     1     -11.012   7.598  21.394  0.00  0.00    +0.000 OA
ATOM     19  H   UNL     1     -11.809   7.251  21.831  0.00  0.00    +0.000 HD
ENDBRANCH  13  18
BRANCH   3  20
ATOM     20  C   UNL     1      -6.320   6.225  17.096  0.00  0.00    +0.000 C 
ATOM     21  C   UNL     1      -5.248   7.318  17.067  0.00  0.00    +0.000 C 
BRANCH  21  25
ATOM     22  C   UNL     1      -4.736   9.848  17.023  0.00  0.00    +0.000 A 
ATOM     23  C   UNL     1      -3.649  10.992  17.037  0.00  0.00    +0.000 A 
ATOM     24  C   UNL     1      -6.286  10.172  16.955  0.00  0.00    +0.000 C 
ATOM     25  C   UNL     1      -4.283   8.373  17.053  0.00  0.00    +0.000 A 
ATOM     26  C   UNL     1      -3.874  12.522  17.038  0.00  0.00    +0.000 C 
ATOM     27  C   UNL     1      -6.365  11.635  16.906  0.00  0.00    +0.000 C 
ATOM     28  C   UNL     1      -5.309  12.707  16.936  0.00  0.00    +0.000 C 
ATOM     29  C   UNL     1      -2.337  10.436  17.010  0.00  0.00    +0.000 A 
ATOM     30  C   UNL     1      -2.849   7.967  17.053  0.00  0.00    +0.000 A 
ATOM     31  C   UNL     1      -6.981   9.665  18.242  0.00  0.00    +0.000 C 
ATOM     32  C   UNL     1      -6.891   9.588  15.661  0.00  0.00    +0.000 C 
ATOM     33  C   UNL     1      -2.028   8.968  17.023  0.00  0.00    +0.000 A 
ATOM     34  C   UNL     1      -3.266  13.172  18.273  0.00  0.00    +0.000 C 
ATOM     35  C   UNL     1      -2.323   6.571  17.216  0.00  0.00    +0.000 C 
BRANCH  26  36
ATOM     36  O   UNL     1      -3.244  13.091  15.919  0.00  0.00    +0.000 OA
ATOM     37  H   UNL     1      -3.858  13.818  15.711  0.00  0.00    +0.000 HD
ENDBRANCH  26  36
ENDBRANCH  21  25
ENDBRANCH   3  20
TORSDOF 5
ENDMDL
MODEL 4
REMARK VINA RESULT:      -6.0     16.237     19.345
REMARK  Name = 44234954_SipholenolL.pdbqt.pdb
REMARK  5 active torsions:
REMARK  status: ('A' for Active; 'I' for Inactive)
REMARK    1  A    between atoms: C_3  and  C_20
REMARK    2  A    between atoms: C_4  and  O_16
REMARK    3  A    between atoms: C_13  and  O_18
REMARK    4  A    between atoms: C_21  and  C_25
REMARK    5  A    between atoms: C_26  and  O_36
REMARK                            x       y       z     vdW  Elec       q    Type
REMARK                         _______ _______ _______ _____ _____    ______ ____
ROOT
ATOM      1  O   UNL     1      -1.232  17.690   3.667  0.00  0.00    +0.000 OA
ATOM      2  C   UNL     1      -1.104  17.953   6.257  0.00  0.00    +0.000 C 
ATOM      3  C   UNL     1      -0.161  17.824   7.455  0.00  0.00    +0.000 C 
ATOM      4  C   UNL     1       1.231  18.425   7.380  0.00  0.00    +0.000 C 
ATOM      5  C   UNL     1      -0.443  17.796   4.817  0.00  0.00    +0.000 C 
ATOM      6  C   UNL     1      -2.085  16.857   6.235  0.00  0.00    +0.000 C 
ATOM      7  C   UNL     1       1.621  18.512   5.985  0.00  0.00    +0.000 C 
ATOM      8  C   UNL     1       0.896  18.223   4.712  0.00  0.00    +0.000 C 
ATOM      9  C   UNL     1      -1.837  19.319   6.312  0.00  0.00    +0.000 C 
ATOM     10  C   UNL     1      -2.737  15.886   5.284  0.00  0.00    +0.000 C 
ATOM     11  C   UNL     1      -1.508  16.362   3.094  0.00  0.00    +0.000 C 
ATOM     12  C   UNL     1       1.326  19.745   8.140  0.00  0.00    +0.000 C 
ATOM     13  C   UNL     1      -2.598  15.588   3.909  0.00  0.00    +0.000 C 
ATOM     14  C   UNL     1      -2.046  16.629   1.662  0.00  0.00    +0.000 C 
ATOM     15  C   UNL     1      -0.213  15.493   3.040  0.00  0.00    +0.000 C 
ENDROOT
BRANCH   4  16
ATOM     16  O   UNL     1       2.135  17.560   8.036  0.00  0.00    +0.000 OA
ATOM     17  H   UNL     1       1.744  16.693   7.823  0.00  0.00    +0.000 HD
ENDBRANCH   4  16
BRANCH  13  18
ATOM     18  O   UNL     1      -3.261  14.484   3.387  0.00  0.00    +0.000 OA
ATOM     19  H   UNL     1      -4.192  14.442   3.669  0.00  0.00    +0.000 HD
ENDBRANCH  13  18
BRANCH   3  20
ATOM     20  C   UNL     1      -0.597  17.195   8.671  0.00  0.00    +0.000 C 
ATOM     21  C   UNL     1      -1.085  16.551   9.973  0.00  0.00    +0.000 C 
BRANCH  21  25
ATOM     22  C   UNL     1      -3.034  16.247  11.639  0.00  0.00    +0.000 A 
ATOM     23  C   UNL     1      -3.566  15.578  12.965  0.00  0.00    +0.000 A 
ATOM     24  C   UNL     1      -3.943  17.210  10.768  0.00  0.00    +0.000 C 
ATOM     25  C   UNL     1      -1.583  15.978  11.184  0.00  0.00    +0.000 A 
ATOM     26  C   UNL     1      -4.977  15.687  13.589  0.00  0.00    +0.000 C 
ATOM     27  C   UNL     1      -5.221  17.275  11.485  0.00  0.00    +0.000 C 
ATOM     28  C   UNL     1      -5.708  16.612  12.745  0.00  0.00    +0.000 C 
ATOM     29  C   UNL     1      -2.530  14.835  13.602  0.00  0.00    +0.000 A 
ATOM     30  C   UNL     1      -0.633  15.140  11.967  0.00  0.00    +0.000 A 
ATOM     31  C   UNL     1      -4.172  16.588   9.370  0.00  0.00    +0.000 C 
ATOM     32  C   UNL     1      -3.319  18.621  10.717  0.00  0.00    +0.000 C 
ATOM     33  C   UNL     1      -1.141  14.665  13.060  0.00  0.00    +0.000 A 
ATOM     34  C   UNL     1      -5.639  14.322  13.707  0.00  0.00    +0.000 C 
ATOM     35  C   UNL     1       0.741  14.718  11.535  0.00  0.00    +0.000 C 
BRANCH  26  36
ATOM     36  O   UNL     1      -4.877  16.211  14.888  0.00  0.00    +0.000 OA
ATOM     37  H   UNL     1      -5.818  16.320  15.117  0.00  0.00    +0.000 HD
ENDBRANCH  26  36
ENDBRANCH  21  25
ENDBRANCH   3  20
TORSDOF 5
ENDMDL
MODEL 5
REMARK VINA RESULT:      -5.9     22.796     26.610
REMARK  Name = 44234954_SipholenolL.pdbqt.pdb
REMARK  5 active torsions:
REMARK  status: ('A' for Active; 'I' for Inactive)
REMARK    1  A    between atoms: C_3  and  C_20
REMARK    2  A    between atoms: C_4  and  O_16
REMARK    3  A    between atoms: C_13  and  O_18
REMARK    4  A    between atoms: C_21  and  C_25
REMARK    5  A    between atoms: C_26  and  O_36
REMARK                            x       y       z     vdW  Elec       q    Type
REMARK                         _______ _______ _______ _____ _____    ______ ____
ROOT
ATOM      1  O   UNL     1     -10.457   4.278  18.560  0.00  0.00    +0.000 OA
ATOM      2  C   UNL     1      -9.167   6.510  18.176  0.00  0.00    +0.000 C 
ATOM      3  C   UNL     1      -7.807   7.185  18.367  0.00  0.00    +0.000 C 
ATOM      4  C   UNL     1      -6.543   6.448  17.965  0.00  0.00    +0.000 C 
ATOM      5  C   UNL     1      -9.233   4.953  18.499  0.00  0.00    +0.000 C 
ATOM      6  C   UNL     1     -10.157   7.035  19.128  0.00  0.00    +0.000 C 
ATOM      7  C   UNL     1      -6.806   5.022  18.008  0.00  0.00    +0.000 C 
ATOM      8  C   UNL     1      -8.046   4.231  18.264  0.00  0.00    +0.000 C 
ATOM      9  C   UNL     1      -9.662   6.729  16.722  0.00  0.00    +0.000 C 
ATOM     10  C   UNL     1     -11.255   6.574  20.053  0.00  0.00    +0.000 C 
ATOM     11  C   UNL     1     -11.088   4.030  19.868  0.00  0.00    +0.000 C 
ATOM     12  C   UNL     1      -5.990   6.943  16.631  0.00  0.00    +0.000 C 
ATOM     13  C   UNL     1     -11.771   5.316  20.441  0.00  0.00    +0.000 C 
ATOM     14  C   UNL     1     -12.177   2.954  19.608  0.00  0.00    +0.000 C 
ATOM     15  C   UNL     1     -10.043   3.513  20.905  0.00  0.00    +0.000 C 
ENDROOT
BRANCH   4  16
ATOM     16  O   UNL     1      -5.530   6.736  18.907  0.00  0.00    +0.000 OA
ATOM     17  H   UNL     1      -6.056   6.798  19.726  0.00  0.00    +0.000 HD
ENDBRANCH   4  16
BRANCH  13  18
ATOM     18  O   UNL     1     -12.701   5.258  21.472  0.00  0.00    +0.000 OA
ATOM     19  H   UNL     1     -13.453   4.676  21.262  0.00  0.00    +0.000 HD
ENDBRANCH  13  18
BRANCH   3  20
ATOM     20  C   UNL     1      -7.716   8.531  18.864  0.00  0.00    +0.000 C 
ATOM     21  C   UNL     1      -7.654   9.971  19.384  0.00  0.00    +0.000 C 
BRANCH  21  25
ATOM     22  C   UNL     1      -8.031  11.616  21.338  0.00  0.00    +0.000 A 
ATOM     23  C   UNL     1      -7.986  13.105  21.858  0.00  0.00    +0.000 A 
ATOM     24  C   UNL     1      -8.485  10.420  22.273  0.00  0.00    +0.000 C 
ATOM     25  C   UNL     1      -7.646  11.314  19.873  0.00  0.00    +0.000 A 
ATOM     26  C   UNL     1      -8.302  13.629  23.278  0.00  0.00    +0.000 C 
ATOM     27  C   UNL     1      -8.806  11.046  23.559  0.00  0.00    +0.000 C 
ATOM     28  C   UNL     1      -8.740  12.472  24.034  0.00  0.00    +0.000 C 
ATOM     29  C   UNL     1      -7.633  13.994  20.801  0.00  0.00    +0.000 A 
ATOM     30  C   UNL     1      -7.268  12.377  18.901  0.00  0.00    +0.000 A 
ATOM     31  C   UNL     1      -7.308   9.432  22.464  0.00  0.00    +0.000 C 
ATOM     32  C   UNL     1      -9.755   9.755  21.701  0.00  0.00    +0.000 C 
ATOM     33  C   UNL     1      -7.297  13.571  19.401  0.00  0.00    +0.000 A 
ATOM     34  C   UNL     1      -7.100  14.334  23.890  0.00  0.00    +0.000 C 
ATOM     35  C   UNL     1      -6.753  12.162  17.508  0.00  0.00    +0.000 C 
BRANCH  26  36
ATOM     36  O   UNL     1      -9.342  14.571  23.211  0.00  0.00    +0.000 OA
ATOM     37  H   UNL     1     -10.094  14.040  23.534  0.00  0.00    +0.000 HD
ENDBRANCH  26  36
ENDBRANCH  21  25
ENDBRANCH   3  20
TORSDOF 5
ENDMDL
MODEL 6
REMARK VINA RESULT:      -5.7      2.285      3.224
REMARK  Name = 44234954_SipholenolL.pdbqt.pdb
REMARK  5 active torsions:
REMARK  status: ('A' for Active; 'I' for Inactive)
REMARK    1  A    between atoms: C_3  and  C_20
REMARK    2  A    between atoms: C_4  and  O_16
REMARK    3  A    between atoms: C_13  and  O_18
REMARK    4  A    between atoms: C_21  and  C_25
REMARK    5  A    between atoms: C_26  and  O_36
REMARK                            x       y       z     vdW  Elec       q    Type
REMARK                         _______ _______ _______ _____ _____    ______ ____
ROOT
ATOM      1  O   UNL     1     -12.416  13.783  -7.638  0.00  0.00    +0.000 OA
ATOM      2  C   UNL     1     -14.570  12.486  -6.954  0.00  0.00    +0.000 C 
ATOM      3  C   UNL     1     -16.058  12.664  -6.642  0.00  0.00    +0.000 C 
ATOM      4  C   UNL     1     -16.922  13.503  -7.566  0.00  0.00    +0.000 C 
ATOM      5  C   UNL     1     -13.809  13.767  -7.514  0.00  0.00    +0.000 C 
ATOM      6  C   UNL     1     -13.801  12.217  -5.730  0.00  0.00    +0.000 C 
ATOM      7  C   UNL     1     -16.070  14.453  -8.258  0.00  0.00    +0.000 C 
ATOM      8  C   UNL     1     -14.591  14.654  -8.281  0.00  0.00    +0.000 C 
ATOM      9  C   UNL     1     -14.382  11.325  -7.965  0.00  0.00    +0.000 C 
ATOM     10  C   UNL     1     -12.516  12.604  -5.043  0.00  0.00    +0.000 C 
ATOM     11  C   UNL     1     -11.598  14.420  -6.592  0.00  0.00    +0.000 C 
ATOM     12  C   UNL     1     -17.777  12.640  -8.490  0.00  0.00    +0.000 C 
ATOM     13  C   UNL     1     -11.472  13.517  -5.319  0.00  0.00    +0.000 C 
ATOM     14  C   UNL     1     -10.190  14.607  -7.218  0.00  0.00    +0.000 C 
ATOM     15  C   UNL     1     -12.199  15.797  -6.171  0.00  0.00    +0.000 C 
ENDROOT
BRANCH   4  16
ATOM     16  O   UNL     1     -17.848  14.230  -6.786  0.00  0.00    +0.000 OA
ATOM     17  H   UNL     1     -17.433  15.113  -6.788  0.00  0.00    +0.000 HD
ENDBRANCH   4  16
BRANCH  13  18
ATOM     18  O   UNL     1     -10.498  13.739  -4.353  0.00  0.00    +0.000 OA
ATOM     19  H   UNL     1      -9.647  14.012  -4.739  0.00  0.00    +0.000 HD
ENDBRANCH  13  18
BRANCH   3  20
ATOM     20  C   UNL     1     -16.660  11.997  -5.520  0.00  0.00    +0.000 C 
ATOM     21  C   UNL     1     -17.285  11.256  -4.333  0.00  0.00    +0.000 C 
BRANCH  21  25
ATOM     22  C   UNL     1     -16.904   9.804  -2.233  0.00  0.00    +0.000 A 
ATOM     23  C   UNL     1     -17.534   9.034  -1.009  0.00  0.00    +0.000 A 
ATOM     24  C   UNL     1     -15.338   9.836  -2.481  0.00  0.00    +0.000 C 
ATOM     25  C   UNL     1     -17.833  10.529  -3.231  0.00  0.00    +0.000 A 
ATOM     26  C   UNL     1     -16.800   8.268   0.116  0.00  0.00    +0.000 C 
ATOM     27  C   UNL     1     -14.766   9.040  -1.392  0.00  0.00    +0.000 C 
ATOM     28  C   UNL     1     -15.392   8.325  -0.225  0.00  0.00    +0.000 C 
ATOM     29  C   UNL     1     -18.958   9.084  -1.065  0.00  0.00    +0.000 A 
ATOM     30  C   UNL     1     -19.317  10.503  -3.118  0.00  0.00    +0.000 A 
ATOM     31  C   UNL     1     -14.824  11.292  -2.376  0.00  0.00    +0.000 C 
ATOM     32  C   UNL     1     -15.005   9.165  -3.831  0.00  0.00    +0.000 C 
ATOM     33  C   UNL     1     -19.748   9.815  -2.110  0.00  0.00    +0.000 A 
ATOM     34  C   UNL     1     -17.116   8.855   1.485  0.00  0.00    +0.000 C 
ATOM     35  C   UNL     1     -20.284  11.286  -3.959  0.00  0.00    +0.000 C 
BRANCH  26  36
ATOM     36  O   UNL     1     -17.229   6.930   0.132  0.00  0.00    +0.000 OA
ATOM     37  H   UNL     1     -16.742   6.589   0.904  0.00  0.00    +0.000 HD
ENDBRANCH  26  36
ENDBRANCH  21  25
ENDBRANCH   3  20
TORSDOF 5
ENDMDL
MODEL 7
REMARK VINA RESULT:      -5.6     17.269     20.534
REMARK  Name = 44234954_SipholenolL.pdbqt.pdb
REMARK  5 active torsions:
REMARK  status: ('A' for Active; 'I' for Inactive)
REMARK    1  A    between atoms: C_3  and  C_20
REMARK    2  A    between atoms: C_4  and  O_16
REMARK    3  A    between atoms: C_13  and  O_18
REMARK    4  A    between atoms: C_21  and  C_25
REMARK    5  A    between atoms: C_26  and  O_36
REMARK                            x       y       z     vdW  Elec       q    Type
REMARK                         _______ _______ _______ _____ _____    ______ ____
ROOT
ATOM      1  O   UNL     1     -22.551  21.931  15.932  0.00  0.00    +0.000 OA
ATOM      2  C   UNL     1     -21.654  21.414  13.540  0.00  0.00    +0.000 C 
ATOM      3  C   UNL     1     -21.792  21.812  12.069  0.00  0.00    +0.000 C 
ATOM      4  C   UNL     1     -21.800  23.282  11.689  0.00  0.00    +0.000 C 
ATOM      5  C   UNL     1     -22.435  22.317  14.592  0.00  0.00    +0.000 C 
ATOM      6  C   UNL     1     -22.265  20.100  13.792  0.00  0.00    +0.000 C 
ATOM      7  C   UNL     1     -22.252  24.052  12.833  0.00  0.00    +0.000 C 
ATOM      8  C   UNL     1     -22.586  23.673  14.238  0.00  0.00    +0.000 C 
ATOM      9  C   UNL     1     -20.155  21.387  13.937  0.00  0.00    +0.000 C 
ATOM     10  C   UNL     1     -23.143  19.386  14.789  0.00  0.00    +0.000 C 
ATOM     11  C   UNL     1     -23.782  21.269  16.396  0.00  0.00    +0.000 C 
ATOM     12  C   UNL     1     -20.458  23.734  11.121  0.00  0.00    +0.000 C 
ATOM     13  C   UNL     1     -23.836  19.766  15.961  0.00  0.00    +0.000 C 
ATOM     14  C   UNL     1     -23.737  21.343  17.946  0.00  0.00    +0.000 C 
ATOM     15  C   UNL     1     -25.050  21.995  15.848  0.00  0.00    +0.000 C 
ENDROOT
BRANCH   4  16
ATOM     16  O   UNL     1     -22.724  23.474  10.638  0.00  0.00    +0.000 OA
ATOM     17  H   UNL     1     -23.464  22.916  10.941  0.00  0.00    +0.000 HD
ENDBRANCH   4  16
BRANCH  13  18
ATOM     18  O   UNL     1     -24.710  18.861  16.551  0.00  0.00    +0.000 OA
ATOM     19  H   UNL     1     -24.779  18.030  16.048  0.00  0.00    +0.000 HD
ENDBRANCH  13  18
BRANCH   3  20
ATOM     20  C   UNL     1     -21.853  20.813  11.038  0.00  0.00    +0.000 C 
ATOM     21  C   UNL     1     -21.950  19.739   9.949  0.00  0.00    +0.000 C 
BRANCH  21  25
ATOM     22  C   UNL     1     -22.450  17.285   9.320  0.00  0.00    +0.000 A 
ATOM     23  C   UNL     1     -22.628  16.207   8.181  0.00  0.00    +0.000 A 
ATOM     24  C   UNL     1     -22.607  16.913  10.853  0.00  0.00    +0.000 C 
ATOM     25  C   UNL     1     -22.091  18.738   8.939  0.00  0.00    +0.000 A 
ATOM     26  C   UNL     1     -23.008  14.716   8.331  0.00  0.00    +0.000 C 
ATOM     27  C   UNL     1     -22.909  15.478  10.864  0.00  0.00    +0.000 C 
ATOM     28  C   UNL     1     -23.088  14.473   9.758  0.00  0.00    +0.000 C 
ATOM     29  C   UNL     1     -22.347  16.777   6.905  0.00  0.00    +0.000 A 
ATOM     30  C   UNL     1     -21.860  19.170   7.532  0.00  0.00    +0.000 A 
ATOM     31  C   UNL     1     -23.800  17.691  11.459  0.00  0.00    +0.000 C 
ATOM     32  C   UNL     1     -21.276  17.156  11.594  0.00  0.00    +0.000 C 
ATOM     33  C   UNL     1     -21.987  18.214   6.669  0.00  0.00    +0.000 A 
ATOM     34  C   UNL     1     -24.297  14.395   7.587  0.00  0.00    +0.000 C 
ATOM     35  C   UNL     1     -21.642  20.579   7.063  0.00  0.00    +0.000 C 
BRANCH  26  36
ATOM     36  O   UNL     1     -21.998  13.916   7.772  0.00  0.00    +0.000 OA
ATOM     37  H   UNL     1     -21.200  14.402   8.051  0.00  0.00    +0.000 HD
ENDBRANCH  26  36
ENDBRANCH  21  25
ENDBRANCH   3  20
TORSDOF 5
ENDMDL
MODEL 8
REMARK VINA RESULT:      -5.4     22.270     25.551
REMARK  Name = 44234954_SipholenolL.pdbqt.pdb
REMARK  5 active torsions:
REMARK  status: ('A' for Active; 'I' for Inactive)
REMARK    1  A    between atoms: C_3  and  C_20
REMARK    2  A    between atoms: C_4  and  O_16
REMARK    3  A    between atoms: C_13  and  O_18
REMARK    4  A    between atoms: C_21  and  C_25
REMARK    5  A    between atoms: C_26  and  O_36
REMARK                            x       y       z     vdW  Elec       q    Type
REMARK                         _______ _______ _______ _____ _____    ______ ____
ROOT
ATOM      1  O   UNL     1     -10.026   3.248  20.362  0.00  0.00    +0.000 OA
ATOM      2  C   UNL     1      -8.716   5.164  19.177  0.00  0.00    +0.000 C 
ATOM      3  C   UNL     1      -8.347   5.725  17.802  0.00  0.00    +0.000 C 
ATOM      4  C   UNL     1      -9.424   5.881  16.744  0.00  0.00    +0.000 C 
ATOM      5  C   UNL     1      -9.771   3.972  19.193  0.00  0.00    +0.000 C 
ATOM      6  C   UNL     1      -7.557   4.520  19.814  0.00  0.00    +0.000 C 
ATOM      7  C   UNL     1     -10.490   4.939  17.029  0.00  0.00    +0.000 C 
ATOM      8  C   UNL     1     -10.727   3.991  18.157  0.00  0.00    +0.000 C 
ATOM      9  C   UNL     1      -9.252   6.304  20.082  0.00  0.00    +0.000 C 
ATOM     10  C   UNL     1      -7.184   3.284  20.594  0.00  0.00    +0.000 C 
ATOM     11  C   UNL     1      -9.364   1.950  20.574  0.00  0.00    +0.000 C 
ATOM     12  C   UNL     1      -9.887   7.328  16.607  0.00  0.00    +0.000 C 
ATOM     13  C   UNL     1      -7.869   2.120  21.009  0.00  0.00    +0.000 C 
ATOM     14  C   UNL     1     -10.148   1.264  21.726  0.00  0.00    +0.000 C 
ATOM     15  C   UNL     1      -9.412   1.077  19.282  0.00  0.00    +0.000 C 
ENDROOT
BRANCH   4  16
ATOM     16  O   UNL     1      -8.874   5.554  15.484  0.00  0.00    +0.000 OA
ATOM     17  H   UNL     1      -9.685   5.374  14.973  0.00  0.00    +0.000 HD
ENDBRANCH   4  16
BRANCH  13  18
ATOM     18  O   UNL     1      -7.148   1.081  21.584  0.00  0.00    +0.000 OA
ATOM     19  H   UNL     1      -7.723   0.394  21.964  0.00  0.00    +0.000 HD
ENDBRANCH  13  18
BRANCH   3  20
ATOM     20  C   UNL     1      -7.007   6.164  17.521  0.00  0.00    +0.000 C 
ATOM     21  C   UNL     1      -5.567   6.604  17.239  0.00  0.00    +0.000 C 
BRANCH  21  25
ATOM     22  C   UNL     1      -3.267   6.004  16.230  0.00  0.00    +0.000 A 
ATOM     23  C   UNL     1      -1.780   6.443  15.941  0.00  0.00    +0.000 A 
ATOM     24  C   UNL     1      -3.820   4.587  15.784  0.00  0.00    +0.000 C 
ATOM     25  C   UNL     1      -4.207   6.967  16.987  0.00  0.00    +0.000 A 
ATOM     26  C   UNL     1      -0.683   5.657  15.185  0.00  0.00    +0.000 C 
ATOM     27  C   UNL     1      -2.685   3.925  15.135  0.00  0.00    +0.000 C 
ATOM     28  C   UNL     1      -1.275   4.374  14.858  0.00  0.00    +0.000 C 
ATOM     29  C   UNL     1      -1.512   7.717  16.521  0.00  0.00    +0.000 A 
ATOM     30  C   UNL     1      -3.763   8.292  17.502  0.00  0.00    +0.000 A 
ATOM     31  C   UNL     1      -4.961   4.773  14.755  0.00  0.00    +0.000 C 
ATOM     32  C   UNL     1      -4.242   3.771  17.025  0.00  0.00    +0.000 C 
ATOM     33  C   UNL     1      -2.519   8.553  17.256  0.00  0.00    +0.000 A 
ATOM     34  C   UNL     1      -0.191   6.425  13.966  0.00  0.00    +0.000 C 
ATOM     35  C   UNL     1      -4.638   9.340  18.125  0.00  0.00    +0.000 C 
BRANCH  26  36
ATOM     36  O   UNL     1       0.424   5.466  16.027  0.00  0.00    +0.000 OA
ATOM     37  H   UNL     1       1.092   5.157  15.388  0.00  0.00    +0.000 HD
ENDBRANCH  26  36
ENDBRANCH  21  25
ENDBRANCH   3  20
TORSDOF 5
ENDMDL
MODEL 9
REMARK VINA RESULT:      -5.1     22.148     25.132
REMARK  Name = 44234954_SipholenolL.pdbqt.pdb
REMARK  5 active torsions:
REMARK  status: ('A' for Active; 'I' for Inactive)
REMARK    1  A    between atoms: C_3  and  C_20
REMARK    2  A    between atoms: C_4  and  O_16
REMARK    3  A    between atoms: C_13  and  O_18
REMARK    4  A    between atoms: C_21  and  C_25
REMARK    5  A    between atoms: C_26  and  O_36
REMARK                            x       y       z     vdW  Elec       q    Type
REMARK                         _______ _______ _______ _____ _____    ______ ____
ROOT
ATOM      1  O   UNL     1      -8.609   8.666  19.606  0.00  0.00    +0.000 OA
ATOM      2  C   UNL     1      -7.813   6.937  17.826  0.00  0.00    +0.000 C 
ATOM      3  C   UNL     1      -8.064   5.524  17.295  0.00  0.00    +0.000 C 
ATOM      4  C   UNL     1      -9.486   5.068  17.023  0.00  0.00    +0.000 C 
ATOM      5  C   UNL     1      -8.850   7.481  18.904  0.00  0.00    +0.000 C 
ATOM      6  C   UNL     1      -6.557   7.001  18.589  0.00  0.00    +0.000 C 
ATOM      7  C   UNL     1     -10.387   5.846  17.853  0.00  0.00    +0.000 C 
ATOM      8  C   UNL     1     -10.168   6.995  18.780  0.00  0.00    +0.000 C 
ATOM      9  C   UNL     1      -7.766   7.941  16.644  0.00  0.00    +0.000 C 
ATOM     10  C   UNL     1      -5.986   7.574  19.862  0.00  0.00    +0.000 C 
ATOM     11  C   UNL     1      -8.048   8.605  20.967  0.00  0.00    +0.000 C 
ATOM     12  C   UNL     1      -9.822   5.099  15.535  0.00  0.00    +0.000 C 
ATOM     13  C   UNL     1      -6.512   8.303  20.953  0.00  0.00    +0.000 C 
ATOM     14  C   UNL     1      -8.279  10.014  21.577  0.00  0.00    +0.000 C 
ATOM     15  C   UNL     1      -8.765   7.513  21.821  0.00  0.00    +0.000 C 
ENDROOT
BRANCH   4  16
ATOM     16  O   UNL     1      -9.607   3.711  17.395  0.00  0.00    +0.000 OA
ATOM     17  H   UNL     1      -8.677   3.422  17.335  0.00  0.00    +0.000 HD
ENDBRANCH   4  16
BRANCH  13  18
ATOM     18  O   UNL     1      -5.708   8.526  22.065  0.00  0.00    +0.000 OA
ATOM     19  H   UNL     1      -5.251   9.385  22.026  0.00  0.00    +0.000 HD
ENDBRANCH  13  18
BRANCH   3  20
ATOM     20  C   UNL     1      -6.967   4.645  16.993  0.00  0.00    +0.000 C 
ATOM     21  C   UNL     1      -5.820   3.680  16.676  0.00  0.00    +0.000 C 
BRANCH  21  25
ATOM     22  C   UNL     1      -3.306   3.191  16.351  0.00  0.00    +0.000 A 
ATOM     23  C   UNL     1      -2.181   2.131  16.036  0.00  0.00    +0.000 A 
ATOM     24  C   UNL     1      -2.963   4.714  16.627  0.00  0.00    +0.000 C 
ATOM     25  C   UNL     1      -4.784   2.745  16.368  0.00  0.00    +0.000 A 
ATOM     26  C   UNL     1      -0.651   2.348  15.992  0.00  0.00    +0.000 C 
ATOM     27  C   UNL     1      -1.504   4.801  16.504  0.00  0.00    +0.000 C 
ATOM     28  C   UNL     1      -0.450   3.767  16.217  0.00  0.00    +0.000 C 
ATOM     29  C   UNL     1      -2.758   0.862  15.739  0.00  0.00    +0.000 A 
ATOM     30  C   UNL     1      -5.211   1.352  16.059  0.00  0.00    +0.000 A 
ATOM     31  C   UNL     1      -3.378   5.088  18.071  0.00  0.00    +0.000 C 
ATOM     32  C   UNL     1      -3.617   5.606  15.551  0.00  0.00    +0.000 C 
ATOM     33  C   UNL     1      -4.228   0.560  15.773  0.00  0.00    +0.000 A 
ATOM     34  C   UNL     1       0.065   1.467  17.006  0.00  0.00    +0.000 C 
ATOM     35  C   UNL     1      -6.602   0.803  16.184  0.00  0.00    +0.000 C 
BRANCH  26  36
ATOM     36  O   UNL     1      -0.163   1.998  14.722  0.00  0.00    +0.000 OA
ATOM     37  H   UNL     1      -0.674   2.603  14.154  0.00  0.00    +0.000 HD
ENDBRANCH  26  36
ENDBRANCH  21  25
ENDBRANCH   3  20
TORSDOF 5
ENDMDL
