MODEL 1
REMARK VINA RESULT:      -6.0      0.000      0.000
REMARK  Name = 442793_6gingerol.pdbqt.pdb
REMARK  7 active torsions:
REMARK  status: ('A' for Active; 'I' for Inactive)
REMARK    1  A    between atoms: C_1  and  C_3
REMARK    2  A    between atoms: C_5  and  O_6
REMARK    3  A    between atoms: C_5  and  C_8
REMARK    4  A    between atoms: C_9  and  C_10
REMARK    5  A    between atoms: C_13  and  C_14
REMARK    6  A    between atoms: C_17  and  O_20
REMARK    7  A    between atoms: C_19  and  O_22
REMARK                            x       y       z     vdW  Elec       q    Type
REMARK                         _______ _______ _______ _____ _____    ______ ____
ROOT
ATOM      1  C   UNL     1     -22.467  14.489   8.648  0.00  0.00    +0.000 C 
ATOM      2  C   UNL     1     -21.973  15.484   9.705  0.00  0.00    +0.000 C 
ENDROOT
BRANCH   2   3
ATOM      3  C   UNL     1     -21.517  16.409  10.687  0.00  0.00    +0.000 A 
ATOM      4  C   UNL     1     -22.233  17.582  10.921  0.00  0.00    +0.000 A 
ATOM      5  C   UNL     1     -20.358  16.140  11.409  0.00  0.00    +0.000 A 
ATOM      6  C   UNL     1     -21.798  18.500  11.881  0.00  0.00    +0.000 A 
ATOM      7  C   UNL     1     -19.913  17.045  12.369  0.00  0.00    +0.000 A 
ATOM      8  C   UNL     1     -20.632  18.217  12.600  0.00  0.00    +0.000 A 
BRANCH   6   9
ATOM      9  O   UNL     1     -22.441  19.677  12.175  0.00  0.00    +0.000 OA
ATOM     10  C   UNL     1     -23.655  19.548  12.866  0.00  0.00    +0.000 C 
ENDBRANCH   6   9
BRANCH   8  11
ATOM     11  O   UNL     1     -20.189  19.102  13.544  0.00  0.00    +0.000 OA
ATOM     12  H   UNL     1     -19.294  18.836  13.826  0.00  0.00    +0.000 HD
ENDBRANCH   8  11
ENDBRANCH   2   3
BRANCH   1  14
ATOM     13  O   UNL     1     -23.493  13.953   6.646  0.00  0.00    +0.000 OA
ATOM     14  C   UNL     1     -22.934  13.553   7.656  0.00  0.00    +0.000 C 
ATOM     15  C   UNL     1     -22.739  12.145   7.866  0.00  0.00    +0.000 C 
ATOM     16  C   UNL     1     -22.552  10.761   8.067  0.00  0.00    +0.000 C 
BRANCH  16  17
ATOM     17  O   UNL     1     -21.698  10.378   9.073  0.00  0.00    +0.000 OA
ATOM     18  H   UNL     1     -22.151  10.325   9.932  0.00  0.00    +0.000 HD
ENDBRANCH  16  17
BRANCH  16  19
ATOM     19  C   UNL     1     -23.195   9.761   7.296  0.00  0.00    +0.000 C 
ATOM     20  C   UNL     1     -23.889   8.674   6.469  0.00  0.00    +0.000 C 
BRANCH  20  21
ATOM     21  C   UNL     1     -24.580   7.582   5.647  0.00  0.00    +0.000 C 
ATOM     22  C   UNL     1     -25.270   6.489   4.824  0.00  0.00    +0.000 C 
ATOM     23  C   UNL     1     -25.955   5.392   4.004  0.00  0.00    +0.000 C 
ENDBRANCH  20  21
ENDBRANCH  16  19
ENDBRANCH   1  14
TORSDOF 7
ENDMDL
MODEL 2
REMARK VINA RESULT:      -5.5      2.967     11.551
REMARK  Name = 442793_6gingerol.pdbqt.pdb
REMARK  7 active torsions:
REMARK  status: ('A' for Active; 'I' for Inactive)
REMARK    1  A    between atoms: C_1  and  C_3
REMARK    2  A    between atoms: C_5  and  O_6
REMARK    3  A    between atoms: C_5  and  C_8
REMARK    4  A    between atoms: C_9  and  C_10
REMARK    5  A    between atoms: C_13  and  C_14
REMARK    6  A    between atoms: C_17  and  O_20
REMARK    7  A    between atoms: C_19  and  O_22
REMARK                            x       y       z     vdW  Elec       q    Type
REMARK                         _______ _______ _______ _____ _____    ______ ____
ROOT
ATOM      1  C   UNL     1     -23.214   9.726   7.060  0.00  0.00    +0.000 C 
ATOM      2  C   UNL     1     -24.102   8.846   6.172  0.00  0.00    +0.000 C 
ENDROOT
BRANCH   2   3
ATOM      3  C   UNL     1     -24.929   8.031   5.346  0.00  0.00    +0.000 A 
ATOM      4  C   UNL     1     -25.636   6.969   5.906  0.00  0.00    +0.000 A 
ATOM      5  C   UNL     1     -25.026   8.298   3.983  0.00  0.00    +0.000 A 
ATOM      6  C   UNL     1     -26.451   6.160   5.108  0.00  0.00    +0.000 A 
ATOM      7  C   UNL     1     -25.834   7.500   3.177  0.00  0.00    +0.000 A 
ATOM      8  C   UNL     1     -26.540   6.438   3.741  0.00  0.00    +0.000 A 
BRANCH   6   9
ATOM      9  O   UNL     1     -27.180   5.095   5.577  0.00  0.00    +0.000 OA
ATOM     10  C   UNL     1     -26.456   4.134   6.298  0.00  0.00    +0.000 C 
ENDBRANCH   6   9
BRANCH   8  11
ATOM     11  O   UNL     1     -27.331   5.659   2.944  0.00  0.00    +0.000 OA
ATOM     12  H   UNL     1     -26.836   5.438   2.133  0.00  0.00    +0.000 HD
ENDBRANCH   8  11
ENDBRANCH   2   3
BRANCH   1  14
ATOM     13  O   UNL     1     -21.530  10.051   8.611  0.00  0.00    +0.000 OA
ATOM     14  C   UNL     1     -22.381  10.555   7.894  0.00  0.00    +0.000 C 
ATOM     15  C   UNL     1     -22.562  11.980   7.879  0.00  0.00    +0.000 C 
ATOM     16  C   UNL     1     -22.736  13.381   7.869  0.00  0.00    +0.000 C 
BRANCH  16  17
ATOM     17  O   UNL     1     -23.512  13.914   6.868  0.00  0.00    +0.000 OA
ATOM     18  H   UNL     1     -24.434  14.040   7.153  0.00  0.00    +0.000 HD
ENDBRANCH  16  17
BRANCH  16  19
ATOM     19  C   UNL     1     -22.161  14.250   8.827  0.00  0.00    +0.000 C 
ATOM     20  C   UNL     1     -21.535  15.183   9.870  0.00  0.00    +0.000 C 
BRANCH  20  21
ATOM     21  C   UNL     1     -20.908  16.110  10.916  0.00  0.00    +0.000 C 
ATOM     22  C   UNL     1     -20.280  17.037  11.961  0.00  0.00    +0.000 C 
ATOM     23  C   UNL     1     -19.645  17.966  13.001  0.00  0.00    +0.000 C 
ENDBRANCH  20  21
ENDBRANCH  16  19
ENDBRANCH   1  14
TORSDOF 7
ENDMDL
MODEL 3
REMARK VINA RESULT:      -4.9      2.919     11.204
REMARK  Name = 442793_6gingerol.pdbqt.pdb
REMARK  7 active torsions:
REMARK  status: ('A' for Active; 'I' for Inactive)
REMARK    1  A    between atoms: C_1  and  C_3
REMARK    2  A    between atoms: C_5  and  O_6
REMARK    3  A    between atoms: C_5  and  C_8
REMARK    4  A    between atoms: C_9  and  C_10
REMARK    5  A    between atoms: C_13  and  C_14
REMARK    6  A    between atoms: C_17  and  O_20
REMARK    7  A    between atoms: C_19  and  O_22
REMARK                            x       y       z     vdW  Elec       q    Type
REMARK                         _______ _______ _______ _____ _____    ______ ____
ROOT
ATOM      1  C   UNL     1     -23.851  11.323   6.338  0.00  0.00    +0.000 C 
ATOM      2  C   UNL     1     -24.216   9.913   5.858  0.00  0.00    +0.000 C 
ENDROOT
BRANCH   2   3
ATOM      3  C   UNL     1     -24.558   8.604   5.414  0.00  0.00    +0.000 A 
ATOM      4  C   UNL     1     -24.469   7.528   6.295  0.00  0.00    +0.000 A 
ATOM      5  C   UNL     1     -24.979   8.404   4.102  0.00  0.00    +0.000 A 
ATOM      6  C   UNL     1     -24.801   6.237   5.873  0.00  0.00    +0.000 A 
ATOM      7  C   UNL     1     -25.313   7.124   3.669  0.00  0.00    +0.000 A 
ATOM      8  C   UNL     1     -25.222   6.049   4.553  0.00  0.00    +0.000 A 
BRANCH   6   9
ATOM      9  O   UNL     1     -24.741   5.122   6.673  0.00  0.00    +0.000 OA
ATOM     10  C   UNL     1     -25.828   4.940   7.541  0.00  0.00    +0.000 C 
ENDBRANCH   6   9
BRANCH   8  11
ATOM     11  O   UNL     1     -25.551   4.794   4.122  0.00  0.00    +0.000 OA
ATOM     12  H   UNL     1     -26.034   4.871   3.277  0.00  0.00    +0.000 HD
ENDBRANCH   8  11
ENDBRANCH   2   3
BRANCH   1  14
ATOM     13  O   UNL     1     -23.204  13.516   5.985  0.00  0.00    +0.000 OA
ATOM     14  C   UNL     1     -23.510  12.649   6.790  0.00  0.00    +0.000 C 
ATOM     15  C   UNL     1     -23.530  12.943   8.196  0.00  0.00    +0.000 C 
ATOM     16  C   UNL     1     -23.546  13.237   9.577  0.00  0.00    +0.000 C 
BRANCH  16  17
ATOM     17  O   UNL     1     -24.142  12.322  10.410  0.00  0.00    +0.000 OA
ATOM     18  H   UNL     1     -25.107  12.298  10.290  0.00  0.00    +0.000 HD
ENDBRANCH  16  17
BRANCH  16  19
ATOM     19  C   UNL     1     -22.984  14.411  10.136  0.00  0.00    +0.000 C 
ATOM     20  C   UNL     1     -22.385  15.684  10.742  0.00  0.00    +0.000 C 
BRANCH  20  21
ATOM     21  C   UNL     1     -21.792  16.960  11.348  0.00  0.00    +0.000 C 
ATOM     22  C   UNL     1     -21.197  18.236  11.952  0.00  0.00    +0.000 C 
ATOM     23  C   UNL     1     -20.600  19.514  12.550  0.00  0.00    +0.000 C 
ENDBRANCH  20  21
ENDBRANCH  16  19
ENDBRANCH   1  14
TORSDOF 7
ENDMDL
MODEL 4
REMARK VINA RESULT:      -4.8     17.393     18.872
REMARK  Name = 442793_6gingerol.pdbqt.pdb
REMARK  7 active torsions:
REMARK  status: ('A' for Active; 'I' for Inactive)
REMARK    1  A    between atoms: C_1  and  C_3
REMARK    2  A    between atoms: C_5  and  O_6
REMARK    3  A    between atoms: C_5  and  C_8
REMARK    4  A    between atoms: C_9  and  C_10
REMARK    5  A    between atoms: C_13  and  C_14
REMARK    6  A    between atoms: C_17  and  O_20
REMARK    7  A    between atoms: C_19  and  O_22
REMARK                            x       y       z     vdW  Elec       q    Type
REMARK                         _______ _______ _______ _____ _____    ______ ____
ROOT
ATOM      1  C   UNL     1      -6.561  14.085  14.704  0.00  0.00    +0.000 C 
ATOM      2  C   UNL     1      -5.817  14.606  13.468  0.00  0.00    +0.000 C 
ENDROOT
BRANCH   2   3
ATOM      3  C   UNL     1      -5.127  15.091  12.321  0.00  0.00    +0.000 A 
ATOM      4  C   UNL     1      -5.746  16.012  11.478  0.00  0.00    +0.000 A 
ATOM      5  C   UNL     1      -3.837  14.645  12.046  0.00  0.00    +0.000 A 
ATOM      6  C   UNL     1      -5.082  16.498  10.347  0.00  0.00    +0.000 A 
ATOM      7  C   UNL     1      -3.164  15.120  10.923  0.00  0.00    +0.000 A 
ATOM      8  C   UNL     1      -3.787  16.041  10.082  0.00  0.00    +0.000 A 
BRANCH   6   9
ATOM      9  O   UNL     1      -5.617  17.404   9.464  0.00  0.00    +0.000 OA
ATOM     10  C   UNL     1      -5.746  18.715   9.946  0.00  0.00    +0.000 C 
ENDBRANCH   6   9
BRANCH   8  11
ATOM     11  O   UNL     1      -3.120  16.504   8.981  0.00  0.00    +0.000 OA
ATOM     12  H   UNL     1      -3.269  17.465   8.907  0.00  0.00    +0.000 HD
ENDBRANCH   8  11
ENDBRANCH   2   3
BRANCH   1  14
ATOM     13  O   UNL     1      -8.188  14.240  16.341  0.00  0.00    +0.000 OA
ATOM     14  C   UNL     1      -7.262  13.599  15.866  0.00  0.00    +0.000 C 
ATOM     15  C   UNL     1      -6.862  12.355  16.463  0.00  0.00    +0.000 C 
ATOM     16  C   UNL     1      -6.472  11.135  17.055  0.00  0.00    +0.000 C 
BRANCH  16  17
ATOM     17  O   UNL     1      -5.614  10.332  16.342  0.00  0.00    +0.000 OA
ATOM     18  H   UNL     1      -4.728  10.726  16.268  0.00  0.00    +0.000 HD
ENDBRANCH  16  17
BRANCH  16  19
ATOM     19  C   UNL     1      -6.913  10.705  18.331  0.00  0.00    +0.000 C 
ATOM     20  C   UNL     1      -7.394  10.232  19.707  0.00  0.00    +0.000 C 
BRANCH  20  21
ATOM     21  C   UNL     1      -7.879   9.755  21.079  0.00  0.00    +0.000 C 
ATOM     22  C   UNL     1      -8.365   9.278  22.451  0.00  0.00    +0.000 C 
ATOM     23  C   UNL     1      -8.859   8.804  23.822  0.00  0.00    +0.000 C 
ENDBRANCH  20  21
ENDBRANCH  16  19
ENDBRANCH   1  14
TORSDOF 7
ENDMDL
MODEL 5
REMARK VINA RESULT:      -4.7      2.809     11.156
REMARK  Name = 442793_6gingerol.pdbqt.pdb
REMARK  7 active torsions:
REMARK  status: ('A' for Active; 'I' for Inactive)
REMARK    1  A    between atoms: C_1  and  C_3
REMARK    2  A    between atoms: C_5  and  O_6
REMARK    3  A    between atoms: C_5  and  C_8
REMARK    4  A    between atoms: C_9  and  C_10
REMARK    5  A    between atoms: C_13  and  C_14
REMARK    6  A    between atoms: C_17  and  O_20
REMARK    7  A    between atoms: C_19  and  O_22
REMARK                            x       y       z     vdW  Elec       q    Type
REMARK                         _______ _______ _______ _____ _____    ______ ____
ROOT
ATOM      1  C   UNL     1     -23.086  11.558   7.451  0.00  0.00    +0.000 C 
ATOM      2  C   UNL     1     -23.642  10.665   6.335  0.00  0.00    +0.000 C 
ENDROOT
BRANCH   2   3
ATOM      3  C   UNL     1     -24.155   9.836   5.297  0.00  0.00    +0.000 A 
ATOM      4  C   UNL     1     -24.597   8.547   5.594  0.00  0.00    +0.000 A 
ATOM      5  C   UNL     1     -24.215  10.314   3.992  0.00  0.00    +0.000 A 
ATOM      6  C   UNL     1     -25.102   7.721   4.586  0.00  0.00    +0.000 A 
ATOM      7  C   UNL     1     -24.716   9.502   2.978  0.00  0.00    +0.000 A 
ATOM      8  C   UNL     1     -25.156   8.213   3.279  0.00  0.00    +0.000 A 
BRANCH   6   9
ATOM      9  O   UNL     1     -25.557   6.441   4.790  0.00  0.00    +0.000 OA
ATOM     10  C   UNL     1     -24.686   5.594   5.493  0.00  0.00    +0.000 C 
ENDBRANCH   6   9
BRANCH   8  11
ATOM     11  O   UNL     1     -25.648   7.421   2.279  0.00  0.00    +0.000 OA
ATOM     12  H   UNL     1     -26.567   7.177   2.496  0.00  0.00    +0.000 HD
ENDBRANCH   8  11
ENDBRANCH   2   3
BRANCH   1  14
ATOM     13  O   UNL     1     -22.104  11.899   9.517  0.00  0.00    +0.000 OA
ATOM     14  C   UNL     1     -22.562  12.397   8.499  0.00  0.00    +0.000 C 
ATOM     15  C   UNL     1     -22.583  13.824   8.339  0.00  0.00    +0.000 C 
ATOM     16  C   UNL     1     -22.603  15.228   8.188  0.00  0.00    +0.000 C 
BRANCH  16  17
ATOM     17  O   UNL     1     -22.879  15.725   6.937  0.00  0.00    +0.000 OA
ATOM     18  H   UNL     1     -23.707  16.236   6.925  0.00  0.00    +0.000 HD
ENDBRANCH  16  17
BRANCH  16  19
ATOM     19  C   UNL     1     -22.359  16.135   9.248  0.00  0.00    +0.000 C 
ATOM     20  C   UNL     1     -22.101  17.112  10.400  0.00  0.00    +0.000 C 
BRANCH  20  21
ATOM     21  C   UNL     1     -21.849  18.086  11.555  0.00  0.00    +0.000 C 
ATOM     22  C   UNL     1     -21.595  19.060  12.710  0.00  0.00    +0.000 C 
ATOM     23  C   UNL     1     -21.333  20.032  13.865  0.00  0.00    +0.000 C 
ENDBRANCH  20  21
ENDBRANCH  16  19
ENDBRANCH   1  14
TORSDOF 7
ENDMDL
MODEL 6
REMARK VINA RESULT:      -4.6     17.390     19.389
REMARK  Name = 442793_6gingerol.pdbqt.pdb
REMARK  7 active torsions:
REMARK  status: ('A' for Active; 'I' for Inactive)
REMARK    1  A    between atoms: C_1  and  C_3
REMARK    2  A    between atoms: C_5  and  O_6
REMARK    3  A    between atoms: C_5  and  C_8
REMARK    4  A    between atoms: C_9  and  C_10
REMARK    5  A    between atoms: C_13  and  C_14
REMARK    6  A    between atoms: C_17  and  O_20
REMARK    7  A    between atoms: C_19  and  O_22
REMARK                            x       y       z     vdW  Elec       q    Type
REMARK                         _______ _______ _______ _____ _____    ______ ____
ROOT
ATOM      1  C   UNL     1      -6.513  14.092  14.719  0.00  0.00    +0.000 C 
ATOM      2  C   UNL     1      -5.732  14.645  13.520  0.00  0.00    +0.000 C 
ENDROOT
BRANCH   2   3
ATOM      3  C   UNL     1      -5.006  15.160  12.409  0.00  0.00    +0.000 A 
ATOM      4  C   UNL     1      -3.632  14.946  12.318  0.00  0.00    +0.000 A 
ATOM      5  C   UNL     1      -5.672  15.876  11.417  0.00  0.00    +0.000 A 
ATOM      6  C   UNL     1      -2.906  15.447  11.233  0.00  0.00    +0.000 A 
ATOM      7  C   UNL     1      -4.961  16.380  10.331  0.00  0.00    +0.000 A 
ATOM      8  C   UNL     1      -3.586  16.164  10.244  0.00  0.00    +0.000 A 
BRANCH   6   9
ATOM      9  O   UNL     1      -1.553  15.283  11.065  0.00  0.00    +0.000 OA
ATOM     10  C   UNL     1      -0.974  14.234  11.795  0.00  0.00    +0.000 C 
ENDBRANCH   6   9
BRANCH   8  11
ATOM     11  O   UNL     1      -2.894  16.662   9.175  0.00  0.00    +0.000 OA
ATOM     12  H   UNL     1      -2.482  15.919   8.696  0.00  0.00    +0.000 HD
ENDBRANCH   8  11
ENDBRANCH   2   3
BRANCH   1  14
ATOM     13  O   UNL     1      -8.210  14.186  16.287  0.00  0.00    +0.000 OA
ATOM     14  C   UNL     1      -7.248  13.576  15.846  0.00  0.00    +0.000 C 
ATOM     15  C   UNL     1      -6.839  12.338  16.449  0.00  0.00    +0.000 C 
ATOM     16  C   UNL     1      -6.440  11.123  17.047  0.00  0.00    +0.000 C 
BRANCH  16  17
ATOM     17  O   UNL     1      -5.531  10.351  16.364  0.00  0.00    +0.000 OA
ATOM     18  H   UNL     1      -4.765  10.119  16.917  0.00  0.00    +0.000 HD
ENDBRANCH  16  17
BRANCH  16  19
ATOM     19  C   UNL     1      -6.921  10.669  18.299  0.00  0.00    +0.000 C 
ATOM     20  C   UNL     1      -7.444  10.187  19.657  0.00  0.00    +0.000 C 
BRANCH  20  21
ATOM     21  C   UNL     1      -7.965   9.712  21.016  0.00  0.00    +0.000 C 
ATOM     22  C   UNL     1      -8.486   9.234  22.376  0.00  0.00    +0.000 C 
ATOM     23  C   UNL     1      -9.001   8.752  23.736  0.00  0.00    +0.000 C 
ENDBRANCH  20  21
ENDBRANCH  16  19
ENDBRANCH   1  14
TORSDOF 7
ENDMDL
MODEL 7
REMARK VINA RESULT:      -4.6     14.156     16.600
REMARK  Name = 442793_6gingerol.pdbqt.pdb
REMARK  7 active torsions:
REMARK  status: ('A' for Active; 'I' for Inactive)
REMARK    1  A    between atoms: C_1  and  C_3
REMARK    2  A    between atoms: C_5  and  O_6
REMARK    3  A    between atoms: C_5  and  C_8
REMARK    4  A    between atoms: C_9  and  C_10
REMARK    5  A    between atoms: C_13  and  C_14
REMARK    6  A    between atoms: C_17  and  O_20
REMARK    7  A    between atoms: C_19  and  O_22
REMARK                            x       y       z     vdW  Elec       q    Type
REMARK                         _______ _______ _______ _____ _____    ______ ____
ROOT
ATOM      1  C   UNL     1     -15.457   5.921  -1.935  0.00  0.00    +0.000 C 
ATOM      2  C   UNL     1     -15.282   7.443  -2.007  0.00  0.00    +0.000 C 
ENDROOT
BRANCH   2   3
ATOM      3  C   UNL     1     -15.121   8.856  -2.077  0.00  0.00    +0.000 A 
ATOM      4  C   UNL     1     -14.996   9.480  -3.317  0.00  0.00    +0.000 A 
ATOM      5  C   UNL     1     -15.087   9.609  -0.907  0.00  0.00    +0.000 A 
ATOM      6  C   UNL     1     -14.837  10.866  -3.401  0.00  0.00    +0.000 A 
ATOM      7  C   UNL     1     -14.929  10.991  -0.976  0.00  0.00    +0.000 A 
ATOM      8  C   UNL     1     -14.804  11.611  -2.219  0.00  0.00    +0.000 A 
BRANCH   6   9
ATOM      9  O   UNL     1     -14.706  11.560  -4.580  0.00  0.00    +0.000 OA
ATOM     10  C   UNL     1     -13.578  11.240  -5.349  0.00  0.00    +0.000 C 
ENDBRANCH   6   9
BRANCH   8  11
ATOM     11  O   UNL     1     -14.649  12.968  -2.280  0.00  0.00    +0.000 OA
ATOM     12  H   UNL     1     -14.036  13.245  -1.574  0.00  0.00    +0.000 HD
ENDBRANCH   8  11
ENDBRANCH   2   3
BRANCH   1  14
ATOM     13  O   UNL     1     -16.737   3.995  -1.954  0.00  0.00    +0.000 OA
ATOM     14  C   UNL     1     -15.623   4.491  -1.870  0.00  0.00    +0.000 C 
ATOM     15  C   UNL     1     -14.469   3.652  -1.703  0.00  0.00    +0.000 C 
ATOM     16  C   UNL     1     -13.338   2.823  -1.537  0.00  0.00    +0.000 C 
BRANCH  16  17
ATOM     17  O   UNL     1     -12.103   3.398  -1.711  0.00  0.00    +0.000 OA
ATOM     18  H   UNL     1     -11.528   3.260  -0.938  0.00  0.00    +0.000 HD
ENDBRANCH  16  17
BRANCH  16  19
ATOM     19  C   UNL     1     -13.415   1.449  -1.203  0.00  0.00    +0.000 C 
ATOM     20  C   UNL     1     -13.508  -0.037  -0.840  0.00  0.00    +0.000 C 
BRANCH  20  21
ATOM     21  C   UNL     1     -13.606  -1.521  -0.475  0.00  0.00    +0.000 C 
ATOM     22  C   UNL     1     -13.704  -3.007  -0.112  0.00  0.00    +0.000 C 
ATOM     23  C   UNL     1     -13.797  -4.493   0.246  0.00  0.00    +0.000 C 
ENDBRANCH  20  21
ENDBRANCH  16  19
ENDBRANCH   1  14
TORSDOF 7
ENDMDL
MODEL 8
REMARK VINA RESULT:      -4.6     26.491     28.893
REMARK  Name = 442793_6gingerol.pdbqt.pdb
REMARK  7 active torsions:
REMARK  status: ('A' for Active; 'I' for Inactive)
REMARK    1  A    between atoms: C_1  and  C_3
REMARK    2  A    between atoms: C_5  and  O_6
REMARK    3  A    between atoms: C_5  and  C_8
REMARK    4  A    between atoms: C_9  and  C_10
REMARK    5  A    between atoms: C_13  and  C_14
REMARK    6  A    between atoms: C_17  and  O_20
REMARK    7  A    between atoms: C_19  and  O_22
REMARK                            x       y       z     vdW  Elec       q    Type
REMARK                         _______ _______ _______ _____ _____    ______ ____
ROOT
ATOM      1  C   UNL     1       3.533   7.407   4.204  0.00  0.00    +0.000 C 
ATOM      2  C   UNL     1       2.116   6.902   3.902  0.00  0.00    +0.000 C 
ENDROOT
BRANCH   2   3
ATOM      3  C   UNL     1       0.802   6.431   3.622  0.00  0.00    +0.000 A 
ATOM      4  C   UNL     1       0.139   6.868   2.476  0.00  0.00    +0.000 A 
ATOM      5  C   UNL     1       0.185   5.537   4.492  0.00  0.00    +0.000 A 
ATOM      6  C   UNL     1      -1.152   6.415   2.188  0.00  0.00    +0.000 A 
ATOM      7  C   UNL     1      -1.101   5.078   4.217  0.00  0.00    +0.000 A 
ATOM      8  C   UNL     1      -1.761   5.517   3.070  0.00  0.00    +0.000 A 
BRANCH   6   9
ATOM      9  O   UNL     1      -1.877   6.794   1.084  0.00  0.00    +0.000 OA
ATOM     10  C   UNL     1      -1.439   6.264  -0.139  0.00  0.00    +0.000 C 
ENDBRANCH   6   9
BRANCH   8  11
ATOM     11  O   UNL     1      -3.023   5.062   2.805  0.00  0.00    +0.000 OA
ATOM     12  H   UNL     1      -2.958   4.271   2.239  0.00  0.00    +0.000 HD
ENDBRANCH   8  11
ENDBRANCH   2   3
BRANCH   1  14
ATOM     13  O   UNL     1       5.578   8.293   3.586  0.00  0.00    +0.000 OA
ATOM     14  C   UNL     1       4.865   7.878   4.487  0.00  0.00    +0.000 C 
ATOM     15  C   UNL     1       5.350   7.855   5.839  0.00  0.00    +0.000 C 
ATOM     16  C   UNL     1       5.832   7.832   7.166  0.00  0.00    +0.000 C 
BRANCH  16  17
ATOM     17  O   UNL     1       4.918   7.609   8.167  0.00  0.00    +0.000 OA
ATOM     18  H   UNL     1       5.334   7.226   8.958  0.00  0.00    +0.000 HD
ENDBRANCH  16  17
BRANCH  16  19
ATOM     19  C   UNL     1       7.193   8.022   7.510  0.00  0.00    +0.000 C 
ATOM     20  C   UNL     1       8.664   8.224   7.891  0.00  0.00    +0.000 C 
BRANCH  20  21
ATOM     21  C   UNL     1      10.132   8.426   8.277  0.00  0.00    +0.000 C 
ATOM     22  C   UNL     1      11.601   8.628   8.662  0.00  0.00    +0.000 C 
ATOM     23  C   UNL     1      13.072   8.832   9.040  0.00  0.00    +0.000 C 
ENDBRANCH  20  21
ENDBRANCH  16  19
ENDBRANCH   1  14
TORSDOF 7
ENDMDL
MODEL 9
REMARK VINA RESULT:      -4.4      3.603     10.358
REMARK  Name = 442793_6gingerol.pdbqt.pdb
REMARK  7 active torsions:
REMARK  status: ('A' for Active; 'I' for Inactive)
REMARK    1  A    between atoms: C_1  and  C_3
REMARK    2  A    between atoms: C_5  and  O_6
REMARK    3  A    between atoms: C_5  and  C_8
REMARK    4  A    between atoms: C_9  and  C_10
REMARK    5  A    between atoms: C_13  and  C_14
REMARK    6  A    between atoms: C_17  and  O_20
REMARK    7  A    between atoms: C_19  and  O_22
REMARK                            x       y       z     vdW  Elec       q    Type
REMARK                         _______ _______ _______ _____ _____    ______ ____
ROOT
ATOM      1  C   UNL     1     -24.293  12.991   8.671  0.00  0.00    +0.000 C 
ATOM      2  C   UNL     1     -24.113  12.432   7.254  0.00  0.00    +0.000 C 
ENDROOT
BRANCH   2   3
ATOM      3  C   UNL     1     -23.944  11.916   5.938  0.00  0.00    +0.000 A 
ATOM      4  C   UNL     1     -23.557  12.766   4.904  0.00  0.00    +0.000 A 
ATOM      5  C   UNL     1     -24.167  10.564   5.689  0.00  0.00    +0.000 A 
ATOM      6  C   UNL     1     -23.388  12.274   3.607  0.00  0.00    +0.000 A 
ATOM      7  C   UNL     1     -24.002  10.061   4.402  0.00  0.00    +0.000 A 
ATOM      8  C   UNL     1     -23.615  10.915   3.369  0.00  0.00    +0.000 A 
BRANCH   6   9
ATOM      9  O   UNL     1     -23.010  13.040   2.531  0.00  0.00    +0.000 OA
ATOM     10  C   UNL     1     -21.843  13.799   2.708  0.00  0.00    +0.000 C 
ENDBRANCH   6   9
BRANCH   8  11
ATOM     11  O   UNL     1     -23.455  10.413   2.107  0.00  0.00    +0.000 OA
ATOM     12  H   UNL     1     -22.674   9.828   2.101  0.00  0.00    +0.000 HD
ENDBRANCH   8  11
ENDBRANCH   2   3
BRANCH   1  14
ATOM     13  O   UNL     1     -24.564  12.763  10.957  0.00  0.00    +0.000 OA
ATOM     14  C   UNL     1     -24.461  13.519  10.002  0.00  0.00    +0.000 C 
ATOM     15  C   UNL     1     -24.507  14.941  10.198  0.00  0.00    +0.000 C 
ATOM     16  C   UNL     1     -24.555  16.338  10.396  0.00  0.00    +0.000 C 
BRANCH  16  17
ATOM     17  O   UNL     1     -24.175  17.138   9.346  0.00  0.00    +0.000 OA
ATOM     18  H   UNL     1     -24.530  16.816   8.499  0.00  0.00    +0.000 HD
ENDBRANCH  16  17
BRANCH  16  19
ATOM     19  C   UNL     1     -24.972  16.945  11.605  0.00  0.00    +0.000 C 
ATOM     20  C   UNL     1     -25.419  17.595  12.919  0.00  0.00    +0.000 C 
BRANCH  20  21
ATOM     21  C   UNL     1     -25.865  18.239  14.236  0.00  0.00    +0.000 C 
ATOM     22  C   UNL     1     -26.309  18.882  15.554  0.00  0.00    +0.000 C 
ATOM     23  C   UNL     1     -26.749  19.520  16.875  0.00  0.00    +0.000 C 
ENDBRANCH  20  21
ENDBRANCH  16  19
ENDBRANCH   1  14
TORSDOF 7
ENDMDL
