MODEL 1
REMARK VINA RESULT:      -5.8      0.000      0.000
REMARK  Name = 44423609_SipholenoneA.pdbqt.pdb
REMARK  4 active torsions:
REMARK  status: ('A' for Active; 'I' for Inactive)
REMARK    1  A    between atoms: C_3  and  C_19
REMARK    2  A    between atoms: C_5  and  O_17
REMARK    3  A    between atoms: C_20  and  C_24
REMARK    4  A    between atoms: C_25  and  O_35
REMARK                            x       y       z     vdW  Elec       q    Type
REMARK                         _______ _______ _______ _____ _____    ______ ____
ROOT
ATOM      1  O   UNL     1       0.486   6.099  15.568  0.00  0.00    +0.000 OA
ATOM      2  O   UNL     1      -0.205   5.491  11.984  0.00  0.00    +0.000 OA
ATOM      3  C   UNL     1      -2.997   7.039  17.180  0.00  0.00    +0.000 C 
ATOM      4  C   UNL     1      -1.939   6.164  16.511  0.00  0.00    +0.000 C 
ATOM      5  C   UNL     1      -2.594   8.047  18.243  0.00  0.00    +0.000 C 
ATOM      6  C   UNL     1      -0.481   6.761  16.333  0.00  0.00    +0.000 C 
ATOM      7  C   UNL     1      -1.160   8.254  18.174  0.00  0.00    +0.000 C 
ATOM      8  C   UNL     1      -0.082   7.703  17.301  0.00  0.00    +0.000 C 
ATOM      9  C   UNL     1      -2.301   5.890  15.111  0.00  0.00    +0.000 C 
ATOM     10  C   UNL     1      -1.811   4.822  17.286  0.00  0.00    +0.000 C 
ATOM     11  C   UNL     1      -3.361   9.362  18.071  0.00  0.00    +0.000 C 
ATOM     12  C   UNL     1      -1.661   5.730  13.748  0.00  0.00    +0.000 C 
ATOM     13  C   UNL     1       0.708   6.487  14.171  0.00  0.00    +0.000 C 
ATOM     14  C   UNL     1      -0.352   5.839  13.148  0.00  0.00    +0.000 C 
ATOM     15  C   UNL     1       2.149   5.979  13.841  0.00  0.00    +0.000 C 
ATOM     16  C   UNL     1       0.673   8.053  14.023  0.00  0.00    +0.000 C 
ENDROOT
BRANCH   5  17
ATOM     17  O   UNL     1      -2.943   7.561  19.514  0.00  0.00    +0.000 OA
ATOM     18  H   UNL     1      -3.429   8.322  19.880  0.00  0.00    +0.000 HD
ENDBRANCH   5  17
BRANCH   3  19
ATOM     19  C   UNL     1      -4.391   6.727  16.990  0.00  0.00    +0.000 C 
ATOM     20  C   UNL     1      -5.871   6.388  16.799  0.00  0.00    +0.000 C 
BRANCH  20  24
ATOM     21  C   UNL     1      -8.350   3.797  17.362  0.00  0.00    +0.000 C 
ATOM     22  C   UNL     1      -7.724   4.639  16.223  0.00  0.00    +0.000 C 
ATOM     23  C   UNL     1      -9.633   4.115  18.087  0.00  0.00    +0.000 C 
ATOM     24  C   UNL     1      -7.257   6.060  16.620  0.00  0.00    +0.000 C 
ATOM     25  C   UNL     1      -9.980   3.047  19.126  0.00  0.00    +0.000 C 
ATOM     26  C   UNL     1      -7.884   2.558  17.886  0.00  0.00    +0.000 C 
ATOM     27  C   UNL     1      -8.873   2.119  18.929  0.00  0.00    +0.000 C 
ATOM     28  C   UNL     1      -9.981   5.481  18.109  0.00  0.00    +0.000 C 
ATOM     29  C   UNL     1      -8.250   7.095  16.917  0.00  0.00    +0.000 C 
ATOM     30  C   UNL     1      -6.490   3.839  15.652  0.00  0.00    +0.000 C 
ATOM     31  C   UNL     1      -8.757   4.729  15.049  0.00  0.00    +0.000 C 
ATOM     32  C   UNL     1      -9.309   6.709  17.555  0.00  0.00    +0.000 C 
ATOM     33  C   UNL     1     -11.374   2.480  18.918  0.00  0.00    +0.000 C 
ATOM     34  C   UNL     1      -7.947   8.571  16.928  0.00  0.00    +0.000 C 
BRANCH  25  35
ATOM     35  O   UNL     1      -9.941   3.590  20.423  0.00  0.00    +0.000 OA
ATOM     36  H   UNL     1      -9.122   3.189  20.762  0.00  0.00    +0.000 HD
ENDBRANCH  25  35
ENDBRANCH  20  24
ENDBRANCH   3  19
TORSDOF 4
ENDMDL
MODEL 2
REMARK VINA RESULT:      -5.8     13.035     15.691
REMARK  Name = 44423609_SipholenoneA.pdbqt.pdb
REMARK  4 active torsions:
REMARK  status: ('A' for Active; 'I' for Inactive)
REMARK    1  A    between atoms: C_3  and  C_19
REMARK    2  A    between atoms: C_5  and  O_17
REMARK    3  A    between atoms: C_20  and  C_24
REMARK    4  A    between atoms: C_25  and  O_35
REMARK                            x       y       z     vdW  Elec       q    Type
REMARK                         _______ _______ _______ _____ _____    ______ ____
ROOT
ATOM      1  O   UNL     1      -0.631   4.104   2.229  0.00  0.00    +0.000 OA
ATOM      2  O   UNL     1      -2.369   7.220   3.214  0.00  0.00    +0.000 OA
ATOM      3  C   UNL     1      -3.348   1.246   2.472  0.00  0.00    +0.000 C 
ATOM      4  C   UNL     1      -2.661   2.503   1.940  0.00  0.00    +0.000 C 
ATOM      5  C   UNL     1      -2.518   0.056   2.925  0.00  0.00    +0.000 C 
ATOM      6  C   UNL     1      -1.237   2.878   2.526  0.00  0.00    +0.000 C 
ATOM      7  C   UNL     1      -1.145   0.485   3.110  0.00  0.00    +0.000 C 
ATOM      8  C   UNL     1      -0.447   1.795   2.959  0.00  0.00    +0.000 C 
ATOM      9  C   UNL     1      -3.434   3.705   2.294  0.00  0.00    +0.000 C 
ATOM     10  C   UNL     1      -2.530   2.407   0.394  0.00  0.00    +0.000 C 
ATOM     11  C   UNL     1      -3.094  -0.558   4.205  0.00  0.00    +0.000 C 
ATOM     12  C   UNL     1      -3.227   5.145   2.713  0.00  0.00    +0.000 C 
ATOM     13  C   UNL     1      -0.747   5.226   3.168  0.00  0.00    +0.000 C 
ATOM     14  C   UNL     1      -2.134   6.031   3.039  0.00  0.00    +0.000 C 
ATOM     15  C   UNL     1       0.452   6.165   2.818  0.00  0.00    +0.000 C 
ATOM     16  C   UNL     1      -0.583   4.721   4.650  0.00  0.00    +0.000 C 
ENDROOT
BRANCH   5  17
ATOM     17  O   UNL     1      -2.572  -0.957   1.953  0.00  0.00    +0.000 OA
ATOM     18  H   UNL     1      -2.181  -0.503   1.184  0.00  0.00    +0.000 HD
ENDBRANCH   5  17
BRANCH   3  19
ATOM     19  C   UNL     1      -4.770   1.095   2.300  0.00  0.00    +0.000 C 
ATOM     20  C   UNL     1      -6.283   0.941   2.127  0.00  0.00    +0.000 C 
BRANCH  20  24
ATOM     21  C   UNL     1      -8.855  -1.190   0.707  0.00  0.00    +0.000 C 
ATOM     22  C   UNL     1      -8.342   0.271   0.665  0.00  0.00    +0.000 C 
ATOM     23  C   UNL     1      -9.981  -1.702   1.568  0.00  0.00    +0.000 C 
ATOM     24  C   UNL     1      -7.702   0.793   1.974  0.00  0.00    +0.000 C 
ATOM     25  C   UNL     1     -10.255  -3.187   1.325  0.00  0.00    +0.000 C 
ATOM     26  C   UNL     1      -8.420  -2.289  -0.087  0.00  0.00    +0.000 C 
ATOM     27  C   UNL     1      -9.272  -3.470   0.287  0.00  0.00    +0.000 C 
ATOM     28  C   UNL     1     -10.207  -0.967   2.750  0.00  0.00    +0.000 C 
ATOM     29  C   UNL     1      -8.549   1.063   3.138  0.00  0.00    +0.000 C 
ATOM     30  C   UNL     1      -7.281   0.377  -0.497  0.00  0.00    +0.000 C 
ATOM     31  C   UNL     1      -9.530   1.202   0.247  0.00  0.00    +0.000 C 
ATOM     32  C   UNL     1      -9.527   0.238   3.342  0.00  0.00    +0.000 C 
ATOM     33  C   UNL     1     -11.706  -3.450   0.964  0.00  0.00    +0.000 C 
ATOM     34  C   UNL     1      -8.126   1.919   4.304  0.00  0.00    +0.000 C 
BRANCH  25  35
ATOM     35  O   UNL     1      -9.974  -3.935   2.483  0.00  0.00    +0.000 OA
ATOM     36  H   UNL     1     -10.569  -3.508   3.123  0.00  0.00    +0.000 HD
ENDBRANCH  25  35
ENDBRANCH  20  24
ENDBRANCH   3  19
TORSDOF 4
ENDMDL
MODEL 3
REMARK VINA RESULT:      -5.8     13.562     15.853
REMARK  Name = 44423609_SipholenoneA.pdbqt.pdb
REMARK  4 active torsions:
REMARK  status: ('A' for Active; 'I' for Inactive)
REMARK    1  A    between atoms: C_3  and  C_19
REMARK    2  A    between atoms: C_5  and  O_17
REMARK    3  A    between atoms: C_20  and  C_24
REMARK    4  A    between atoms: C_25  and  O_35
REMARK                            x       y       z     vdW  Elec       q    Type
REMARK                         _______ _______ _______ _____ _____    ______ ____
ROOT
ATOM      1  O   UNL     1      -0.305   5.115   1.009  0.00  0.00    +0.000 OA
ATOM      2  O   UNL     1      -2.593   7.086   3.148  0.00  0.00    +0.000 OA
ATOM      3  C   UNL     1      -1.566   1.378   1.259  0.00  0.00    +0.000 C 
ATOM      4  C   UNL     1      -1.598   2.860   0.888  0.00  0.00    +0.000 C 
ATOM      5  C   UNL     1      -0.265   0.598   1.171  0.00  0.00    +0.000 C 
ATOM      6  C   UNL     1      -0.294   3.722   1.147  0.00  0.00    +0.000 C 
ATOM      7  C   UNL     1       0.840   1.534   1.085  0.00  0.00    +0.000 C 
ATOM      8  C   UNL     1       0.927   3.023   1.078  0.00  0.00    +0.000 C 
ATOM      9  C   UNL     1      -2.579   3.581   1.716  0.00  0.00    +0.000 C 
ATOM     10  C   UNL     1      -1.976   3.010  -0.613  0.00  0.00    +0.000 C 
ATOM     11  C   UNL     1      -0.111  -0.346   2.369  0.00  0.00    +0.000 C 
ATOM     12  C   UNL     1      -2.770   4.917   2.403  0.00  0.00    +0.000 C 
ATOM     13  C   UNL     1      -0.487   5.967   2.189  0.00  0.00    +0.000 C 
ATOM     14  C   UNL     1      -2.024   6.132   2.632  0.00  0.00    +0.000 C 
ATOM     15  C   UNL     1       0.102   7.354   1.773  0.00  0.00    +0.000 C 
ATOM     16  C   UNL     1       0.341   5.406   3.405  0.00  0.00    +0.000 C 
ENDROOT
BRANCH   5  17
ATOM     17  O   UNL     1      -0.282  -0.225   0.032  0.00  0.00    +0.000 OA
ATOM     18  H   UNL     1      -1.234  -0.412  -0.052  0.00  0.00    +0.000 HD
ENDBRANCH   5  17
BRANCH   3  19
ATOM     19  C   UNL     1      -2.808   0.671   1.439  0.00  0.00    +0.000 C 
ATOM     20  C   UNL     1      -4.129  -0.075   1.641  0.00  0.00    +0.000 C 
BRANCH  20  24
ATOM     21  C   UNL     1      -7.302   0.044   3.399  0.00  0.00    +0.000 C 
ATOM     22  C   UNL     1      -6.056  -0.859   3.222  0.00  0.00    +0.000 C 
ATOM     23  C   UNL     1      -8.598  -0.088   2.641  0.00  0.00    +0.000 C 
ATOM     24  C   UNL     1      -5.363  -0.779   1.839  0.00  0.00    +0.000 C 
ATOM     25  C   UNL     1      -9.633   0.941   3.100  0.00  0.00    +0.000 C 
ATOM     26  C   UNL     1      -7.485   1.102   4.335  0.00  0.00    +0.000 C 
ATOM     27  C   UNL     1      -8.884   1.619   4.150  0.00  0.00    +0.000 C 
ATOM     28  C   UNL     1      -8.485  -0.688   1.370  0.00  0.00    +0.000 C 
ATOM     29  C   UNL     1      -6.020  -1.356   0.664  0.00  0.00    +0.000 C 
ATOM     30  C   UNL     1      -5.011  -0.467   4.337  0.00  0.00    +0.000 C 
ATOM     31  C   UNL     1      -6.469  -2.339   3.523  0.00  0.00    +0.000 C 
ATOM     32  C   UNL     1      -7.307  -1.219   0.599  0.00  0.00    +0.000 C 
ATOM     33  C   UNL     1     -10.938   0.289   3.522  0.00  0.00    +0.000 C 
ATOM     34  C   UNL     1      -5.304  -1.687  -0.620  0.00  0.00    +0.000 C 
BRANCH  25  35
ATOM     35  O   UNL     1      -9.934   1.835   2.056  0.00  0.00    +0.000 OA
ATOM     36  H   UNL     1      -9.041   2.035   1.726  0.00  0.00    +0.000 HD
ENDBRANCH  25  35
ENDBRANCH  20  24
ENDBRANCH   3  19
TORSDOF 4
ENDMDL
MODEL 4
REMARK VINA RESULT:      -5.6     16.664     20.224
REMARK  Name = 44423609_SipholenoneA.pdbqt.pdb
REMARK  4 active torsions:
REMARK  status: ('A' for Active; 'I' for Inactive)
REMARK    1  A    between atoms: C_3  and  C_19
REMARK    2  A    between atoms: C_5  and  O_17
REMARK    3  A    between atoms: C_20  and  C_24
REMARK    4  A    between atoms: C_25  and  O_35
REMARK                            x       y       z     vdW  Elec       q    Type
REMARK                         _______ _______ _______ _____ _____    ______ ____
ROOT
ATOM      1  O   UNL     1     -14.242  25.738  17.305  0.00  0.00    +0.000 OA
ATOM      2  O   UNL     1     -17.912  25.299  17.464  0.00  0.00    +0.000 OA
ATOM      3  C   UNL     1     -12.775  23.528  20.234  0.00  0.00    +0.000 C 
ATOM      4  C   UNL     1     -13.469  23.841  18.909  0.00  0.00    +0.000 C 
ATOM      5  C   UNL     1     -11.573  24.345  20.677  0.00  0.00    +0.000 C 
ATOM      6  C   UNL     1     -13.472  25.344  18.405  0.00  0.00    +0.000 C 
ATOM      7  C   UNL     1     -11.516  25.562  19.890  0.00  0.00    +0.000 C 
ATOM      8  C   UNL     1     -12.372  26.126  18.806  0.00  0.00    +0.000 C 
ATOM      9  C   UNL     1     -14.915  23.576  19.005  0.00  0.00    +0.000 C 
ATOM     10  C   UNL     1     -12.855  22.963  17.783  0.00  0.00    +0.000 C 
ATOM     11  C   UNL     1     -11.638  24.647  22.178  0.00  0.00    +0.000 C 
ATOM     12  C   UNL     1     -16.238  24.131  18.524  0.00  0.00    +0.000 C 
ATOM     13  C   UNL     1     -15.563  26.341  17.513  0.00  0.00    +0.000 C 
ATOM     14  C   UNL     1     -16.728  25.262  17.771  0.00  0.00    +0.000 C 
ATOM     15  C   UNL     1     -15.851  27.134  16.197  0.00  0.00    +0.000 C 
ATOM     16  C   UNL     1     -15.523  27.352  18.719  0.00  0.00    +0.000 C 
ENDROOT
BRANCH   5  17
ATOM     17  O   UNL     1     -10.397  23.599  20.485  0.00  0.00    +0.000 OA
ATOM     18  H   UNL     1     -10.170  23.839  19.568  0.00  0.00    +0.000 HD
ENDBRANCH   5  17
BRANCH   3  19
ATOM     19  C   UNL     1     -13.098  22.307  20.926  0.00  0.00    +0.000 C 
ATOM     20  C   UNL     1     -13.448  21.016  21.670  0.00  0.00    +0.000 C 
BRANCH  20  24
ATOM     21  C   UNL     1     -13.044  19.295  24.841  0.00  0.00    +0.000 C 
ATOM     22  C   UNL     1     -12.768  19.114  23.327  0.00  0.00    +0.000 C 
ATOM     23  C   UNL     1     -14.247  18.775  25.584  0.00  0.00    +0.000 C 
ATOM     24  C   UNL     1     -13.772  19.809  22.376  0.00  0.00    +0.000 C 
ATOM     25  C   UNL     1     -14.177  19.096  27.078  0.00  0.00    +0.000 C 
ATOM     26  C   UNL     1     -12.204  19.914  25.811  0.00  0.00    +0.000 C 
ATOM     27  C   UNL     1     -12.890  19.777  27.141  0.00  0.00    +0.000 C 
ATOM     28  C   UNL     1     -15.403  18.598  24.795  0.00  0.00    +0.000 C 
ATOM     29  C   UNL     1     -15.134  19.286  22.250  0.00  0.00    +0.000 C 
ATOM     30  C   UNL     1     -11.321  19.665  23.030  0.00  0.00    +0.000 C 
ATOM     31  C   UNL     1     -12.716  17.580  23.014  0.00  0.00    +0.000 C 
ATOM     32  C   UNL     1     -15.684  18.843  23.336  0.00  0.00    +0.000 C 
ATOM     33  C   UNL     1     -14.320  17.851  27.937  0.00  0.00    +0.000 C 
ATOM     34  C   UNL     1     -16.057  19.613  21.104  0.00  0.00    +0.000 C 
BRANCH  25  35
ATOM     35  O   UNL     1     -15.215  19.973  27.442  0.00  0.00    +0.000 OA
ATOM     36  H   UNL     1     -14.765  20.518  28.111  0.00  0.00    +0.000 HD
ENDBRANCH  25  35
ENDBRANCH  20  24
ENDBRANCH   3  19
TORSDOF 4
ENDMDL
MODEL 5
REMARK VINA RESULT:      -5.1      4.268      7.444
REMARK  Name = 44423609_SipholenoneA.pdbqt.pdb
REMARK  4 active torsions:
REMARK  status: ('A' for Active; 'I' for Inactive)
REMARK    1  A    between atoms: C_3  and  C_19
REMARK    2  A    between atoms: C_5  and  O_17
REMARK    3  A    between atoms: C_20  and  C_24
REMARK    4  A    between atoms: C_25  and  O_35
REMARK                            x       y       z     vdW  Elec       q    Type
REMARK                         _______ _______ _______ _____ _____    ______ ____
ROOT
ATOM      1  O   UNL     1      -4.581  11.712  23.336  0.00  0.00    +0.000 OA
ATOM      2  O   UNL     1      -2.332  12.329  20.464  0.00  0.00    +0.000 OA
ATOM      3  C   UNL     1      -7.808  10.009  21.818  0.00  0.00    +0.000 C 
ATOM      4  C   UNL     1      -6.343  10.149  22.229  0.00  0.00    +0.000 C 
ATOM      5  C   UNL     1      -8.907  10.558  22.711  0.00  0.00    +0.000 C 
ATOM      6  C   UNL     1      -5.926  11.418  23.082  0.00  0.00    +0.000 C 
ATOM      7  C   UNL     1      -8.320  11.474  23.670  0.00  0.00    +0.000 C 
ATOM      8  C   UNL     1      -6.928  11.953  23.915  0.00  0.00    +0.000 C 
ATOM      9  C   UNL     1      -5.484  10.315  21.044  0.00  0.00    +0.000 C 
ATOM     10  C   UNL     1      -5.902   8.882  23.015  0.00  0.00    +0.000 C 
ATOM     11  C   UNL     1     -10.000  11.238  21.880  0.00  0.00    +0.000 C 
ATOM     12  C   UNL     1      -4.248  11.064  20.593  0.00  0.00    +0.000 C 
ATOM     13  C   UNL     1      -3.870  12.679  22.493  0.00  0.00    +0.000 C 
ATOM     14  C   UNL     1      -3.334  12.054  21.111  0.00  0.00    +0.000 C 
ATOM     15  C   UNL     1      -2.665  13.159  23.366  0.00  0.00    +0.000 C 
ATOM     16  C   UNL     1      -4.793  13.914  22.175  0.00  0.00    +0.000 C 
ENDROOT
BRANCH   5  17
ATOM     17  O   UNL     1      -9.539   9.502  23.389  0.00  0.00    +0.000 OA
ATOM     18  H   UNL     1      -9.083   9.530  24.249  0.00  0.00    +0.000 HD
ENDBRANCH   5  17
BRANCH   3  19
ATOM     19  C   UNL     1      -8.151   9.137  20.724  0.00  0.00    +0.000 C 
ATOM     20  C   UNL     1      -8.528   8.214  19.562  0.00  0.00    +0.000 C 
BRANCH  20  24
ATOM     21  C   UNL     1      -7.171   6.237  16.837  0.00  0.00    +0.000 C 
ATOM     22  C   UNL     1      -8.169   7.390  17.109  0.00  0.00    +0.000 C 
ATOM     23  C   UNL     1      -7.528   4.779  16.703  0.00  0.00    +0.000 C 
ATOM     24  C   UNL     1      -8.888   7.344  18.479  0.00  0.00    +0.000 C 
ATOM     25  C   UNL     1      -6.303   3.918  16.391  0.00  0.00    +0.000 C 
ATOM     26  C   UNL     1      -5.770   6.335  16.601  0.00  0.00    +0.000 C 
ATOM     27  C   UNL     1      -5.270   4.945  16.326  0.00  0.00    +0.000 C 
ATOM     28  C   UNL     1      -8.704   4.390  17.377  0.00  0.00    +0.000 C 
ATOM     29  C   UNL     1      -9.909   6.325  18.729  0.00  0.00    +0.000 C 
ATOM     30  C   UNL     1      -7.378   8.751  16.995  0.00  0.00    +0.000 C 
ATOM     31  C   UNL     1      -9.228   7.412  15.955  0.00  0.00    +0.000 C 
ATOM     32  C   UNL     1      -9.683   5.150  18.232  0.00  0.00    +0.000 C 
ATOM     33  C   UNL     1      -6.496   3.081  15.138  0.00  0.00    +0.000 C 
ATOM     34  C   UNL     1     -10.930   6.412  19.834  0.00  0.00    +0.000 C 
BRANCH  25  35
ATOM     35  O   UNL     1      -6.044   3.028  17.450  0.00  0.00    +0.000 OA
ATOM     36  H   UNL     1      -5.937   2.193  16.961  0.00  0.00    +0.000 HD
ENDBRANCH  25  35
ENDBRANCH  20  24
ENDBRANCH   3  19
TORSDOF 4
ENDMDL
MODEL 6
REMARK VINA RESULT:      -4.8     16.735     20.742
REMARK  Name = 44423609_SipholenoneA.pdbqt.pdb
REMARK  4 active torsions:
REMARK  status: ('A' for Active; 'I' for Inactive)
REMARK    1  A    between atoms: C_3  and  C_19
REMARK    2  A    between atoms: C_5  and  O_17
REMARK    3  A    between atoms: C_20  and  C_24
REMARK    4  A    between atoms: C_25  and  O_35
REMARK                            x       y       z     vdW  Elec       q    Type
REMARK                         _______ _______ _______ _____ _____    ______ ____
ROOT
ATOM      1  O   UNL     1      -1.275   4.493   0.616  0.00  0.00    +0.000 OA
ATOM      2  O   UNL     1      -2.249   6.295   3.698  0.00  0.00    +0.000 OA
ATOM      3  C   UNL     1      -2.611   6.700  -2.377  0.00  0.00    +0.000 C 
ATOM      4  C   UNL     1      -1.752   6.323  -1.171  0.00  0.00    +0.000 C 
ATOM      5  C   UNL     1      -2.987   5.646  -3.405  0.00  0.00    +0.000 C 
ATOM      6  C   UNL     1      -1.885   4.854  -0.591  0.00  0.00    +0.000 C 
ATOM      7  C   UNL     1      -2.745   4.332  -2.841  0.00  0.00    +0.000 C 
ATOM      8  C   UNL     1      -2.239   3.857  -1.521  0.00  0.00    +0.000 C 
ATOM      9  C   UNL     1      -2.129   7.123   0.006  0.00  0.00    +0.000 C 
ATOM     10  C   UNL     1      -0.253   6.568  -1.506  0.00  0.00    +0.000 C 
ATOM     11  C   UNL     1      -4.445   5.809  -3.848  0.00  0.00    +0.000 C 
ATOM     12  C   UNL     1      -2.279   6.994   1.507  0.00  0.00    +0.000 C 
ATOM     13  C   UNL     1      -2.050   4.507   1.862  0.00  0.00    +0.000 C 
ATOM     14  C   UNL     1      -2.181   5.969   2.520  0.00  0.00    +0.000 C 
ATOM     15  C   UNL     1      -1.272   3.554   2.827  0.00  0.00    +0.000 C 
ATOM     16  C   UNL     1      -3.491   3.922   1.620  0.00  0.00    +0.000 C 
ENDROOT
BRANCH   5  17
ATOM     17  O   UNL     1      -2.211   5.817  -4.564  0.00  0.00    +0.000 OA
ATOM     18  H   UNL     1      -2.396   6.749  -4.779  0.00  0.00    +0.000 HD
ENDBRANCH   5  17
BRANCH   3  19
ATOM     19  C   UNL     1      -2.841   8.092  -2.669  0.00  0.00    +0.000 C 
ATOM     20  C   UNL     1      -3.076   9.573  -2.972  0.00  0.00    +0.000 C 
BRANCH  20  24
ATOM     21  C   UNL     1      -4.214  11.898  -5.517  0.00  0.00    +0.000 C 
ATOM     22  C   UNL     1      -2.985  11.595  -4.624  0.00  0.00    +0.000 C 
ATOM     23  C   UNL     1      -5.302  12.894  -5.208  0.00  0.00    +0.000 C 
ATOM     24  C   UNL     1      -3.299  10.964  -3.246  0.00  0.00    +0.000 C 
ATOM     25  C   UNL     1      -6.340  12.971  -6.329  0.00  0.00    +0.000 C 
ATOM     26  C   UNL     1      -4.512  11.357  -6.801  0.00  0.00    +0.000 C 
ATOM     27  C   UNL     1      -5.777  12.016  -7.275  0.00  0.00    +0.000 C 
ATOM     28  C   UNL     1      -5.496  13.155  -3.836  0.00  0.00    +0.000 C 
ATOM     29  C   UNL     1      -3.929  11.776  -2.203  0.00  0.00    +0.000 C 
ATOM     30  C   UNL     1      -2.034  10.623  -5.423  0.00  0.00    +0.000 C 
ATOM     31  C   UNL     1      -2.176  12.922  -4.429  0.00  0.00    +0.000 C 
ATOM     32  C   UNL     1      -4.832  12.618  -2.596  0.00  0.00    +0.000 C 
ATOM     33  C   UNL     1      -6.526  14.389  -6.839  0.00  0.00    +0.000 C 
ATOM     34  C   UNL     1      -3.926  11.414  -0.740  0.00  0.00    +0.000 C 
BRANCH  25  35
ATOM     35  O   UNL     1      -7.593  12.527  -5.870  0.00  0.00    +0.000 OA
ATOM     36  H   UNL     1      -7.908  13.322  -5.406  0.00  0.00    +0.000 HD
ENDBRANCH  25  35
ENDBRANCH  20  24
ENDBRANCH   3  19
TORSDOF 4
ENDMDL
MODEL 7
REMARK VINA RESULT:      -4.6     19.408     23.506
REMARK  Name = 44423609_SipholenoneA.pdbqt.pdb
REMARK  4 active torsions:
REMARK  status: ('A' for Active; 'I' for Inactive)
REMARK    1  A    between atoms: C_3  and  C_19
REMARK    2  A    between atoms: C_5  and  O_17
REMARK    3  A    between atoms: C_20  and  C_24
REMARK    4  A    between atoms: C_25  and  O_35
REMARK                            x       y       z     vdW  Elec       q    Type
REMARK                         _______ _______ _______ _____ _____    ______ ____
ROOT
ATOM      1  O   UNL     1     -17.496  24.739  31.655  0.00  0.00    +0.000 OA
ATOM      2  O   UNL     1     -17.888  27.085  28.821  0.00  0.00    +0.000 OA
ATOM      3  C   UNL     1     -16.099  21.393  30.085  0.00  0.00    +0.000 C 
ATOM      4  C   UNL     1     -16.102  22.857  30.521  0.00  0.00    +0.000 C 
ATOM      5  C   UNL     1     -16.752  20.335  30.958  0.00  0.00    +0.000 C 
ATOM      6  C   UNL     1     -17.329  23.377  31.379  0.00  0.00    +0.000 C 
ATOM      7  C   UNL     1     -17.613  20.990  31.925  0.00  0.00    +0.000 C 
ATOM      8  C   UNL     1     -17.959  22.416  32.193  0.00  0.00    +0.000 C 
ATOM      9  C   UNL     1     -16.182  23.747  29.351  0.00  0.00    +0.000 C 
ATOM     10  C   UNL     1     -14.802  23.163  31.318  0.00  0.00    +0.000 C 
ATOM     11  C   UNL     1     -17.529  19.325  30.107  0.00  0.00    +0.000 C 
ATOM     12  C   UNL     1     -16.809  25.056  28.920  0.00  0.00    +0.000 C 
ATOM     13  C   UNL     1     -18.388  25.552  30.822  0.00  0.00    +0.000 C 
ATOM     14  C   UNL     1     -17.711  26.050  29.452  0.00  0.00    +0.000 C 
ATOM     15  C   UNL     1     -18.756  26.782  31.715  0.00  0.00    +0.000 C 
ATOM     16  C   UNL     1     -19.704  24.755  30.486  0.00  0.00    +0.000 C 
ENDROOT
BRANCH   5  17
ATOM     17  O   UNL     1     -15.762  19.595  31.627  0.00  0.00    +0.000 OA
ATOM     18  H   UNL     1     -16.303  18.922  32.079  0.00  0.00    +0.000 HD
ENDBRANCH   5  17
BRANCH   3  19
ATOM     19  C   UNL     1     -15.259  20.987  28.987  0.00  0.00    +0.000 C 
ATOM     20  C   UNL     1     -14.359  20.568  27.822  0.00  0.00    +0.000 C 
BRANCH  20  24
ATOM     21  C   UNL     1     -14.381  19.020  24.539  0.00  0.00    +0.000 C 
ATOM     22  C   UNL     1     -13.738  18.866  25.940  0.00  0.00    +0.000 C 
ATOM     23  C   UNL     1     -13.761  19.726  23.360  0.00  0.00    +0.000 C 
ATOM     24  C   UNL     1     -13.519  20.183  26.724  0.00  0.00    +0.000 C 
ATOM     25  C   UNL     1     -14.651  19.650  22.118  0.00  0.00    +0.000 C 
ATOM     26  C   UNL     1     -15.619  18.481  24.085  0.00  0.00    +0.000 C 
ATOM     27  C   UNL     1     -15.760  18.857  22.636  0.00  0.00    +0.000 C 
ATOM     28  C   UNL     1     -12.830  20.732  23.691  0.00  0.00    +0.000 C 
ATOM     29  C   UNL     1     -12.485  21.124  26.289  0.00  0.00    +0.000 C 
ATOM     30  C   UNL     1     -14.660  17.913  26.793  0.00  0.00    +0.000 C 
ATOM     31  C   UNL     1     -12.374  18.112  25.778  0.00  0.00    +0.000 C 
ATOM     32  C   UNL     1     -12.333  21.261  25.009  0.00  0.00    +0.000 C 
ATOM     33  C   UNL     1     -13.915  19.071  20.922  0.00  0.00    +0.000 C 
ATOM     34  C   UNL     1     -11.920  22.214  27.163  0.00  0.00    +0.000 C 
BRANCH  25  35
ATOM     35  O   UNL     1     -15.095  20.933  21.751  0.00  0.00    +0.000 OA
ATOM     36  H   UNL     1     -15.409  21.268  22.610  0.00  0.00    +0.000 HD
ENDBRANCH  25  35
ENDBRANCH  20  24
ENDBRANCH   3  19
TORSDOF 4
ENDMDL
MODEL 8
REMARK VINA RESULT:      -4.6     24.165     27.546
REMARK  Name = 44423609_SipholenoneA.pdbqt.pdb
REMARK  4 active torsions:
REMARK  status: ('A' for Active; 'I' for Inactive)
REMARK    1  A    between atoms: C_3  and  C_19
REMARK    2  A    between atoms: C_5  and  O_17
REMARK    3  A    between atoms: C_20  and  C_24
REMARK    4  A    between atoms: C_25  and  O_35
REMARK                            x       y       z     vdW  Elec       q    Type
REMARK                         _______ _______ _______ _____ _____    ______ ____
ROOT
ATOM      1  O   UNL     1     -19.887   6.649 -11.321  0.00  0.00    +0.000 OA
ATOM      2  O   UNL     1     -21.947   3.857 -10.034  0.00  0.00    +0.000 OA
ATOM      3  C   UNL     1     -18.292   8.355  -8.134  0.00  0.00    +0.000 C 
ATOM      4  C   UNL     1     -18.545   7.271  -9.181  0.00  0.00    +0.000 C 
ATOM      5  C   UNL     1     -18.248   9.817  -8.544  0.00  0.00    +0.000 C 
ATOM      6  C   UNL     1     -19.459   7.634 -10.423  0.00  0.00    +0.000 C 
ATOM      7  C   UNL     1     -18.834   9.952  -9.864  0.00  0.00    +0.000 C 
ATOM      8  C   UNL     1     -19.443   8.985 -10.823  0.00  0.00    +0.000 C 
ATOM      9  C   UNL     1     -19.300   6.151  -8.596  0.00  0.00    +0.000 C 
ATOM     10  C   UNL     1     -17.185   6.750  -9.727  0.00  0.00    +0.000 C 
ATOM     11  C   UNL     1     -18.966  10.697  -7.516  0.00  0.00    +0.000 C 
ATOM     12  C   UNL     1     -20.384   5.158  -8.958  0.00  0.00    +0.000 C 
ATOM     13  C   UNL     1     -21.216   6.045 -11.167  0.00  0.00    +0.000 C 
ATOM     14  C   UNL     1     -21.265   4.874 -10.067  0.00  0.00    +0.000 C 
ATOM     15  C   UNL     1     -21.556   5.467 -12.580  0.00  0.00    +0.000 C 
ATOM     16  C   UNL     1     -22.280   7.144 -10.797  0.00  0.00    +0.000 C 
ENDROOT
BRANCH   5  17
ATOM     17  O   UNL     1     -16.915  10.262  -8.569  0.00  0.00    +0.000 OA
ATOM     18  H   UNL     1     -17.028  11.205  -8.351  0.00  0.00    +0.000 HD
ENDBRANCH   5  17
BRANCH   3  19
ATOM     19  C   UNL     1     -17.841   7.972  -6.820  0.00  0.00    +0.000 C 
ATOM     20  C   UNL     1     -17.353   7.574  -5.425  0.00  0.00    +0.000 C 
BRANCH  20  24
ATOM     21  C   UNL     1     -15.441   8.736  -2.567  0.00  0.00    +0.000 C 
ATOM     22  C   UNL     1     -15.480   7.586  -3.604  0.00  0.00    +0.000 C 
ATOM     23  C   UNL     1     -16.037   8.692  -1.183  0.00  0.00    +0.000 C 
ATOM     24  C   UNL     1     -16.887   7.198  -4.121  0.00  0.00    +0.000 C 
ATOM     25  C   UNL     1     -15.777   9.985  -0.409  0.00  0.00    +0.000 C 
ATOM     26  C   UNL     1     -14.794   9.999  -2.690  0.00  0.00    +0.000 C 
ATOM     27  C   UNL     1     -14.995  10.727  -1.391  0.00  0.00    +0.000 C 
ATOM     28  C   UNL     1     -17.119   7.800  -1.029  0.00  0.00    +0.000 C 
ATOM     29  C   UNL     1     -17.821   6.505  -3.232  0.00  0.00    +0.000 C 
ATOM     30  C   UNL     1     -14.586   8.012  -4.832  0.00  0.00    +0.000 C 
ATOM     31  C   UNL     1     -14.780   6.332  -2.979  0.00  0.00    +0.000 C 
ATOM     32  C   UNL     1     -17.819   6.878  -1.991  0.00  0.00    +0.000 C 
ATOM     33  C   UNL     1     -15.102   9.726   0.927  0.00  0.00    +0.000 C 
ATOM     34  C   UNL     1     -19.030   5.745  -3.712  0.00  0.00    +0.000 C 
BRANCH  25  35
ATOM     35  O   UNL     1     -16.987  10.651  -0.141  0.00  0.00    +0.000 OA
ATOM     36  H   UNL     1     -17.523  10.363  -0.899  0.00  0.00    +0.000 HD
ENDBRANCH  25  35
ENDBRANCH  20  24
ENDBRANCH   3  19
TORSDOF 4
ENDMDL
MODEL 9
REMARK VINA RESULT:      -4.5     15.711     20.316
REMARK  Name = 44423609_SipholenoneA.pdbqt.pdb
REMARK  4 active torsions:
REMARK  status: ('A' for Active; 'I' for Inactive)
REMARK    1  A    between atoms: C_3  and  C_19
REMARK    2  A    between atoms: C_5  and  O_17
REMARK    3  A    between atoms: C_20  and  C_24
REMARK    4  A    between atoms: C_25  and  O_35
REMARK                            x       y       z     vdW  Elec       q    Type
REMARK                         _______ _______ _______ _____ _____    ______ ____
ROOT
ATOM      1  O   UNL     1      -1.232   4.275   0.625  0.00  0.00    +0.000 OA
ATOM      2  O   UNL     1      -2.115   6.130   3.703  0.00  0.00    +0.000 OA
ATOM      3  C   UNL     1      -2.541   6.495  -2.370  0.00  0.00    +0.000 C 
ATOM      4  C   UNL     1      -1.678   6.103  -1.172  0.00  0.00    +0.000 C 
ATOM      5  C   UNL     1      -2.960   5.444  -3.385  0.00  0.00    +0.000 C 
ATOM      6  C   UNL     1      -1.846   4.643  -0.577  0.00  0.00    +0.000 C 
ATOM      7  C   UNL     1      -2.749   4.128  -2.813  0.00  0.00    +0.000 C 
ATOM      8  C   UNL     1      -2.240   3.650  -1.495  0.00  0.00    +0.000 C 
ATOM      9  C   UNL     1      -2.017   6.924   0.003  0.00  0.00    +0.000 C 
ATOM     10  C   UNL     1      -0.177   6.302  -1.527  0.00  0.00    +0.000 C 
ATOM     11  C   UNL     1      -4.418   5.646  -3.812  0.00  0.00    +0.000 C 
ATOM     12  C   UNL     1      -2.152   6.811   1.506  0.00  0.00    +0.000 C 
ATOM     13  C   UNL     1      -1.991   4.322   1.880  0.00  0.00    +0.000 C 
ATOM     14  C   UNL     1      -2.072   5.792   2.527  0.00  0.00    +0.000 C 
ATOM     15  C   UNL     1      -1.229   3.355   2.843  0.00  0.00    +0.000 C 
ATOM     16  C   UNL     1      -3.451   3.776   1.660  0.00  0.00    +0.000 C 
ENDROOT
BRANCH   5  17
ATOM     17  O   UNL     1      -2.193   5.583  -4.555  0.00  0.00    +0.000 OA
ATOM     18  H   UNL     1      -2.354   6.519  -4.775  0.00  0.00    +0.000 HD
ENDBRANCH   5  17
BRANCH   3  19
ATOM     19  C   UNL     1      -2.734   7.890  -2.672  0.00  0.00    +0.000 C 
ATOM     20  C   UNL     1      -2.929   9.376  -2.985  0.00  0.00    +0.000 C 
BRANCH  20  24
ATOM     21  C   UNL     1      -2.065  12.717  -1.862  0.00  0.00    +0.000 C 
ATOM     22  C   UNL     1      -3.297  11.824  -2.149  0.00  0.00    +0.000 C 
ATOM     23  C   UNL     1      -1.455  13.709  -2.820  0.00  0.00    +0.000 C 
ATOM     24  C   UNL     1      -3.113  10.770  -3.269  0.00  0.00    +0.000 C 
ATOM     25  C   UNL     1      -0.275  14.454  -2.194  0.00  0.00    +0.000 C 
ATOM     26  C   UNL     1      -1.329  12.822  -0.647  0.00  0.00    +0.000 C 
ATOM     27  C   UNL     1      -0.272  13.870  -0.859  0.00  0.00    +0.000 C 
ATOM     28  C   UNL     1      -1.668  13.426  -4.185  0.00  0.00    +0.000 C 
ATOM     29  C   UNL     1      -3.029  11.203  -4.665  0.00  0.00    +0.000 C 
ATOM     30  C   UNL     1      -3.679  11.081  -0.811  0.00  0.00    +0.000 C 
ATOM     31  C   UNL     1      -4.513  12.751  -2.488  0.00  0.00    +0.000 C 
ATOM     32  C   UNL     1      -2.382  12.303  -4.889  0.00  0.00    +0.000 C 
ATOM     33  C   UNL     1      -0.448  15.962  -2.266  0.00  0.00    +0.000 C 
ATOM     34  C   UNL     1      -3.242  10.286  -5.842  0.00  0.00    +0.000 C 
BRANCH  25  35
ATOM     35  O   UNL     1       0.918  14.141  -2.870  0.00  0.00    +0.000 OA
ATOM     36  H   UNL     1       1.329  13.527  -2.236  0.00  0.00    +0.000 HD
ENDBRANCH  25  35
ENDBRANCH  20  24
ENDBRANCH   3  19
TORSDOF 4
ENDMDL
