MODEL 1
REMARK VINA RESULT:      -5.7      0.000      0.000
REMARK  Name = 445154_Resveratrol.pdbqt.pdb
REMARK  5 active torsions:
REMARK  status: ('A' for Active; 'I' for Inactive)
REMARK    1  A    between atoms: C_1  and  C_11
REMARK    2  A    between atoms: C_4  and  O_7
REMARK    3  A    between atoms: C_5  and  O_9
REMARK    4  A    between atoms: C_12  and  C_13
REMARK    5  A    between atoms: C_18  and  O_19
REMARK                            x       y       z     vdW  Elec       q    Type
REMARK                         _______ _______ _______ _____ _____    ______ ____
ROOT
ATOM      1  C   UNL     1     -14.647  11.000  -2.540  0.00  0.00    +0.000 A 
ATOM      2  C   UNL     1     -14.410  11.299  -3.881  0.00  0.00    +0.000 A 
ATOM      3  C   UNL     1     -14.439  11.968  -1.557  0.00  0.00    +0.000 A 
ATOM      4  C   UNL     1     -13.993  13.234  -1.927  0.00  0.00    +0.000 A 
ATOM      5  C   UNL     1     -13.964  12.570  -4.229  0.00  0.00    +0.000 A 
ATOM      6  C   UNL     1     -13.753  13.547  -3.261  0.00  0.00    +0.000 A 
ENDROOT
BRANCH   4   7
ATOM      7  O   UNL     1     -13.781  14.201  -0.988  0.00  0.00    +0.000 OA
ATOM      8  H   UNL     1     -13.019  13.934  -0.444  0.00  0.00    +0.000 HD
ENDBRANCH   4   7
BRANCH   5   9
ATOM      9  O   UNL     1     -13.739  12.840  -5.549  0.00  0.00    +0.000 OA
ATOM     10  H   UNL     1     -13.880  12.019  -6.052  0.00  0.00    +0.000 HD
ENDBRANCH   5   9
BRANCH   1  11
ATOM     11  C   UNL     1     -15.103   9.701  -2.169  0.00  0.00    +0.000 C 
ATOM     12  C   UNL     1     -15.486   8.606  -1.857  0.00  0.00    +0.000 C 
BRANCH  12  13
ATOM     13  C   UNL     1     -15.942   7.306  -1.486  0.00  0.00    +0.000 A 
ATOM     14  C   UNL     1     -15.372   6.176  -2.072  0.00  0.00    +0.000 A 
ATOM     15  C   UNL     1     -16.956   7.169  -0.538  0.00  0.00    +0.000 A 
ATOM     16  C   UNL     1     -15.815   4.907  -1.711  0.00  0.00    +0.000 A 
ATOM     17  C   UNL     1     -17.401   5.901  -0.175  0.00  0.00    +0.000 A 
ATOM     18  C   UNL     1     -16.827   4.780  -0.765  0.00  0.00    +0.000 A 
BRANCH  18  19
ATOM     19  O   UNL     1     -17.281   3.548  -0.392  0.00  0.00    +0.000 OA
ATOM     20  H   UNL     1     -16.626   3.150   0.207  0.00  0.00    +0.000 HD
ENDBRANCH  18  19
ENDBRANCH  12  13
ENDBRANCH   1  11
TORSDOF 5
ENDMDL
MODEL 2
REMARK VINA RESULT:      -5.7      0.039      2.007
REMARK  Name = 445154_Resveratrol.pdbqt.pdb
REMARK  5 active torsions:
REMARK  status: ('A' for Active; 'I' for Inactive)
REMARK    1  A    between atoms: C_1  and  C_11
REMARK    2  A    between atoms: C_4  and  O_7
REMARK    3  A    between atoms: C_5  and  O_9
REMARK    4  A    between atoms: C_12  and  C_13
REMARK    5  A    between atoms: C_18  and  O_19
REMARK                            x       y       z     vdW  Elec       q    Type
REMARK                         _______ _______ _______ _____ _____    ______ ____
ROOT
ATOM      1  C   UNL     1     -14.648  11.033  -2.542  0.00  0.00    +0.000 A 
ATOM      2  C   UNL     1     -14.438  12.005  -1.565  0.00  0.00    +0.000 A 
ATOM      3  C   UNL     1     -14.416  11.326  -3.885  0.00  0.00    +0.000 A 
ATOM      4  C   UNL     1     -13.972  12.597  -4.242  0.00  0.00    +0.000 A 
ATOM      5  C   UNL     1     -13.995  13.268  -1.942  0.00  0.00    +0.000 A 
ATOM      6  C   UNL     1     -13.758  13.576  -3.278  0.00  0.00    +0.000 A 
ENDROOT
BRANCH   4   7
ATOM      7  O   UNL     1     -13.736  12.912  -5.548  0.00  0.00    +0.000 OA
ATOM      8  H   UNL     1     -14.412  13.552  -5.833  0.00  0.00    +0.000 HD
ENDBRANCH   4   7
BRANCH   5   9
ATOM      9  O   UNL     1     -13.795  14.204  -0.968  0.00  0.00    +0.000 OA
ATOM     10  H   UNL     1     -13.363  13.765  -0.214  0.00  0.00    +0.000 HD
ENDBRANCH   5   9
BRANCH   1  11
ATOM     11  C   UNL     1     -15.104   9.734  -2.168  0.00  0.00    +0.000 C 
ATOM     12  C   UNL     1     -15.488   8.640  -1.854  0.00  0.00    +0.000 C 
BRANCH  12  13
ATOM     13  C   UNL     1     -15.943   7.340  -1.482  0.00  0.00    +0.000 A 
ATOM     14  C   UNL     1     -15.391   6.211  -2.086  0.00  0.00    +0.000 A 
ATOM     15  C   UNL     1     -16.938   7.202  -0.514  0.00  0.00    +0.000 A 
ATOM     16  C   UNL     1     -15.833   4.942  -1.724  0.00  0.00    +0.000 A 
ATOM     17  C   UNL     1     -17.383   5.935  -0.149  0.00  0.00    +0.000 A 
ATOM     18  C   UNL     1     -16.827   4.814  -0.758  0.00  0.00    +0.000 A 
BRANCH  18  19
ATOM     19  O   UNL     1     -17.279   3.582  -0.384  0.00  0.00    +0.000 OA
ATOM     20  H   UNL     1     -17.749   3.188  -1.139  0.00  0.00    +0.000 HD
ENDBRANCH  18  19
ENDBRANCH  12  13
ENDBRANCH   1  11
TORSDOF 5
ENDMDL
MODEL 3
REMARK VINA RESULT:      -5.3     14.064     16.276
REMARK  Name = 445154_Resveratrol.pdbqt.pdb
REMARK  5 active torsions:
REMARK  status: ('A' for Active; 'I' for Inactive)
REMARK    1  A    between atoms: C_1  and  C_11
REMARK    2  A    between atoms: C_4  and  O_7
REMARK    3  A    between atoms: C_5  and  O_9
REMARK    4  A    between atoms: C_12  and  C_13
REMARK    5  A    between atoms: C_18  and  O_19
REMARK                            x       y       z     vdW  Elec       q    Type
REMARK                         _______ _______ _______ _____ _____    ______ ____
ROOT
ATOM      1  C   UNL     1     -22.572  13.653   8.686  0.00  0.00    +0.000 A 
ATOM      2  C   UNL     1     -23.281  13.940   7.520  0.00  0.00    +0.000 A 
ATOM      3  C   UNL     1     -22.284  12.331   9.024  0.00  0.00    +0.000 A 
ATOM      4  C   UNL     1     -22.710  11.302   8.189  0.00  0.00    +0.000 A 
ATOM      5  C   UNL     1     -23.698  12.897   6.699  0.00  0.00    +0.000 A 
ATOM      6  C   UNL     1     -23.418  11.573   7.023  0.00  0.00    +0.000 A 
ENDROOT
BRANCH   4   7
ATOM      7  O   UNL     1     -22.441   9.999   8.495  0.00  0.00    +0.000 OA
ATOM      8  H   UNL     1     -22.346   9.505   7.661  0.00  0.00    +0.000 HD
ENDBRANCH   4   7
BRANCH   5   9
ATOM      9  O   UNL     1     -24.391  13.202   5.563  0.00  0.00    +0.000 OA
ATOM     10  H   UNL     1     -24.984  12.456   5.363  0.00  0.00    +0.000 HD
ENDBRANCH   5   9
BRANCH   1  11
ATOM     11  C   UNL     1     -22.140  14.713   9.536  0.00  0.00    +0.000 C 
ATOM     12  C   UNL     1     -21.777  15.606  10.253  0.00  0.00    +0.000 C 
BRANCH  12  13
ATOM     13  C   UNL     1     -21.346  16.666  11.104  0.00  0.00    +0.000 A 
ATOM     14  C   UNL     1     -20.250  16.478  11.947  0.00  0.00    +0.000 A 
ATOM     15  C   UNL     1     -22.020  17.887  11.092  0.00  0.00    +0.000 A 
ATOM     16  C   UNL     1     -19.827  17.511  12.778  0.00  0.00    +0.000 A 
ATOM     17  C   UNL     1     -21.600  18.922  11.922  0.00  0.00    +0.000 A 
ATOM     18  C   UNL     1     -20.506  18.726  12.760  0.00  0.00    +0.000 A 
BRANCH  18  19
ATOM     19  O   UNL     1     -20.113  19.755  13.564  0.00  0.00    +0.000 OA
ATOM     20  H   UNL     1     -20.901  20.114  14.008  0.00  0.00    +0.000 HD
ENDBRANCH  18  19
ENDBRANCH  12  13
ENDBRANCH   1  11
TORSDOF 5
ENDMDL
MODEL 4
REMARK VINA RESULT:      -5.2      2.254      8.090
REMARK  Name = 445154_Resveratrol.pdbqt.pdb
REMARK  5 active torsions:
REMARK  status: ('A' for Active; 'I' for Inactive)
REMARK    1  A    between atoms: C_1  and  C_11
REMARK    2  A    between atoms: C_4  and  O_7
REMARK    3  A    between atoms: C_5  and  O_9
REMARK    4  A    between atoms: C_12  and  C_13
REMARK    5  A    between atoms: C_18  and  O_19
REMARK                            x       y       z     vdW  Elec       q    Type
REMARK                         _______ _______ _______ _____ _____    ______ ____
ROOT
ATOM      1  C   UNL     1     -15.380   4.462  -2.163  0.00  0.00    +0.000 A 
ATOM      2  C   UNL     1     -14.346   3.619  -1.761  0.00  0.00    +0.000 A 
ATOM      3  C   UNL     1     -16.509   3.938  -2.793  0.00  0.00    +0.000 A 
ATOM      4  C   UNL     1     -16.593   2.566  -3.015  0.00  0.00    +0.000 A 
ATOM      5  C   UNL     1     -14.449   2.251  -1.993  0.00  0.00    +0.000 A 
ATOM      6  C   UNL     1     -15.569   1.713  -2.619  0.00  0.00    +0.000 A 
ENDROOT
BRANCH   4   7
ATOM      7  O   UNL     1     -17.686   2.026  -3.629  0.00  0.00    +0.000 OA
ATOM      8  H   UNL     1     -17.771   2.431  -4.510  0.00  0.00    +0.000 HD
ENDBRANCH   4   7
BRANCH   5   9
ATOM      9  O   UNL     1     -13.424   1.444  -1.590  0.00  0.00    +0.000 OA
ATOM     10  H   UNL     1     -12.637   1.673  -2.117  0.00  0.00    +0.000 HD
ENDBRANCH   5   9
BRANCH   1  11
ATOM     11  C   UNL     1     -15.286   5.866  -1.931  0.00  0.00    +0.000 C 
ATOM     12  C   UNL     1     -15.206   7.049  -1.737  0.00  0.00    +0.000 C 
BRANCH  12  13
ATOM     13  C   UNL     1     -15.111   8.453  -1.506  0.00  0.00    +0.000 A 
ATOM     14  C   UNL     1     -15.181   8.950  -0.204  0.00  0.00    +0.000 A 
ATOM     15  C   UNL     1     -14.951   9.326  -2.582  0.00  0.00    +0.000 A 
ATOM     16  C   UNL     1     -15.089  10.320   0.024  0.00  0.00    +0.000 A 
ATOM     17  C   UNL     1     -14.859  10.697  -2.358  0.00  0.00    +0.000 A 
ATOM     18  C   UNL     1     -14.929  11.183  -1.056  0.00  0.00    +0.000 A 
BRANCH  18  19
ATOM     19  O   UNL     1     -14.836  12.531  -0.862  0.00  0.00    +0.000 OA
ATOM     20  H   UNL     1     -14.140  12.876  -1.447  0.00  0.00    +0.000 HD
ENDBRANCH  18  19
ENDBRANCH  12  13
ENDBRANCH   1  11
TORSDOF 5
ENDMDL
MODEL 5
REMARK VINA RESULT:      -5.2     12.149     14.189
REMARK  Name = 445154_Resveratrol.pdbqt.pdb
REMARK  5 active torsions:
REMARK  status: ('A' for Active; 'I' for Inactive)
REMARK    1  A    between atoms: C_1  and  C_11
REMARK    2  A    between atoms: C_4  and  O_7
REMARK    3  A    between atoms: C_5  and  O_9
REMARK    4  A    between atoms: C_12  and  C_13
REMARK    5  A    between atoms: C_18  and  O_19
REMARK                            x       y       z     vdW  Elec       q    Type
REMARK                         _______ _______ _______ _____ _____    ______ ____
ROOT
ATOM      1  C   UNL     1     -24.394   8.646   5.668  0.00  0.00    +0.000 A 
ATOM      2  C   UNL     1     -24.200   7.487   6.418  0.00  0.00    +0.000 A 
ATOM      3  C   UNL     1     -24.943   8.570   4.388  0.00  0.00    +0.000 A 
ATOM      4  C   UNL     1     -25.297   7.328   3.868  0.00  0.00    +0.000 A 
ATOM      5  C   UNL     1     -24.559   6.256   5.880  0.00  0.00    +0.000 A 
ATOM      6  C   UNL     1     -25.110   6.163   4.606  0.00  0.00    +0.000 A 
ENDROOT
BRANCH   4   7
ATOM      7  O   UNL     1     -25.838   7.223   2.619  0.00  0.00    +0.000 OA
ATOM      8  H   UNL     1     -25.706   8.071   2.160  0.00  0.00    +0.000 HD
ENDBRANCH   4   7
BRANCH   5   9
ATOM      9  O   UNL     1     -24.360   5.135   6.633  0.00  0.00    +0.000 OA
ATOM     10  H   UNL     1     -23.479   4.781   6.419  0.00  0.00    +0.000 HD
ENDBRANCH   5   9
BRANCH   1  11
ATOM     11  C   UNL     1     -24.028   9.914   6.208  0.00  0.00    +0.000 C 
ATOM     12  C   UNL     1     -23.721  10.983   6.664  0.00  0.00    +0.000 C 
BRANCH  12  13
ATOM     13  C   UNL     1     -23.355  12.250   7.204  0.00  0.00    +0.000 A 
ATOM     14  C   UNL     1     -23.831  13.421   6.615  0.00  0.00    +0.000 A 
ATOM     15  C   UNL     1     -22.521  12.317   8.321  0.00  0.00    +0.000 A 
ATOM     16  C   UNL     1     -23.476  14.660   7.141  0.00  0.00    +0.000 A 
ATOM     17  C   UNL     1     -22.163  13.553   8.850  0.00  0.00    +0.000 A 
ATOM     18  C   UNL     1     -22.643  14.716   8.255  0.00  0.00    +0.000 A 
BRANCH  18  19
ATOM     19  O   UNL     1     -22.279  15.916   8.791  0.00  0.00    +0.000 OA
ATOM     20  H   UNL     1     -22.075  16.527   8.062  0.00  0.00    +0.000 HD
ENDBRANCH  18  19
ENDBRANCH  12  13
ENDBRANCH   1  11
TORSDOF 5
ENDMDL
MODEL 6
REMARK VINA RESULT:      -5.2     23.319     25.422
REMARK  Name = 445154_Resveratrol.pdbqt.pdb
REMARK  5 active torsions:
REMARK  status: ('A' for Active; 'I' for Inactive)
REMARK    1  A    between atoms: C_1  and  C_11
REMARK    2  A    between atoms: C_4  and  O_7
REMARK    3  A    between atoms: C_5  and  O_9
REMARK    4  A    between atoms: C_12  and  C_13
REMARK    5  A    between atoms: C_18  and  O_19
REMARK                            x       y       z     vdW  Elec       q    Type
REMARK                         _______ _______ _______ _____ _____    ______ ____
ROOT
ATOM      1  C   UNL     1     -14.698  18.930  21.619  0.00  0.00    +0.000 A 
ATOM      2  C   UNL     1     -15.930  19.198  21.024  0.00  0.00    +0.000 A 
ATOM      3  C   UNL     1     -14.609  18.749  22.998  0.00  0.00    +0.000 A 
ATOM      4  C   UNL     1     -15.760  18.837  23.776  0.00  0.00    +0.000 A 
ATOM      5  C   UNL     1     -17.068  19.282  21.819  0.00  0.00    +0.000 A 
ATOM      6  C   UNL     1     -16.996  19.103  23.197  0.00  0.00    +0.000 A 
ENDROOT
BRANCH   4   7
ATOM      7  O   UNL     1     -15.703  18.663  25.129  0.00  0.00    +0.000 OA
ATOM      8  H   UNL     1     -16.607  18.736  25.483  0.00  0.00    +0.000 HD
ENDBRANCH   4   7
BRANCH   5   9
ATOM      9  O   UNL     1     -18.264  19.545  21.215  0.00  0.00    +0.000 OA
ATOM     10  H   UNL     1     -18.846  18.777  21.353  0.00  0.00    +0.000 HD
ENDBRANCH   5   9
BRANCH   1  11
ATOM     11  C   UNL     1     -13.523  18.843  20.815  0.00  0.00    +0.000 C 
ATOM     12  C   UNL     1     -12.533  18.769  20.138  0.00  0.00    +0.000 C 
BRANCH  12  13
ATOM     13  C   UNL     1     -11.358  18.680  19.335  0.00  0.00    +0.000 A 
ATOM     14  C   UNL     1     -10.830  19.830  18.747  0.00  0.00    +0.000 A 
ATOM     15  C   UNL     1     -10.739  17.446  19.140  0.00  0.00    +0.000 A 
ATOM     16  C   UNL     1      -9.683  19.746  17.963  0.00  0.00    +0.000 A 
ATOM     17  C   UNL     1      -9.592  17.358  18.356  0.00  0.00    +0.000 A 
ATOM     18  C   UNL     1      -9.073  18.509  17.773  0.00  0.00    +0.000 A 
BRANCH  18  19
ATOM     19  O   UNL     1      -7.948  18.398  17.009  0.00  0.00    +0.000 OA
ATOM     20  H   UNL     1      -7.183  18.305  17.604  0.00  0.00    +0.000 HD
ENDBRANCH  18  19
ENDBRANCH  12  13
ENDBRANCH   1  11
TORSDOF 5
ENDMDL
MODEL 7
REMARK VINA RESULT:      -5.1     12.117     14.246
REMARK  Name = 445154_Resveratrol.pdbqt.pdb
REMARK  5 active torsions:
REMARK  status: ('A' for Active; 'I' for Inactive)
REMARK    1  A    between atoms: C_1  and  C_11
REMARK    2  A    between atoms: C_4  and  O_7
REMARK    3  A    between atoms: C_5  and  O_9
REMARK    4  A    between atoms: C_12  and  C_13
REMARK    5  A    between atoms: C_18  and  O_19
REMARK                            x       y       z     vdW  Elec       q    Type
REMARK                         _______ _______ _______ _____ _____    ______ ____
ROOT
ATOM      1  C   UNL     1     -24.998   6.973   5.367  0.00  0.00    +0.000 A 
ATOM      2  C   UNL     1     -25.238   5.892   6.214  0.00  0.00    +0.000 A 
ATOM      3  C   UNL     1     -25.277   6.872   4.004  0.00  0.00    +0.000 A 
ATOM      4  C   UNL     1     -25.799   5.684   3.498  0.00  0.00    +0.000 A 
ATOM      5  C   UNL     1     -25.759   4.714   5.689  0.00  0.00    +0.000 A 
ATOM      6  C   UNL     1     -26.044   4.598   4.332  0.00  0.00    +0.000 A 
ENDROOT
BRANCH   4   7
ATOM      7  O   UNL     1     -26.083   5.558   2.169  0.00  0.00    +0.000 OA
ATOM      8  H   UNL     1     -26.561   6.356   1.884  0.00  0.00    +0.000 HD
ENDBRANCH   4   7
BRANCH   5   9
ATOM      9  O   UNL     1     -25.987   3.669   6.537  0.00  0.00    +0.000 OA
ATOM     10  H   UNL     1     -25.224   3.598   7.138  0.00  0.00    +0.000 HD
ENDBRANCH   5   9
BRANCH   1  11
ATOM     11  C   UNL     1     -24.463   8.186   5.893  0.00  0.00    +0.000 C 
ATOM     12  C   UNL     1     -24.012   9.208   6.336  0.00  0.00    +0.000 C 
BRANCH  12  13
ATOM     13  C   UNL     1     -23.478  10.421   6.861  0.00  0.00    +0.000 A 
ATOM     14  C   UNL     1     -22.646  10.387   7.980  0.00  0.00    +0.000 A 
ATOM     15  C   UNL     1     -23.788  11.638   6.255  0.00  0.00    +0.000 A 
ATOM     16  C   UNL     1     -22.123  11.569   8.495  0.00  0.00    +0.000 A 
ATOM     17  C   UNL     1     -23.267  12.823   6.767  0.00  0.00    +0.000 A 
ATOM     18  C   UNL     1     -22.439  12.779   7.884  0.00  0.00    +0.000 A 
BRANCH  18  19
ATOM     19  O   UNL     1     -21.940  13.954   8.367  0.00  0.00    +0.000 OA
ATOM     20  H   UNL     1     -22.530  14.268   9.074  0.00  0.00    +0.000 HD
ENDBRANCH  18  19
ENDBRANCH  12  13
ENDBRANCH   1  11
TORSDOF 5
ENDMDL
MODEL 8
REMARK VINA RESULT:      -5.0     12.453     13.853
REMARK  Name = 445154_Resveratrol.pdbqt.pdb
REMARK  5 active torsions:
REMARK  status: ('A' for Active; 'I' for Inactive)
REMARK    1  A    between atoms: C_1  and  C_11
REMARK    2  A    between atoms: C_4  and  O_7
REMARK    3  A    between atoms: C_5  and  O_9
REMARK    4  A    between atoms: C_12  and  C_13
REMARK    5  A    between atoms: C_18  and  O_19
REMARK                            x       y       z     vdW  Elec       q    Type
REMARK                         _______ _______ _______ _____ _____    ______ ____
ROOT
ATOM      1  C   UNL     1     -22.888  13.764   9.243  0.00  0.00    +0.000 A 
ATOM      2  C   UNL     1     -21.668  14.428   9.128  0.00  0.00    +0.000 A 
ATOM      3  C   UNL     1     -23.768  14.085  10.276  0.00  0.00    +0.000 A 
ATOM      4  C   UNL     1     -23.418  15.076  11.190  0.00  0.00    +0.000 A 
ATOM      5  C   UNL     1     -21.337  15.415  10.052  0.00  0.00    +0.000 A 
ATOM      6  C   UNL     1     -22.204  15.748  11.087  0.00  0.00    +0.000 A 
ENDROOT
BRANCH   4   7
ATOM      7  O   UNL     1     -24.259  15.412  12.210  0.00  0.00    +0.000 OA
ATOM      8  H   UNL     1     -25.158  15.501  11.846  0.00  0.00    +0.000 HD
ENDBRANCH   4   7
BRANCH   5   9
ATOM      9  O   UNL     1     -20.137  16.052   9.919  0.00  0.00    +0.000 OA
ATOM     10  H   UNL     1     -20.080  16.399   9.011  0.00  0.00    +0.000 HD
ENDBRANCH   5   9
BRANCH   1  11
ATOM     11  C   UNL     1     -23.239  12.750   8.303  0.00  0.00    +0.000 C 
ATOM     12  C   UNL     1     -23.535  11.897   7.511  0.00  0.00    +0.000 C 
BRANCH  12  13
ATOM     13  C   UNL     1     -23.885  10.884   6.570  0.00  0.00    +0.000 A 
ATOM     14  C   UNL     1     -24.493  11.235   5.365  0.00  0.00    +0.000 A 
ATOM     15  C   UNL     1     -23.618   9.545   6.857  0.00  0.00    +0.000 A 
ATOM     16  C   UNL     1     -24.835  10.248   4.445  0.00  0.00    +0.000 A 
ATOM     17  C   UNL     1     -23.959   8.555   5.940  0.00  0.00    +0.000 A 
ATOM     18  C   UNL     1     -24.566   8.914   4.741  0.00  0.00    +0.000 A 
BRANCH  18  19
ATOM     19  O   UNL     1     -24.891   7.926   3.858  0.00  0.00    +0.000 OA
ATOM     20  H   UNL     1     -24.421   8.097   3.023  0.00  0.00    +0.000 HD
ENDBRANCH  18  19
ENDBRANCH  12  13
ENDBRANCH   1  11
TORSDOF 5
ENDMDL
MODEL 9
REMARK VINA RESULT:      -4.8     19.815     20.388
REMARK  Name = 445154_Resveratrol.pdbqt.pdb
REMARK  5 active torsions:
REMARK  status: ('A' for Active; 'I' for Inactive)
REMARK    1  A    between atoms: C_1  and  C_11
REMARK    2  A    between atoms: C_4  and  O_7
REMARK    3  A    between atoms: C_5  and  O_9
REMARK    4  A    between atoms: C_12  and  C_13
REMARK    5  A    between atoms: C_18  and  O_19
REMARK                            x       y       z     vdW  Elec       q    Type
REMARK                         _______ _______ _______ _____ _____    ______ ____
ROOT
ATOM      1  C   UNL     1       5.130   7.880   5.257  0.00  0.00    +0.000 A 
ATOM      2  C   UNL     1       6.254   7.979   4.437  0.00  0.00    +0.000 A 
ATOM      3  C   UNL     1       5.242   8.098   6.630  0.00  0.00    +0.000 A 
ATOM      4  C   UNL     1       6.484   8.416   7.174  0.00  0.00    +0.000 A 
ATOM      5  C   UNL     1       7.485   8.297   5.001  0.00  0.00    +0.000 A 
ATOM      6  C   UNL     1       7.613   8.519   6.368  0.00  0.00    +0.000 A 
ENDROOT
BRANCH   4   7
ATOM      7  O   UNL     1       6.623   8.635   8.514  0.00  0.00    +0.000 OA
ATOM      8  H   UNL     1       6.097   7.966   8.987  0.00  0.00    +0.000 HD
ENDBRANCH   4   7
BRANCH   5   9
ATOM      9  O   UNL     1       8.571   8.389   4.178  0.00  0.00    +0.000 OA
ATOM     10  H   UNL     1       9.358   8.130   4.690  0.00  0.00    +0.000 HD
ENDBRANCH   5   9
BRANCH   1  11
ATOM     11  C   UNL     1       3.862   7.554   4.692  0.00  0.00    +0.000 C 
ATOM     12  C   UNL     1       2.794   7.279   4.216  0.00  0.00    +0.000 C 
BRANCH  12  13
ATOM     13  C   UNL     1       1.527   6.952   3.650  0.00  0.00    +0.000 A 
ATOM     14  C   UNL     1       1.232   7.330   2.340  0.00  0.00    +0.000 A 
ATOM     15  C   UNL     1       0.585   6.256   4.408  0.00  0.00    +0.000 A 
ATOM     16  C   UNL     1      -0.004   7.011   1.786  0.00  0.00    +0.000 A 
ATOM     17  C   UNL     1      -0.652   5.936   3.857  0.00  0.00    +0.000 A 
ATOM     18  C   UNL     1      -0.938   6.317   2.550  0.00  0.00    +0.000 A 
BRANCH  18  19
ATOM     19  O   UNL     1      -2.158   5.992   2.032  0.00  0.00    +0.000 OA
ATOM     20  H   UNL     1      -2.054   5.843   1.076  0.00  0.00    +0.000 HD
ENDBRANCH  18  19
ENDBRANCH  12  13
ENDBRANCH   1  11
TORSDOF 5
ENDMDL
