MODEL 1
REMARK VINA RESULT:      -6.7      0.000      0.000
REMARK  Name = 448438_Violaxanthin.pdbqt.pdb
REMARK  16 active torsions:
REMARK  status: ('A' for Active; 'I' for Inactive)
REMARK    1  A    between atoms: C_1  and  C_5
REMARK    2  A    between atoms: C_2  and  C_27
REMARK    3  A    between atoms: C_3  and  C_5
REMARK    4  A    between atoms: C_3  and  C_7
REMARK    5  A    between atoms: C_6  and  C_10
REMARK    6  A    between atoms: C_8  and  C_10
REMARK    7  A    between atoms: C_8  and  C_12
REMARK    8  A    between atoms: C_11  and  C_14
REMARK    9  A    between atoms: C_19  and  O_23
REMARK   10  A    between atoms: C_25  and  C_27
REMARK   11  A    between atoms: C_25  and  C_29
REMARK   12  A    between atoms: C_28  and  C_32
REMARK   13  A    between atoms: C_30  and  C_32
REMARK   14  A    between atoms: C_30  and  C_34
REMARK   15  A    between atoms: C_33  and  C_36
REMARK   16  A    between atoms: C_41  and  O_45
REMARK                            x       y       z     vdW  Elec       q    Type
REMARK                         _______ _______ _______ _____ _____    ______ ____
ROOT
ATOM      1  C   UNL     1     -11.606  13.658  -4.721  0.00  0.00    +0.000 C 
ATOM      2  C   UNL     1     -10.537  14.201  -4.709  0.00  0.00    +0.000 C 
ENDROOT
BRANCH   2   3
ATOM      3  C   UNL     1      -9.169  14.894  -4.696  0.00  0.00    +0.000 C 
BRANCH   3   4
ATOM      4  C   UNL     1      -8.012  15.478  -4.683  0.00  0.00    +0.000 C 
ATOM      5  C   UNL     1      -7.186  15.525  -5.932  0.00  0.00    +0.000 C 
BRANCH   4   7
ATOM      6  C   UNL     1      -7.069  16.462  -2.450  0.00  0.00    +0.000 C 
ATOM      7  C   UNL     1      -7.503  16.010  -3.475  0.00  0.00    +0.000 C 
BRANCH   6   8
ATOM      8  C   UNL     1      -6.517  17.037  -1.140  0.00  0.00    +0.000 C 
BRANCH   8   9
ATOM      9  C   UNL     1      -6.052  17.524  -0.031  0.00  0.00    +0.000 C 
ATOM     10  C   UNL     1      -6.728  18.697   0.611  0.00  0.00    +0.000 C 
BRANCH   9  12
ATOM     11  C   UNL     1      -4.082  16.308   1.194  0.00  0.00    +0.000 C 
ATOM     12  C   UNL     1      -4.985  16.871   0.633  0.00  0.00    +0.000 C 
BRANCH  11  14
ATOM     13  O   UNL     1      -3.058  14.191   1.535  0.00  0.00    +0.000 OA
ATOM     14  C   UNL     1      -2.999  15.606   1.866  0.00  0.00    +0.000 C 
ATOM     15  C   UNL     1      -1.922  14.887   1.026  0.00  0.00    +0.000 C 
ATOM     16  C   UNL     1      -2.656  15.960   3.352  0.00  0.00    +0.000 C 
ATOM     17  C   UNL     1      -0.719  14.517   1.698  0.00  0.00    +0.000 C 
ATOM     18  C   UNL     1      -1.376  15.314   3.674  0.00  0.00    +0.000 C 
ATOM     19  C   UNL     1      -0.315  14.639   3.038  0.00  0.00    +0.000 C 
ATOM     20  C   UNL     1      -1.878  14.947  -0.503  0.00  0.00    +0.000 C 
ATOM     21  C   UNL     1      -2.505  17.500   3.399  0.00  0.00    +0.000 C 
ATOM     22  C   UNL     1      -3.829  15.443   4.212  0.00  0.00    +0.000 C 
BRANCH  19  23
ATOM     23  O   UNL     1       0.415  13.669   3.655  0.00  0.00    +0.000 OA
ATOM     24  H   UNL     1       0.059  13.429   4.530  0.00  0.00    +0.000 HD
ENDBRANCH  19  23
ENDBRANCH  11  14
ENDBRANCH   9  12
ENDBRANCH   8   9
ENDBRANCH   6   8
ENDBRANCH   4   7
ENDBRANCH   3   4
ENDBRANCH   2   3
BRANCH   1  25
ATOM     25  C   UNL     1     -12.974  12.964  -4.734  0.00  0.00    +0.000 C 
BRANCH  25  26
ATOM     26  C   UNL     1     -14.129  12.378  -4.745  0.00  0.00    +0.000 C 
ATOM     27  C   UNL     1     -15.099  12.662  -5.852  0.00  0.00    +0.000 C 
BRANCH  26  29
ATOM     28  C   UNL     1     -14.745  10.669  -2.864  0.00  0.00    +0.000 C 
ATOM     29  C   UNL     1     -14.464  11.453  -3.729  0.00  0.00    +0.000 C 
BRANCH  28  30
ATOM     30  C   UNL     1     -15.100   9.670  -1.755  0.00  0.00    +0.000 C 
BRANCH  30  31
ATOM     31  C   UNL     1     -15.396   8.829  -0.814  0.00  0.00    +0.000 C 
ATOM     32  C   UNL     1     -15.510   9.302   0.603  0.00  0.00    +0.000 C 
BRANCH  31  34
ATOM     33  C   UNL     1     -15.881   6.322  -1.401  0.00  0.00    +0.000 C 
ATOM     34  C   UNL     1     -15.659   7.474  -1.135  0.00  0.00    +0.000 C 
BRANCH  33  36
ATOM     35  O   UNL     1     -15.726   4.640  -3.080  0.00  0.00    +0.000 OA
ATOM     36  C   UNL     1     -16.154   4.928  -1.718  0.00  0.00    +0.000 C 
ATOM     37  C   UNL     1     -14.985   3.979  -2.056  0.00  0.00    +0.000 C 
ATOM     38  C   UNL     1     -17.516   4.288  -1.268  0.00  0.00    +0.000 C 
ATOM     39  C   UNL     1     -15.250   2.578  -2.015  0.00  0.00    +0.000 C 
ATOM     40  C   UNL     1     -17.389   2.840  -1.443  0.00  0.00    +0.000 C 
ATOM     41  C   UNL     1     -16.426   1.858  -1.748  0.00  0.00    +0.000 C 
ATOM     42  C   UNL     1     -13.513   4.398  -2.008  0.00  0.00    +0.000 C 
ATOM     43  C   UNL     1     -18.606   4.931  -2.157  0.00  0.00    +0.000 C 
ATOM     44  C   UNL     1     -17.675   4.655   0.230  0.00  0.00    +0.000 C 
BRANCH  41  45
ATOM     45  O   UNL     1     -16.425   0.649  -1.122  0.00  0.00    +0.000 OA
ATOM     46  H   UNL     1     -17.320   0.270  -1.042  0.00  0.00    +0.000 HD
ENDBRANCH  41  45
ENDBRANCH  33  36
ENDBRANCH  31  34
ENDBRANCH  30  31
ENDBRANCH  28  30
ENDBRANCH  26  29
ENDBRANCH  25  26
ENDBRANCH   1  25
TORSDOF 16
ENDMDL
MODEL 2
REMARK VINA RESULT:      -6.5      6.260     13.920
REMARK  Name = 448438_Violaxanthin.pdbqt.pdb
REMARK  16 active torsions:
REMARK  status: ('A' for Active; 'I' for Inactive)
REMARK    1  A    between atoms: C_1  and  C_5
REMARK    2  A    between atoms: C_2  and  C_27
REMARK    3  A    between atoms: C_3  and  C_5
REMARK    4  A    between atoms: C_3  and  C_7
REMARK    5  A    between atoms: C_6  and  C_10
REMARK    6  A    between atoms: C_8  and  C_10
REMARK    7  A    between atoms: C_8  and  C_12
REMARK    8  A    between atoms: C_11  and  C_14
REMARK    9  A    between atoms: C_19  and  O_23
REMARK   10  A    between atoms: C_25  and  C_27
REMARK   11  A    between atoms: C_25  and  C_29
REMARK   12  A    between atoms: C_28  and  C_32
REMARK   13  A    between atoms: C_30  and  C_32
REMARK   14  A    between atoms: C_30  and  C_34
REMARK   15  A    between atoms: C_33  and  C_36
REMARK   16  A    between atoms: C_41  and  O_45
REMARK                            x       y       z     vdW  Elec       q    Type
REMARK                         _______ _______ _______ _____ _____    ______ ____
ROOT
ATOM      1  C   UNL     1      -9.266   4.196  -4.389  0.00  0.00    +0.000 C 
ATOM      2  C   UNL     1     -10.414   4.169  -4.044  0.00  0.00    +0.000 C 
ENDROOT
BRANCH   2   3
ATOM      3  C   UNL     1     -11.883   4.133  -3.605  0.00  0.00    +0.000 C 
BRANCH   3   4
ATOM      4  C   UNL     1     -13.125   4.102  -3.236  0.00  0.00    +0.000 C 
ATOM      5  C   UNL     1     -13.856   2.794  -3.190  0.00  0.00    +0.000 C 
BRANCH   4   7
ATOM      6  C   UNL     1     -14.386   6.329  -2.698  0.00  0.00    +0.000 C 
ATOM      7  C   UNL     1     -13.807   5.306  -2.945  0.00  0.00    +0.000 C 
BRANCH   6   8
ATOM      8  C   UNL     1     -15.127   7.634  -2.383  0.00  0.00    +0.000 C 
BRANCH   8   9
ATOM      9  C   UNL     1     -15.754   8.737  -2.114  0.00  0.00    +0.000 C 
ATOM     10  C   UNL     1     -16.862   8.740  -1.106  0.00  0.00    +0.000 C 
BRANCH   9  12
ATOM     11  C   UNL     1     -14.936  10.997  -3.157  0.00  0.00    +0.000 C 
ATOM     12  C   UNL     1     -15.310   9.957  -2.682  0.00  0.00    +0.000 C 
BRANCH  11  14
ATOM     13  O   UNL     1     -15.260  13.351  -3.116  0.00  0.00    +0.000 OA
ATOM     14  C   UNL     1     -14.495  12.267  -3.713  0.00  0.00    +0.000 C 
ATOM     15  C   UNL     1     -13.873  13.330  -2.783  0.00  0.00    +0.000 C 
ATOM     16  C   UNL     1     -14.212  12.379  -5.249  0.00  0.00    +0.000 C 
ATOM     17  C   UNL     1     -13.155  14.393  -3.407  0.00  0.00    +0.000 C 
ATOM     18  C   UNL     1     -13.531  13.662  -5.479  0.00  0.00    +0.000 C 
ATOM     19  C   UNL     1     -12.925  14.708  -4.756  0.00  0.00    +0.000 C 
ATOM     20  C   UNL     1     -13.607  13.084  -1.295  0.00  0.00    +0.000 C 
ATOM     21  C   UNL     1     -13.267  11.202  -5.595  0.00  0.00    +0.000 C 
ATOM     22  C   UNL     1     -15.579  12.283  -5.959  0.00  0.00    +0.000 C 
BRANCH  19  23
ATOM     23  O   UNL     1     -12.916  15.997  -5.197  0.00  0.00    +0.000 OA
ATOM     24  H   UNL     1     -12.653  16.073  -6.132  0.00  0.00    +0.000 HD
ENDBRANCH  19  23
ENDBRANCH  11  14
ENDBRANCH   9  12
ENDBRANCH   8   9
ENDBRANCH   6   8
ENDBRANCH   4   7
ENDBRANCH   3   4
ENDBRANCH   2   3
BRANCH   1  25
ATOM     25  C   UNL     1      -7.797   4.231  -4.829  0.00  0.00    +0.000 C 
BRANCH  25  26
ATOM     26  C   UNL     1      -6.556   4.262  -5.201  0.00  0.00    +0.000 C 
ATOM     27  C   UNL     1      -6.104   3.425  -6.361  0.00  0.00    +0.000 C 
BRANCH  26  29
ATOM     28  C   UNL     1      -4.857   5.817  -3.964  0.00  0.00    +0.000 C 
ATOM     29  C   UNL     1      -5.636   5.101  -4.531  0.00  0.00    +0.000 C 
BRANCH  28  30
ATOM     30  C   UNL     1      -3.863   6.737  -3.243  0.00  0.00    +0.000 C 
BRANCH  30  31
ATOM     31  C   UNL     1      -3.027   7.517  -2.631  0.00  0.00    +0.000 C 
ATOM     32  C   UNL     1      -2.738   8.880  -3.182  0.00  0.00    +0.000 C 
BRANCH  31  34
ATOM     33  C   UNL     1      -1.915   6.736  -0.391  0.00  0.00    +0.000 C 
ATOM     34  C   UNL     1      -2.427   7.097  -1.418  0.00  0.00    +0.000 C 
BRANCH  33  36
ATOM     35  O   UNL     1      -0.055   5.585   0.551  0.00  0.00    +0.000 OA
ATOM     36  C   UNL     1      -1.291   6.296   0.848  0.00  0.00    +0.000 C 
ATOM     37  C   UNL     1       0.106   6.829   1.230  0.00  0.00    +0.000 C 
ATOM     38  C   UNL     1      -2.186   5.689   1.986  0.00  0.00    +0.000 C 
ATOM     39  C   UNL     1       0.522   6.656   2.584  0.00  0.00    +0.000 C 
ATOM     40  C   UNL     1      -1.359   5.623   3.193  0.00  0.00    +0.000 C 
ATOM     41  C   UNL     1      -0.104   6.039   3.680  0.00  0.00    +0.000 C 
ATOM     42  C   UNL     1       0.869   7.872   0.409  0.00  0.00    +0.000 C 
ATOM     43  C   UNL     1      -2.652   4.307   1.474  0.00  0.00    +0.000 C 
ATOM     44  C   UNL     1      -3.360   6.684   2.170  0.00  0.00    +0.000 C 
BRANCH  41  45
ATOM     45  O   UNL     1       0.049   6.479   4.960  0.00  0.00    +0.000 OA
ATOM     46  H   UNL     1       0.744   5.992   5.440  0.00  0.00    +0.000 HD
ENDBRANCH  41  45
ENDBRANCH  33  36
ENDBRANCH  31  34
ENDBRANCH  30  31
ENDBRANCH  28  30
ENDBRANCH  26  29
ENDBRANCH  25  26
ENDBRANCH   1  25
TORSDOF 16
ENDMDL
MODEL 3
REMARK VINA RESULT:      -6.5      6.374     14.654
REMARK  Name = 448438_Violaxanthin.pdbqt.pdb
REMARK  16 active torsions:
REMARK  status: ('A' for Active; 'I' for Inactive)
REMARK    1  A    between atoms: C_1  and  C_5
REMARK    2  A    between atoms: C_2  and  C_27
REMARK    3  A    between atoms: C_3  and  C_5
REMARK    4  A    between atoms: C_3  and  C_7
REMARK    5  A    between atoms: C_6  and  C_10
REMARK    6  A    between atoms: C_8  and  C_10
REMARK    7  A    between atoms: C_8  and  C_12
REMARK    8  A    between atoms: C_11  and  C_14
REMARK    9  A    between atoms: C_19  and  O_23
REMARK   10  A    between atoms: C_25  and  C_27
REMARK   11  A    between atoms: C_25  and  C_29
REMARK   12  A    between atoms: C_28  and  C_32
REMARK   13  A    between atoms: C_30  and  C_32
REMARK   14  A    between atoms: C_30  and  C_34
REMARK   15  A    between atoms: C_33  and  C_36
REMARK   16  A    between atoms: C_41  and  O_45
REMARK                            x       y       z     vdW  Elec       q    Type
REMARK                         _______ _______ _______ _____ _____    ______ ____
ROOT
ATOM      1  C   UNL     1      -9.311   2.906  -3.845  0.00  0.00    +0.000 C 
ATOM      2  C   UNL     1     -10.346   2.652  -3.293  0.00  0.00    +0.000 C 
ENDROOT
BRANCH   2   3
ATOM      3  C   UNL     1     -11.669   2.326  -2.590  0.00  0.00    +0.000 C 
BRANCH   3   4
ATOM      4  C   UNL     1     -12.788   2.051  -1.999  0.00  0.00    +0.000 C 
ATOM      5  C   UNL     1     -13.039   0.665  -1.485  0.00  0.00    +0.000 C 
BRANCH   4   7
ATOM      6  C   UNL     1     -14.655   3.874  -1.816  0.00  0.00    +0.000 C 
ATOM      7  C   UNL     1     -13.798   3.037  -1.900  0.00  0.00    +0.000 C 
BRANCH   6   8
ATOM      8  C   UNL     1     -15.751   4.942  -1.710  0.00  0.00    +0.000 C 
BRANCH   8   9
ATOM      9  C   UNL     1     -16.679   5.843  -1.617  0.00  0.00    +0.000 C 
ATOM     10  C   UNL     1     -18.087   5.436  -1.306  0.00  0.00    +0.000 C 
BRANCH   9  12
ATOM     11  C   UNL     1     -16.056   8.384  -1.749  0.00  0.00    +0.000 C 
ATOM     12  C   UNL     1     -16.337   7.217  -1.689  0.00  0.00    +0.000 C 
BRANCH  11  14
ATOM     13  O   UNL     1     -16.595  10.540  -0.908  0.00  0.00    +0.000 OA
ATOM     14  C   UNL     1     -15.740   9.802  -1.825  0.00  0.00    +0.000 C 
ATOM     15  C   UNL     1     -15.208  10.531  -0.572  0.00  0.00    +0.000 C 
ATOM     16  C   UNL     1     -15.484  10.462  -3.222  0.00  0.00    +0.000 C 
ATOM     17  C   UNL     1     -14.598  11.804  -0.776  0.00  0.00    +0.000 C 
ATOM     18  C   UNL     1     -14.927  11.801  -2.981  0.00  0.00    +0.000 C 
ATOM     19  C   UNL     1     -14.411  12.584  -1.929  0.00  0.00    +0.000 C 
ATOM     20  C   UNL     1     -14.906   9.812   0.746  0.00  0.00    +0.000 C 
ATOM     21  C   UNL     1     -14.439   9.566  -3.930  0.00  0.00    +0.000 C 
ATOM     22  C   UNL     1     -16.844  10.494  -3.951  0.00  0.00    +0.000 C 
BRANCH  19  23
ATOM     23  O   UNL     1     -14.525  13.941  -1.899  0.00  0.00    +0.000 OA
ATOM     24  H   UNL     1     -15.278  14.267  -2.424  0.00  0.00    +0.000 HD
ENDBRANCH  19  23
ENDBRANCH  11  14
ENDBRANCH   9  12
ENDBRANCH   8   9
ENDBRANCH   6   8
ENDBRANCH   4   7
ENDBRANCH   3   4
ENDBRANCH   2   3
BRANCH   1  25
ATOM     25  C   UNL     1      -7.988   3.232  -4.549  0.00  0.00    +0.000 C 
BRANCH  25  26
ATOM     26  C   UNL     1      -6.870   3.507  -5.144  0.00  0.00    +0.000 C 
ATOM     27  C   UNL     1      -6.541   2.853  -6.453  0.00  0.00    +0.000 C 
BRANCH  26  29
ATOM     28  C   UNL     1      -5.218   5.237  -4.088  0.00  0.00    +0.000 C 
ATOM     29  C   UNL     1      -5.975   4.441  -4.573  0.00  0.00    +0.000 C 
BRANCH  28  30
ATOM     30  C   UNL     1      -4.255   6.259  -3.469  0.00  0.00    +0.000 C 
BRANCH  30  31
ATOM     31  C   UNL     1      -3.444   7.121  -2.942  0.00  0.00    +0.000 C 
ATOM     32  C   UNL     1      -3.313   8.488  -3.542  0.00  0.00    +0.000 C 
BRANCH  31  34
ATOM     33  C   UNL     1      -2.098   6.507  -0.780  0.00  0.00    +0.000 C 
ATOM     34  C   UNL     1      -2.717   6.786  -1.773  0.00  0.00    +0.000 C 
BRANCH  33  36
ATOM     35  O   UNL     1      -0.178   5.384   0.070  0.00  0.00    +0.000 OA
ATOM     36  C   UNL     1      -1.349   6.175   0.423  0.00  0.00    +0.000 C 
ATOM     37  C   UNL     1       0.098   6.685   0.585  0.00  0.00    +0.000 C 
ATOM     38  C   UNL     1      -2.124   5.731   1.715  0.00  0.00    +0.000 C 
ATOM     39  C   UNL     1       0.662   6.639   1.895  0.00  0.00    +0.000 C 
ATOM     40  C   UNL     1      -1.165   5.759   2.821  0.00  0.00    +0.000 C 
ATOM     41  C   UNL     1       0.149   6.171   3.116  0.00  0.00    +0.000 C 
ATOM     42  C   UNL     1       0.792   7.601  -0.426  0.00  0.00    +0.000 C 
ATOM     43  C   UNL     1      -2.688   4.324   1.414  0.00  0.00    +0.000 C 
ATOM     44  C   UNL     1      -3.238   6.790   1.917  0.00  0.00    +0.000 C 
BRANCH  41  45
ATOM     45  O   UNL     1       0.463   6.738   4.314  0.00  0.00    +0.000 OA
ATOM     46  H   UNL     1      -0.271   7.265   4.679  0.00  0.00    +0.000 HD
ENDBRANCH  41  45
ENDBRANCH  33  36
ENDBRANCH  31  34
ENDBRANCH  30  31
ENDBRANCH  28  30
ENDBRANCH  26  29
ENDBRANCH  25  26
ENDBRANCH   1  25
TORSDOF 16
ENDMDL
MODEL 4
REMARK VINA RESULT:      -6.2     10.273     16.377
REMARK  Name = 448438_Violaxanthin.pdbqt.pdb
REMARK  16 active torsions:
REMARK  status: ('A' for Active; 'I' for Inactive)
REMARK    1  A    between atoms: C_1  and  C_5
REMARK    2  A    between atoms: C_2  and  C_27
REMARK    3  A    between atoms: C_3  and  C_5
REMARK    4  A    between atoms: C_3  and  C_7
REMARK    5  A    between atoms: C_6  and  C_10
REMARK    6  A    between atoms: C_8  and  C_10
REMARK    7  A    between atoms: C_8  and  C_12
REMARK    8  A    between atoms: C_11  and  C_14
REMARK    9  A    between atoms: C_19  and  O_23
REMARK   10  A    between atoms: C_25  and  C_27
REMARK   11  A    between atoms: C_25  and  C_29
REMARK   12  A    between atoms: C_28  and  C_32
REMARK   13  A    between atoms: C_30  and  C_32
REMARK   14  A    between atoms: C_30  and  C_34
REMARK   15  A    between atoms: C_33  and  C_36
REMARK   16  A    between atoms: C_41  and  O_45
REMARK                            x       y       z     vdW  Elec       q    Type
REMARK                         _______ _______ _______ _____ _____    ______ ____
ROOT
ATOM      1  C   UNL     1     -17.321   4.777  -0.752  0.00  0.00    +0.000 C 
ATOM      2  C   UNL     1     -17.236   5.898  -0.332  0.00  0.00    +0.000 C 
ENDROOT
BRANCH   2   3
ATOM      3  C   UNL     1     -17.126   7.330   0.203  0.00  0.00    +0.000 C 
BRANCH   3   4
ATOM      4  C   UNL     1     -17.035   8.541   0.656  0.00  0.00    +0.000 C 
ATOM      5  C   UNL     1     -15.685   9.159   0.866  0.00  0.00    +0.000 C 
BRANCH   4   7
ATOM      6  C   UNL     1     -19.197   9.854   1.323  0.00  0.00    +0.000 C 
ATOM      7  C   UNL     1     -18.204   9.251   1.017  0.00  0.00    +0.000 C 
BRANCH   6   8
ATOM      8  C   UNL     1     -20.465  10.623   1.716  0.00  0.00    +0.000 C 
BRANCH   8   9
ATOM      9  C   UNL     1     -21.537  11.271   2.051  0.00  0.00    +0.000 C 
ATOM     10  C   UNL     1     -21.544  12.769   2.021  0.00  0.00    +0.000 C 
BRANCH   9  12
ATOM     11  C   UNL     1     -23.752   9.966   2.553  0.00  0.00    +0.000 C 
ATOM     12  C   UNL     1     -22.733  10.562   2.325  0.00  0.00    +0.000 C 
BRANCH  11  14
ATOM     13  O   UNL     1     -25.853   9.332   1.642  0.00  0.00    +0.000 OA
ATOM     14  C   UNL     1     -24.998   9.263   2.817  0.00  0.00    +0.000 C 
ATOM     15  C   UNL     1     -25.370   8.029   1.968  0.00  0.00    +0.000 C 
ATOM     16  C   UNL     1     -25.704   9.440   4.204  0.00  0.00    +0.000 C 
ATOM     17  C   UNL     1     -26.402   7.184   2.474  0.00  0.00    +0.000 C 
ATOM     18  C   UNL     1     -26.763   8.424   4.292  0.00  0.00    +0.000 C 
ATOM     19  C   UNL     1     -27.215   7.273   3.616  0.00  0.00    +0.000 C 
ATOM     20  C   UNL     1     -24.443   7.439   0.902  0.00  0.00    +0.000 C 
ATOM     21  C   UNL     1     -24.616   9.174   5.272  0.00  0.00    +0.000 C 
ATOM     22  C   UNL     1     -26.246  10.885   4.242  0.00  0.00    +0.000 C 
BRANCH  19  23
ATOM     23  O   UNL     1     -28.526   6.904   3.591  0.00  0.00    +0.000 OA
ATOM     24  H   UNL     1     -28.780   6.475   2.754  0.00  0.00    +0.000 HD
ENDBRANCH  19  23
ENDBRANCH  11  14
ENDBRANCH   9  12
ENDBRANCH   8   9
ENDBRANCH   6   8
ENDBRANCH   4   7
ENDBRANCH   3   4
ENDBRANCH   2   3
BRANCH   1  25
ATOM     25  C   UNL     1     -17.430   3.344  -1.288  0.00  0.00    +0.000 C 
BRANCH  25  26
ATOM     26  C   UNL     1     -17.522   2.133  -1.740  0.00  0.00    +0.000 C 
ATOM     27  C   UNL     1     -18.386   1.846  -2.931  0.00  0.00    +0.000 C 
BRANCH  26  29
ATOM     28  C   UNL     1     -16.167   0.203  -0.610  0.00  0.00    +0.000 C 
ATOM     29  C   UNL     1     -16.788   1.091  -1.128  0.00  0.00    +0.000 C 
BRANCH  28  30
ATOM     30  C   UNL     1     -15.376  -0.936   0.046  0.00  0.00    +0.000 C 
BRANCH  30  31
ATOM     31  C   UNL     1     -14.706  -1.895   0.605  0.00  0.00    +0.000 C 
ATOM     32  C   UNL     1     -15.248  -3.291   0.590  0.00  0.00    +0.000 C 
BRANCH  31  34
ATOM     33  C   UNL     1     -12.370  -1.403   1.685  0.00  0.00    +0.000 C 
ATOM     34  C   UNL     1     -13.442  -1.629   1.186  0.00  0.00    +0.000 C 
BRANCH  33  36
ATOM     35  O   UNL     1     -10.853  -2.047   3.404  0.00  0.00    +0.000 OA
ATOM     36  C   UNL     1     -11.077  -1.131   2.294  0.00  0.00    +0.000 C 
ATOM     37  C   UNL     1      -9.985  -2.222   2.286  0.00  0.00    +0.000 C 
ATOM     38  C   UNL     1     -10.631   0.358   2.521  0.00  0.00    +0.000 C 
ATOM     39  C   UNL     1      -8.650  -1.809   2.570  0.00  0.00    +0.000 C 
ATOM     40  C   UNL     1      -9.204   0.332   2.853  0.00  0.00    +0.000 C 
ATOM     41  C   UNL     1      -8.111  -0.554   2.901  0.00  0.00    +0.000 C 
ATOM     42  C   UNL     1     -10.150  -3.580   1.599  0.00  0.00    +0.000 C 
ATOM     43  C   UNL     1     -11.525   0.905   3.656  0.00  0.00    +0.000 C 
ATOM     44  C   UNL     1     -10.874   1.077   1.169  0.00  0.00    +0.000 C 
BRANCH  41  45
ATOM     45  O   UNL     1      -6.864  -0.163   2.519  0.00  0.00    +0.000 OA
ATOM     46  H   UNL     1      -6.162  -0.649   2.989  0.00  0.00    +0.000 HD
ENDBRANCH  41  45
ENDBRANCH  33  36
ENDBRANCH  31  34
ENDBRANCH  30  31
ENDBRANCH  28  30
ENDBRANCH  26  29
ENDBRANCH  25  26
ENDBRANCH   1  25
TORSDOF 16
ENDMDL
MODEL 5
REMARK VINA RESULT:      -6.2      1.327      2.362
REMARK  Name = 448438_Violaxanthin.pdbqt.pdb
REMARK  16 active torsions:
REMARK  status: ('A' for Active; 'I' for Inactive)
REMARK    1  A    between atoms: C_1  and  C_5
REMARK    2  A    between atoms: C_2  and  C_27
REMARK    3  A    between atoms: C_3  and  C_5
REMARK    4  A    between atoms: C_3  and  C_7
REMARK    5  A    between atoms: C_6  and  C_10
REMARK    6  A    between atoms: C_8  and  C_10
REMARK    7  A    between atoms: C_8  and  C_12
REMARK    8  A    between atoms: C_11  and  C_14
REMARK    9  A    between atoms: C_19  and  O_23
REMARK   10  A    between atoms: C_25  and  C_27
REMARK   11  A    between atoms: C_25  and  C_29
REMARK   12  A    between atoms: C_28  and  C_32
REMARK   13  A    between atoms: C_30  and  C_32
REMARK   14  A    between atoms: C_30  and  C_34
REMARK   15  A    between atoms: C_33  and  C_36
REMARK   16  A    between atoms: C_41  and  O_45
REMARK                            x       y       z     vdW  Elec       q    Type
REMARK                         _______ _______ _______ _____ _____    ______ ____
ROOT
ATOM      1  C   UNL     1     -11.549  13.718  -4.369  0.00  0.00    +0.000 C 
ATOM      2  C   UNL     1     -10.424  14.131  -4.434  0.00  0.00    +0.000 C 
ENDROOT
BRANCH   2   3
ATOM      3  C   UNL     1      -8.987  14.657  -4.518  0.00  0.00    +0.000 C 
BRANCH   3   4
ATOM      4  C   UNL     1      -7.771  15.100  -4.587  0.00  0.00    +0.000 C 
ATOM      5  C   UNL     1      -7.131  15.318  -5.925  0.00  0.00    +0.000 C 
BRANCH   4   7
ATOM      6  C   UNL     1      -6.394  15.491  -2.397  0.00  0.00    +0.000 C 
ATOM      7  C   UNL     1      -7.027  15.311  -3.403  0.00  0.00    +0.000 C 
BRANCH   6   8
ATOM      8  C   UNL     1      -5.587  15.718  -1.113  0.00  0.00    +0.000 C 
BRANCH   8   9
ATOM      9  C   UNL     1      -4.908  15.910  -0.025  0.00  0.00    +0.000 C 
ATOM     10  C   UNL     1      -5.553  16.578   1.151  0.00  0.00    +0.000 C 
BRANCH   9  12
ATOM     11  C   UNL     1      -2.492  14.921   0.187  0.00  0.00    +0.000 C 
ATOM     12  C   UNL     1      -3.599  15.379   0.092  0.00  0.00    +0.000 C 
BRANCH  11  14
ATOM     13  O   UNL     1      -0.232  15.354   0.783  0.00  0.00    +0.000 OA
ATOM     14  C   UNL     1      -1.160  14.345   0.294  0.00  0.00    +0.000 C 
ATOM     15  C   UNL     1      -0.473  14.266   1.674  0.00  0.00    +0.000 C 
ATOM     16  C   UNL     1      -0.632  13.406  -0.843  0.00  0.00    +0.000 C 
ATOM     17  C   UNL     1       0.656  13.402   1.785  0.00  0.00    +0.000 C 
ATOM     18  C   UNL     1       0.595  12.765  -0.350  0.00  0.00    +0.000 C 
ATOM     19  C   UNL     1       1.327  12.605   0.843  0.00  0.00    +0.000 C 
ATOM     20  C   UNL     1      -1.164  14.687   2.974  0.00  0.00    +0.000 C 
ATOM     21  C   UNL     1      -1.738  12.346  -1.067  0.00  0.00    +0.000 C 
ATOM     22  C   UNL     1      -0.394  14.300  -2.079  0.00  0.00    +0.000 C 
BRANCH  19  23
ATOM     23  O   UNL     1       2.682  12.467   0.861  0.00  0.00    +0.000 OA
ATOM     24  H   UNL     1       3.038  12.140   0.015  0.00  0.00    +0.000 HD
ENDBRANCH  19  23
ENDBRANCH  11  14
ENDBRANCH   9  12
ENDBRANCH   8   9
ENDBRANCH   6   8
ENDBRANCH   4   7
ENDBRANCH   3   4
ENDBRANCH   2   3
BRANCH   1  25
ATOM     25  C   UNL     1     -12.987  13.191  -4.285  0.00  0.00    +0.000 C 
BRANCH  25  26
ATOM     26  C   UNL     1     -14.202  12.746  -4.214  0.00  0.00    +0.000 C 
ATOM     27  C   UNL     1     -15.238  13.251  -5.173  0.00  0.00    +0.000 C 
BRANCH  26  29
ATOM     28  C   UNL     1     -14.828  10.938  -2.432  0.00  0.00    +0.000 C 
ATOM     29  C   UNL     1     -14.542  11.768  -3.252  0.00  0.00    +0.000 C 
BRANCH  28  30
ATOM     30  C   UNL     1     -15.187   9.880  -1.381  0.00  0.00    +0.000 C 
BRANCH  30  31
ATOM     31  C   UNL     1     -15.487   8.987  -0.491  0.00  0.00    +0.000 C 
ATOM     32  C   UNL     1     -15.620   9.382   0.948  0.00  0.00    +0.000 C 
BRANCH  31  34
ATOM     33  C   UNL     1     -15.947   6.511  -1.217  0.00  0.00    +0.000 C 
ATOM     34  C   UNL     1     -15.736   7.649  -0.886  0.00  0.00    +0.000 C 
BRANCH  33  36
ATOM     35  O   UNL     1     -15.818   4.939  -3.000  0.00  0.00    +0.000 OA
ATOM     36  C   UNL     1     -16.206   5.135  -1.611  0.00  0.00    +0.000 C 
ATOM     37  C   UNL     1     -15.032   4.231  -2.043  0.00  0.00    +0.000 C 
ATOM     38  C   UNL     1     -17.542   4.443  -1.159  0.00  0.00    +0.000 C 
ATOM     39  C   UNL     1     -15.272   2.825  -2.082  0.00  0.00    +0.000 C 
ATOM     40  C   UNL     1     -17.396   3.011  -1.428  0.00  0.00    +0.000 C 
ATOM     41  C   UNL     1     -16.427   2.068  -1.822  0.00  0.00    +0.000 C 
ATOM     42  C   UNL     1     -13.567   4.674  -2.016  0.00  0.00    +0.000 C 
ATOM     43  C   UNL     1     -18.670   5.118  -1.971  0.00  0.00    +0.000 C 
ATOM     44  C   UNL     1     -17.658   4.714   0.363  0.00  0.00    +0.000 C 
BRANCH  41  45
ATOM     45  O   UNL     1     -16.385   0.823  -1.273  0.00  0.00    +0.000 OA
ATOM     46  H   UNL     1     -15.820   0.212  -1.781  0.00  0.00    +0.000 HD
ENDBRANCH  41  45
ENDBRANCH  33  36
ENDBRANCH  31  34
ENDBRANCH  30  31
ENDBRANCH  28  30
ENDBRANCH  26  29
ENDBRANCH  25  26
ENDBRANCH   1  25
TORSDOF 16
ENDMDL
MODEL 6
REMARK VINA RESULT:      -6.1      1.723      2.904
REMARK  Name = 448438_Violaxanthin.pdbqt.pdb
REMARK  16 active torsions:
REMARK  status: ('A' for Active; 'I' for Inactive)
REMARK    1  A    between atoms: C_1  and  C_5
REMARK    2  A    between atoms: C_2  and  C_27
REMARK    3  A    between atoms: C_3  and  C_5
REMARK    4  A    between atoms: C_3  and  C_7
REMARK    5  A    between atoms: C_6  and  C_10
REMARK    6  A    between atoms: C_8  and  C_10
REMARK    7  A    between atoms: C_8  and  C_12
REMARK    8  A    between atoms: C_11  and  C_14
REMARK    9  A    between atoms: C_19  and  O_23
REMARK   10  A    between atoms: C_25  and  C_27
REMARK   11  A    between atoms: C_25  and  C_29
REMARK   12  A    between atoms: C_28  and  C_32
REMARK   13  A    between atoms: C_30  and  C_32
REMARK   14  A    between atoms: C_30  and  C_34
REMARK   15  A    between atoms: C_33  and  C_36
REMARK   16  A    between atoms: C_41  and  O_45
REMARK                            x       y       z     vdW  Elec       q    Type
REMARK                         _______ _______ _______ _____ _____    ______ ____
ROOT
ATOM      1  C   UNL     1     -11.339  13.763  -4.255  0.00  0.00    +0.000 C 
ATOM      2  C   UNL     1     -10.182  14.036  -4.419  0.00  0.00    +0.000 C 
ENDROOT
BRANCH   2   3
ATOM      3  C   UNL     1      -8.703  14.384  -4.625  0.00  0.00    +0.000 C 
BRANCH   3   4
ATOM      4  C   UNL     1      -7.453  14.678  -4.798  0.00  0.00    +0.000 C 
ATOM      5  C   UNL     1      -7.031  15.461  -6.005  0.00  0.00    +0.000 C 
BRANCH   4   7
ATOM      6  C   UNL     1      -5.657  13.796  -3.113  0.00  0.00    +0.000 C 
ATOM      7  C   UNL     1      -6.482  14.201  -3.887  0.00  0.00    +0.000 C 
BRANCH   6   8
ATOM      8  C   UNL     1      -4.602  13.279  -2.127  0.00  0.00    +0.000 C 
BRANCH   8   9
ATOM      9  C   UNL     1      -3.708  12.842  -1.296  0.00  0.00    +0.000 C 
ATOM     10  C   UNL     1      -2.978  11.567  -1.586  0.00  0.00    +0.000 C 
BRANCH   9  12
ATOM     11  C   UNL     1      -3.030  14.307   0.767  0.00  0.00    +0.000 C 
ATOM     12  C   UNL     1      -3.337  13.633  -0.180  0.00  0.00    +0.000 C 
BRANCH  11  14
ATOM     13  O   UNL     1      -2.532  14.291   3.091  0.00  0.00    +0.000 OA
ATOM     14  C   UNL     1      -2.682  15.133   1.914  0.00  0.00    +0.000 C 
ATOM     15  C   UNL     1      -1.332  14.911   2.630  0.00  0.00    +0.000 C 
ATOM     16  C   UNL     1      -3.409  16.504   2.126  0.00  0.00    +0.000 C 
ATOM     17  C   UNL     1      -0.889  15.944   3.507  0.00  0.00    +0.000 C 
ATOM     18  C   UNL     1      -2.679  17.231   3.175  0.00  0.00    +0.000 C 
ATOM     19  C   UNL     1      -1.476  17.157   3.905  0.00  0.00    +0.000 C 
ATOM     20  C   UNL     1      -0.281  13.912   2.137  0.00  0.00    +0.000 C 
ATOM     21  C   UNL     1      -3.300  17.256   0.778  0.00  0.00    +0.000 C 
ATOM     22  C   UNL     1      -4.865  16.176   2.517  0.00  0.00    +0.000 C 
BRANCH  19  23
ATOM     23  O   UNL     1      -1.361  17.623   5.179  0.00  0.00    +0.000 OA
ATOM     24  H   UNL     1      -2.168  18.069   5.492  0.00  0.00    +0.000 HD
ENDBRANCH  19  23
ENDBRANCH  11  14
ENDBRANCH   9  12
ENDBRANCH   8   9
ENDBRANCH   6   8
ENDBRANCH   4   7
ENDBRANCH   3   4
ENDBRANCH   2   3
BRANCH   1  25
ATOM     25  C   UNL     1     -12.818  13.415  -4.047  0.00  0.00    +0.000 C 
BRANCH  25  26
ATOM     26  C   UNL     1     -14.068  13.121  -3.871  0.00  0.00    +0.000 C 
ATOM     27  C   UNL     1     -15.125  13.890  -4.605  0.00  0.00    +0.000 C 
BRANCH  26  29
ATOM     28  C   UNL     1     -14.736  11.159  -2.276  0.00  0.00    +0.000 C 
ATOM     29  C   UNL     1     -14.431  12.060  -3.010  0.00  0.00    +0.000 C 
BRANCH  28  30
ATOM     30  C   UNL     1     -15.119  10.009  -1.337  0.00  0.00    +0.000 C 
BRANCH  30  31
ATOM     31  C   UNL     1     -15.448   9.038  -0.543  0.00  0.00    +0.000 C 
ATOM     32  C   UNL     1     -15.754   9.322   0.896  0.00  0.00    +0.000 C 
BRANCH  31  34
ATOM     33  C   UNL     1     -15.661   6.601  -1.481  0.00  0.00    +0.000 C 
ATOM     34  C   UNL     1     -15.563   7.719  -1.047  0.00  0.00    +0.000 C 
BRANCH  33  36
ATOM     35  O   UNL     1     -16.231   4.348  -0.963  0.00  0.00    +0.000 OA
ATOM     36  C   UNL     1     -15.777   5.251  -2.011  0.00  0.00    +0.000 C 
ATOM     37  C   UNL     1     -17.154   4.555  -2.031  0.00  0.00    +0.000 C 
ATOM     38  C   UNL     1     -14.658   4.700  -2.966  0.00  0.00    +0.000 C 
ATOM     39  C   UNL     1     -17.288   3.401  -2.859  0.00  0.00    +0.000 C 
ATOM     40  C   UNL     1     -15.176   3.472  -3.571  0.00  0.00    +0.000 C 
ATOM     41  C   UNL     1     -16.365   2.723  -3.673  0.00  0.00    +0.000 C 
ATOM     42  C   UNL     1     -18.453   5.232  -1.586  0.00  0.00    +0.000 C 
ATOM     43  C   UNL     1     -13.410   4.481  -2.081  0.00  0.00    +0.000 C 
ATOM     44  C   UNL     1     -14.444   5.801  -4.037  0.00  0.00    +0.000 C 
BRANCH  41  45
ATOM     45  O   UNL     1     -16.718   2.108  -4.835  0.00  0.00    +0.000 OA
ATOM     46  H   UNL     1     -16.287   1.241  -4.944  0.00  0.00    +0.000 HD
ENDBRANCH  41  45
ENDBRANCH  33  36
ENDBRANCH  31  34
ENDBRANCH  30  31
ENDBRANCH  28  30
ENDBRANCH  26  29
ENDBRANCH  25  26
ENDBRANCH   1  25
TORSDOF 16
ENDMDL
MODEL 7
REMARK VINA RESULT:      -6.1     10.185     14.958
REMARK  Name = 448438_Violaxanthin.pdbqt.pdb
REMARK  16 active torsions:
REMARK  status: ('A' for Active; 'I' for Inactive)
REMARK    1  A    between atoms: C_1  and  C_5
REMARK    2  A    between atoms: C_2  and  C_27
REMARK    3  A    between atoms: C_3  and  C_5
REMARK    4  A    between atoms: C_3  and  C_7
REMARK    5  A    between atoms: C_6  and  C_10
REMARK    6  A    between atoms: C_8  and  C_10
REMARK    7  A    between atoms: C_8  and  C_12
REMARK    8  A    between atoms: C_11  and  C_14
REMARK    9  A    between atoms: C_19  and  O_23
REMARK   10  A    between atoms: C_25  and  C_27
REMARK   11  A    between atoms: C_25  and  C_29
REMARK   12  A    between atoms: C_28  and  C_32
REMARK   13  A    between atoms: C_30  and  C_32
REMARK   14  A    between atoms: C_30  and  C_34
REMARK   15  A    between atoms: C_33  and  C_36
REMARK   16  A    between atoms: C_41  and  O_45
REMARK                            x       y       z     vdW  Elec       q    Type
REMARK                         _______ _______ _______ _____ _____    ______ ____
ROOT
ATOM      1  C   UNL     1     -15.140   7.062  -2.094  0.00  0.00    +0.000 C 
ATOM      2  C   UNL     1     -15.632   7.684  -1.194  0.00  0.00    +0.000 C 
ENDROOT
BRANCH   2   3
ATOM      3  C   UNL     1     -16.259   8.482  -0.046  0.00  0.00    +0.000 C 
BRANCH   3   4
ATOM      4  C   UNL     1     -16.788   9.158   0.926  0.00  0.00    +0.000 C 
ATOM      5  C   UNL     1     -15.945   9.563   2.097  0.00  0.00    +0.000 C 
BRANCH   4   7
ATOM      6  C   UNL     1     -19.346   9.702   0.901  0.00  0.00    +0.000 C 
ATOM      7  C   UNL     1     -18.171   9.452   0.912  0.00  0.00    +0.000 C 
BRANCH   6   8
ATOM      8  C   UNL     1     -20.847  10.020   0.889  0.00  0.00    +0.000 C 
BRANCH   8   9
ATOM      9  C   UNL     1     -22.116  10.285   0.878  0.00  0.00    +0.000 C 
ATOM     10  C   UNL     1     -22.981   9.758  -0.226  0.00  0.00    +0.000 C 
BRANCH   9  12
ATOM     11  C   UNL     1     -23.196  11.554   2.900  0.00  0.00    +0.000 C 
ATOM     12  C   UNL     1     -22.703  10.968   1.973  0.00  0.00    +0.000 C 
BRANCH  11  14
ATOM     13  O   UNL     1     -25.083  11.722   4.335  0.00  0.00    +0.000 OA
ATOM     14  C   UNL     1     -23.779  12.283   4.016  0.00  0.00    +0.000 C 
ATOM     15  C   UNL     1     -24.081  11.541   5.335  0.00  0.00    +0.000 C 
ATOM     16  C   UNL     1     -23.662  13.844   4.063  0.00  0.00    +0.000 C 
ATOM     17  C   UNL     1     -24.322  12.345   6.488  0.00  0.00    +0.000 C 
ATOM     18  C   UNL     1     -24.082  14.277   5.403  0.00  0.00    +0.000 C 
ATOM     19  C   UNL     1     -24.385  13.736   6.668  0.00  0.00    +0.000 C 
ATOM     20  C   UNL     1     -23.714  10.073   5.569  0.00  0.00    +0.000 C 
ATOM     21  C   UNL     1     -22.164  14.166   3.841  0.00  0.00    +0.000 C 
ATOM     22  C   UNL     1     -24.568  14.389   2.938  0.00  0.00    +0.000 C 
BRANCH  19  23
ATOM     23  O   UNL     1     -25.286  14.307   7.514  0.00  0.00    +0.000 OA
ATOM     24  H   UNL     1     -25.631  13.680   8.175  0.00  0.00    +0.000 HD
ENDBRANCH  19  23
ENDBRANCH  11  14
ENDBRANCH   9  12
ENDBRANCH   8   9
ENDBRANCH   6   8
ENDBRANCH   4   7
ENDBRANCH   3   4
ENDBRANCH   2   3
BRANCH   1  25
ATOM     25  C   UNL     1     -14.511   6.265  -3.244  0.00  0.00    +0.000 C 
BRANCH  25  26
ATOM     26  C   UNL     1     -13.980   5.591  -4.215  0.00  0.00    +0.000 C 
ATOM     27  C   UNL     1     -14.465   5.798  -5.619  0.00  0.00    +0.000 C 
BRANCH  26  29
ATOM     28  C   UNL     1     -12.036   3.910  -3.730  0.00  0.00    +0.000 C 
ATOM     29  C   UNL     1     -12.928   4.683  -3.955  0.00  0.00    +0.000 C 
BRANCH  28  30
ATOM     30  C   UNL     1     -10.899   2.923  -3.437  0.00  0.00    +0.000 C 
BRANCH  30  31
ATOM     31  C   UNL     1      -9.941   2.087  -3.185  0.00  0.00    +0.000 C 
ATOM     32  C   UNL     1      -8.899   1.811  -4.224  0.00  0.00    +0.000 C 
BRANCH  31  34
ATOM     33  C   UNL     1      -9.780   0.956  -0.827  0.00  0.00    +0.000 C 
ATOM     34  C   UNL     1      -9.855   1.473  -1.911  0.00  0.00    +0.000 C 
BRANCH  33  36
ATOM     35  O   UNL     1     -10.632   0.975   1.397  0.00  0.00    +0.000 OA
ATOM     36  C   UNL     1      -9.690   0.337   0.488  0.00  0.00    +0.000 C 
ATOM     37  C   UNL     1     -10.921  -0.384   1.077  0.00  0.00    +0.000 C 
ATOM     38  C   UNL     1      -8.278  -0.009   1.080  0.00  0.00    +0.000 C 
ATOM     39  C   UNL     1     -10.696  -1.259   2.181  0.00  0.00    +0.000 C 
ATOM     40  C   UNL     1      -8.500  -0.876   2.239  0.00  0.00    +0.000 C 
ATOM     41  C   UNL     1      -9.528  -1.584   2.891  0.00  0.00    +0.000 C 
ATOM     42  C   UNL     1     -12.241  -0.561   0.323  0.00  0.00    +0.000 C 
ATOM     43  C   UNL     1      -7.616   1.343   1.430  0.00  0.00    +0.000 C 
ATOM     44  C   UNL     1      -7.528  -0.767  -0.046  0.00  0.00    +0.000 C 
BRANCH  41  45
ATOM     45  O   UNL     1      -9.310  -2.816   3.428  0.00  0.00    +0.000 OA
ATOM     46  H   UNL     1      -9.347  -2.810   4.402  0.00  0.00    +0.000 HD
ENDBRANCH  41  45
ENDBRANCH  33  36
ENDBRANCH  31  34
ENDBRANCH  30  31
ENDBRANCH  28  30
ENDBRANCH  26  29
ENDBRANCH  25  26
ENDBRANCH   1  25
TORSDOF 16
ENDMDL
MODEL 8
REMARK VINA RESULT:      -6.0      2.949      5.810
REMARK  Name = 448438_Violaxanthin.pdbqt.pdb
REMARK  16 active torsions:
REMARK  status: ('A' for Active; 'I' for Inactive)
REMARK    1  A    between atoms: C_1  and  C_5
REMARK    2  A    between atoms: C_2  and  C_27
REMARK    3  A    between atoms: C_3  and  C_5
REMARK    4  A    between atoms: C_3  and  C_7
REMARK    5  A    between atoms: C_6  and  C_10
REMARK    6  A    between atoms: C_8  and  C_10
REMARK    7  A    between atoms: C_8  and  C_12
REMARK    8  A    between atoms: C_11  and  C_14
REMARK    9  A    between atoms: C_19  and  O_23
REMARK   10  A    between atoms: C_25  and  C_27
REMARK   11  A    between atoms: C_25  and  C_29
REMARK   12  A    between atoms: C_28  and  C_32
REMARK   13  A    between atoms: C_30  and  C_32
REMARK   14  A    between atoms: C_30  and  C_34
REMARK   15  A    between atoms: C_33  and  C_36
REMARK   16  A    between atoms: C_41  and  O_45
REMARK                            x       y       z     vdW  Elec       q    Type
REMARK                         _______ _______ _______ _____ _____    ______ ____
ROOT
ATOM      1  C   UNL     1     -14.709  11.471  -2.194  0.00  0.00    +0.000 C 
ATOM      2  C   UNL     1     -14.484  12.424  -2.887  0.00  0.00    +0.000 C 
ENDROOT
BRANCH   2   3
ATOM      3  C   UNL     1     -14.195  13.641  -3.773  0.00  0.00    +0.000 C 
BRANCH   3   4
ATOM      4  C   UNL     1     -13.951  14.671  -4.521  0.00  0.00    +0.000 C 
ATOM      5  C   UNL     1     -15.024  15.214  -5.416  0.00  0.00    +0.000 C 
BRANCH   4   7
ATOM      6  C   UNL     1     -11.554  15.718  -4.563  0.00  0.00    +0.000 C 
ATOM      7  C   UNL     1     -12.655  15.237  -4.543  0.00  0.00    +0.000 C 
BRANCH   6   8
ATOM      8  C   UNL     1     -10.148  16.331  -4.589  0.00  0.00    +0.000 C 
BRANCH   8   9
ATOM      9  C   UNL     1      -8.959  16.847  -4.614  0.00  0.00    +0.000 C 
ATOM     10  C   UNL     1      -8.681  18.042  -5.474  0.00  0.00    +0.000 C 
BRANCH   9  12
ATOM     11  C   UNL     1      -7.115  15.935  -2.992  0.00  0.00    +0.000 C 
ATOM     12  C   UNL     1      -7.959  16.358  -3.736  0.00  0.00    +0.000 C 
BRANCH  11  14
ATOM     13  O   UNL     1      -5.333  16.495  -1.522  0.00  0.00    +0.000 OA
ATOM     14  C   UNL     1      -6.104  15.400  -2.093  0.00  0.00    +0.000 C 
ATOM     15  C   UNL     1      -6.143  15.773  -0.596  0.00  0.00    +0.000 C 
ATOM     16  C   UNL     1      -5.297  14.124  -2.511  0.00  0.00    +0.000 C 
ATOM     17  C   UNL     1      -5.363  14.972   0.290  0.00  0.00    +0.000 C 
ATOM     18  C   UNL     1      -4.564  13.659  -1.325  0.00  0.00    +0.000 C 
ATOM     19  C   UNL     1      -4.493  13.893   0.063  0.00  0.00    +0.000 C 
ATOM     20  C   UNL     1      -7.259  16.618   0.025  0.00  0.00    +0.000 C 
ATOM     21  C   UNL     1      -6.352  13.074  -2.935  0.00  0.00    +0.000 C 
ATOM     22  C   UNL     1      -4.369  14.548  -3.669  0.00  0.00    +0.000 C 
BRANCH  19  23
ATOM     23  O   UNL     1      -3.343  13.740   0.775  0.00  0.00    +0.000 OA
ATOM     24  H   UNL     1      -3.385  14.160   1.653  0.00  0.00    +0.000 HD
ENDBRANCH  19  23
ENDBRANCH  11  14
ENDBRANCH   9  12
ENDBRANCH   8   9
ENDBRANCH   6   8
ENDBRANCH   4   7
ENDBRANCH   3   4
ENDBRANCH   2   3
BRANCH   1  25
ATOM     25  C   UNL     1     -14.998  10.253  -1.307  0.00  0.00    +0.000 C 
BRANCH  25  26
ATOM     26  C   UNL     1     -15.242   9.225  -0.558  0.00  0.00    +0.000 C 
ATOM     27  C   UNL     1     -15.511   9.414   0.905  0.00  0.00    +0.000 C 
BRANCH  26  29
ATOM     28  C   UNL     1     -15.308   6.828  -1.602  0.00  0.00    +0.000 C 
ATOM     29  C   UNL     1     -15.279   7.929  -1.124  0.00  0.00    +0.000 C 
BRANCH  28  30
ATOM     30  C   UNL     1     -15.338   5.421  -2.212  0.00  0.00    +0.000 C 
BRANCH  30  31
ATOM     31  C   UNL     1     -15.364   4.229  -2.722  0.00  0.00    +0.000 C 
ATOM     32  C   UNL     1     -16.604   3.735  -3.402  0.00  0.00    +0.000 C 
BRANCH  31  34
ATOM     33  C   UNL     1     -13.221   2.723  -2.645  0.00  0.00    +0.000 C 
ATOM     34  C   UNL     1     -14.204   3.416  -2.678  0.00  0.00    +0.000 C 
BRANCH  33  36
ATOM     35  O   UNL     1     -11.608   1.580  -3.973  0.00  0.00    +0.000 OA
ATOM     36  C   UNL     1     -12.031   1.886  -2.613  0.00  0.00    +0.000 C 
ATOM     37  C   UNL     1     -10.715   2.406  -3.228  0.00  0.00    +0.000 C 
ATOM     38  C   UNL     1     -11.947   0.708  -1.577  0.00  0.00    +0.000 C 
ATOM     39  C   UNL     1      -9.515   1.722  -2.873  0.00  0.00    +0.000 C 
ATOM     40  C   UNL     1     -10.556   0.248  -1.563  0.00  0.00    +0.000 C 
ATOM     41  C   UNL     1      -9.287   0.597  -2.063  0.00  0.00    +0.000 C 
ATOM     42  C   UNL     1     -10.553   3.809  -3.820  0.00  0.00    +0.000 C 
ATOM     43  C   UNL     1     -12.953  -0.361  -2.061  0.00  0.00    +0.000 C 
ATOM     44  C   UNL     1     -12.342   1.325  -0.211  0.00  0.00    +0.000 C 
BRANCH  41  45
ATOM     45  O   UNL     1      -8.162   0.447  -1.309  0.00  0.00    +0.000 OA
ATOM     46  H   UNL     1      -7.931   1.258  -0.821  0.00  0.00    +0.000 HD
ENDBRANCH  41  45
ENDBRANCH  33  36
ENDBRANCH  31  34
ENDBRANCH  30  31
ENDBRANCH  28  30
ENDBRANCH  26  29
ENDBRANCH  25  26
ENDBRANCH   1  25
TORSDOF 16
ENDMDL
MODEL 9
REMARK VINA RESULT:      -5.9      7.913     13.442
REMARK  Name = 448438_Violaxanthin.pdbqt.pdb
REMARK  16 active torsions:
REMARK  status: ('A' for Active; 'I' for Inactive)
REMARK    1  A    between atoms: C_1  and  C_5
REMARK    2  A    between atoms: C_2  and  C_27
REMARK    3  A    between atoms: C_3  and  C_5
REMARK    4  A    between atoms: C_3  and  C_7
REMARK    5  A    between atoms: C_6  and  C_10
REMARK    6  A    between atoms: C_8  and  C_10
REMARK    7  A    between atoms: C_8  and  C_12
REMARK    8  A    between atoms: C_11  and  C_14
REMARK    9  A    between atoms: C_19  and  O_23
REMARK   10  A    between atoms: C_25  and  C_27
REMARK   11  A    between atoms: C_25  and  C_29
REMARK   12  A    between atoms: C_28  and  C_32
REMARK   13  A    between atoms: C_30  and  C_32
REMARK   14  A    between atoms: C_30  and  C_34
REMARK   15  A    between atoms: C_33  and  C_36
REMARK   16  A    between atoms: C_41  and  O_45
REMARK                            x       y       z     vdW  Elec       q    Type
REMARK                         _______ _______ _______ _____ _____    ______ ____
ROOT
ATOM      1  C   UNL     1     -17.251   1.274  -1.749  0.00  0.00    +0.000 C 
ATOM      2  C   UNL     1     -16.396   2.094  -1.941  0.00  0.00    +0.000 C 
ENDROOT
BRANCH   2   3
ATOM      3  C   UNL     1     -15.304   3.142  -2.184  0.00  0.00    +0.000 C 
BRANCH   3   4
ATOM      4  C   UNL     1     -14.383   4.030  -2.390  0.00  0.00    +0.000 C 
ATOM      5  C   UNL     1     -13.052   3.610  -2.939  0.00  0.00    +0.000 C 
BRANCH   4   7
ATOM      6  C   UNL     1     -14.801   6.527  -1.732  0.00  0.00    +0.000 C 
ATOM      7  C   UNL     1     -14.609   5.380  -2.034  0.00  0.00    +0.000 C 
BRANCH   6   8
ATOM      8  C   UNL     1     -15.043   7.991  -1.346  0.00  0.00    +0.000 C 
BRANCH   8   9
ATOM      9  C   UNL     1     -15.247   9.229  -1.016  0.00  0.00    +0.000 C 
ATOM     10  C   UNL     1     -15.512   9.588   0.414  0.00  0.00    +0.000 C 
BRANCH   9  12
ATOM     11  C   UNL     1     -14.961  11.112  -2.815  0.00  0.00    +0.000 C 
ATOM     12  C   UNL     1     -15.095  10.251  -1.987  0.00  0.00    +0.000 C 
BRANCH  11  14
ATOM     13  O   UNL     1     -15.551  13.321  -3.464  0.00  0.00    +0.000 OA
ATOM     14  C   UNL     1     -14.780  12.141  -3.827  0.00  0.00    +0.000 C 
ATOM     15  C   UNL     1     -14.134  13.488  -3.436  0.00  0.00    +0.000 C 
ATOM     16  C   UNL     1     -14.787  11.743  -5.342  0.00  0.00    +0.000 C 
ATOM     17  C   UNL     1     -13.669  14.315  -4.501  0.00  0.00    +0.000 C 
ATOM     18  C   UNL     1     -14.316  12.908  -6.105  0.00  0.00    +0.000 C 
ATOM     19  C   UNL     1     -13.720  14.168  -5.898  0.00  0.00    +0.000 C 
ATOM     20  C   UNL     1     -13.582  13.774  -2.037  0.00  0.00    +0.000 C 
ATOM     21  C   UNL     1     -13.785  10.572  -5.479  0.00  0.00    +0.000 C 
ATOM     22  C   UNL     1     -16.237  11.340  -5.685  0.00  0.00    +0.000 C 
BRANCH  19  23
ATOM     23  O   UNL     1     -13.943  15.230  -6.720  0.00  0.00    +0.000 OA
ATOM     24  H   UNL     1     -14.722  15.107  -7.292  0.00  0.00    +0.000 HD
ENDBRANCH  19  23
ENDBRANCH  11  14
ENDBRANCH   9  12
ENDBRANCH   8   9
ENDBRANCH   6   8
ENDBRANCH   4   7
ENDBRANCH   3   4
ENDBRANCH   2   3
BRANCH   1  25
ATOM     25  C   UNL     1     -18.344   0.226  -1.505  0.00  0.00    +0.000 C 
BRANCH  25  26
ATOM     26  C   UNL     1     -19.267  -0.660  -1.300  0.00  0.00    +0.000 C 
ATOM     27  C   UNL     1     -19.759  -1.502  -2.438  0.00  0.00    +0.000 C 
BRANCH  26  29
ATOM     28  C   UNL     1     -20.234  -1.014   1.104  0.00  0.00    +0.000 C 
ATOM     29  C   UNL     1     -19.789  -0.849   0.000  0.00  0.00    +0.000 C 
BRANCH  28  30
ATOM     30  C   UNL     1     -20.806  -1.229   2.511  0.00  0.00    +0.000 C 
BRANCH  30  31
ATOM     31  C   UNL     1     -21.285  -1.415   3.701  0.00  0.00    +0.000 C 
ATOM     32  C   UNL     1     -22.657  -0.916   4.040  0.00  0.00    +0.000 C 
BRANCH  31  34
ATOM     33  C   UNL     1     -19.895  -2.738   5.485  0.00  0.00    +0.000 C 
ATOM     34  C   UNL     1     -20.531  -2.130   4.664  0.00  0.00    +0.000 C 
BRANCH  33  36
ATOM     35  O   UNL     1     -18.946  -4.852   6.035  0.00  0.00    +0.000 OA
ATOM     36  C   UNL     1     -19.131  -3.477   6.479  0.00  0.00    +0.000 C 
ATOM     37  C   UNL     1     -17.756  -4.067   6.101  0.00  0.00    +0.000 C 
ATOM     38  C   UNL     1     -19.454  -3.277   8.003  0.00  0.00    +0.000 C 
ATOM     39  C   UNL     1     -16.903  -4.469   7.172  0.00  0.00    +0.000 C 
ATOM     40  C   UNL     1     -18.360  -3.890   8.758  0.00  0.00    +0.000 C 
ATOM     41  C   UNL     1     -17.088  -4.463   8.565  0.00  0.00    +0.000 C 
ATOM     42  C   UNL     1     -17.091  -3.861   4.738  0.00  0.00    +0.000 C 
ATOM     43  C   UNL     1     -20.828  -3.945   8.241  0.00  0.00    +0.000 C 
ATOM     44  C   UNL     1     -19.491  -1.742   8.223  0.00  0.00    +0.000 C 
BRANCH  41  45
ATOM     45  O   UNL     1     -16.070  -4.243   9.443  0.00  0.00    +0.000 OA
ATOM     46  H   UNL     1     -15.213  -4.122   8.995  0.00  0.00    +0.000 HD
ENDBRANCH  41  45
ENDBRANCH  33  36
ENDBRANCH  31  34
ENDBRANCH  30  31
ENDBRANCH  28  30
ENDBRANCH  26  29
ENDBRANCH  25  26
ENDBRANCH   1  25
TORSDOF 16
ENDMDL
