MODEL 1
REMARK VINA RESULT:      -7.6      0.000      0.000
REMARK  Name = 490561_Nocardiopsis.pdbqt.pdb
REMARK  3 active torsions:
REMARK  status: ('A' for Active; 'I' for Inactive)
REMARK    1  A    between atoms: C_7  and  O_32
REMARK    2  A    between atoms: C_7  and  C_35
REMARK    3  A    between atoms: C_35  and  O_36
REMARK                            x       y       z     vdW  Elec       q    Type
REMARK                         _______ _______ _______ _____ _____    ______ ____
ROOT
ATOM      1  O   UNL     1     -14.547   7.248  -4.535  0.00  0.00    +0.000 OA
ATOM      2  O   UNL     1     -13.300  14.642  -3.820  0.00  0.00    +0.000 OA
ATOM      3  N   UNL     1     -15.437   8.358  -2.646  0.00  0.00    +0.000 N 
ATOM      4  N   UNL     1     -14.655   9.436  -5.336  0.00  0.00    +0.000 N 
ATOM      5  N   UNL     1     -13.880  14.042  -1.653  0.00  0.00    +0.000 N 
ATOM      6  C   UNL     1     -15.605   7.175  -3.515  0.00  0.00    +0.000 C 
ATOM      7  C   UNL     1     -16.953   7.199  -4.356  0.00  0.00    +0.000 C 
ATOM      8  C   UNL     1     -15.063   8.125  -5.506  0.00  0.00    +0.000 C 
ATOM      9  C   UNL     1     -16.459   7.891  -5.543  0.00  0.00    +0.000 C 
ATOM     10  C   UNL     1     -14.932   9.605  -2.915  0.00  0.00    +0.000 A 
ATOM     11  C   UNL     1     -14.551  10.111  -4.158  0.00  0.00    +0.000 A 
ATOM     12  C   UNL     1     -14.847  10.543  -1.881  0.00  0.00    +0.000 A 
ATOM     13  C   UNL     1     -14.157  11.453  -4.168  0.00  0.00    +0.000 A 
ATOM     14  C   UNL     1     -15.342   5.837  -2.747  0.00  0.00    +0.000 C 
ATOM     15  C   UNL     1     -15.794   8.534  -1.286  0.00  0.00    +0.000 A 
ATOM     16  C   UNL     1     -14.339  10.464  -6.244  0.00  0.00    +0.000 A 
ATOM     17  C   UNL     1     -15.414   9.841  -0.802  0.00  0.00    +0.000 A 
ATOM     18  C   UNL     1     -14.434  11.881  -1.862  0.00  0.00    +0.000 A 
ATOM     19  C   UNL     1     -14.047  12.404  -3.132  0.00  0.00    +0.000 A 
ATOM     20  C   UNL     1     -14.007  11.690  -5.553  0.00  0.00    +0.000 A 
ATOM     21  C   UNL     1     -14.311  13.007  -0.901  0.00  0.00    +0.000 C 
ATOM     22  C   UNL     1     -16.443   7.631  -0.426  0.00  0.00    +0.000 A 
ATOM     23  C   UNL     1     -13.684  13.800  -3.021  0.00  0.00    +0.000 C 
ATOM     24  C   UNL     1     -14.307  10.396  -7.645  0.00  0.00    +0.000 A 
ATOM     25  C   UNL     1     -15.693  10.169   0.540  0.00  0.00    +0.000 A 
ATOM     26  C   UNL     1     -13.662  12.812  -6.332  0.00  0.00    +0.000 A 
ATOM     27  C   UNL     1     -16.696   8.002   0.894  0.00  0.00    +0.000 A 
ATOM     28  C   UNL     1     -16.323   9.247   1.375  0.00  0.00    +0.000 A 
ATOM     29  C   UNL     1     -13.952  11.537  -8.365  0.00  0.00    +0.000 A 
ATOM     30  C   UNL     1     -13.634  12.725  -7.723  0.00  0.00    +0.000 A 
ATOM     31  H   UNL     1     -13.703  14.958  -1.268  0.00  0.00    +0.000 HD
ENDROOT
BRANCH   7  32
ATOM     32  O   UNL     1     -18.013   7.972  -3.774  0.00  0.00    +0.000 OA
ATOM     33  H   UNL     1     -18.778   7.370  -3.648  0.00  0.00    +0.000 HD
ENDBRANCH   7  32
BRANCH   7  35
ATOM     34  O   UNL     1     -16.862   5.113  -5.541  0.00  0.00    +0.000 OA
ATOM     35  C   UNL     1     -17.441   5.790  -4.688  0.00  0.00    +0.000 C 
BRANCH  35  36
ATOM     36  O   UNL     1     -18.498   5.423  -3.904  0.00  0.00    +0.000 OA
ATOM     37  C   UNL     1     -18.532   4.103  -3.431  0.00  0.00    +0.000 C 
ENDBRANCH  35  36
ENDBRANCH   7  35
TORSDOF 3
ENDMDL
MODEL 2
REMARK VINA RESULT:      -7.3      2.020      5.496
REMARK  Name = 490561_Nocardiopsis.pdbqt.pdb
REMARK  3 active torsions:
REMARK  status: ('A' for Active; 'I' for Inactive)
REMARK    1  A    between atoms: C_7  and  O_32
REMARK    2  A    between atoms: C_7  and  C_35
REMARK    3  A    between atoms: C_35  and  O_36
REMARK                            x       y       z     vdW  Elec       q    Type
REMARK                         _______ _______ _______ _____ _____    ______ ____
ROOT
ATOM      1  O   UNL     1     -16.914   5.574  -3.465  0.00  0.00    +0.000 OA
ATOM      2  O   UNL     1     -14.875  12.578  -1.592  0.00  0.00    +0.000 OA
ATOM      3  N   UNL     1     -15.167   6.597  -4.685  0.00  0.00    +0.000 N 
ATOM      4  N   UNL     1     -16.177   7.153  -1.915  0.00  0.00    +0.000 N 
ATOM      5  N   UNL     1     -13.997  12.380  -3.733  0.00  0.00    +0.000 N 
ATOM      6  C   UNL     1     -15.733   5.290  -4.294  0.00  0.00    +0.000 C 
ATOM      7  C   UNL     1     -14.780   4.455  -3.334  0.00  0.00    +0.000 C 
ATOM      8  C   UNL     1     -16.388   5.812  -2.183  0.00  0.00    +0.000 C 
ATOM      9  C   UNL     1     -15.271   4.953  -2.052  0.00  0.00    +0.000 C 
ATOM     10  C   UNL     1     -15.189   7.813  -4.049  0.00  0.00    +0.000 A 
ATOM     11  C   UNL     1     -15.671   8.085  -2.769  0.00  0.00    +0.000 A 
ATOM     12  C   UNL     1     -14.603   8.918  -4.672  0.00  0.00    +0.000 A 
ATOM     13  C   UNL     1     -15.486   9.398  -2.322  0.00  0.00    +0.000 A 
ATOM     14  C   UNL     1     -16.277   4.490  -5.524  0.00  0.00    +0.000 C 
ATOM     15  C   UNL     1     -14.403   6.941  -5.829  0.00  0.00    +0.000 A 
ATOM     16  C   UNL     1     -16.301   7.925  -0.745  0.00  0.00    +0.000 A 
ATOM     17  C   UNL     1     -14.082   8.350  -5.849  0.00  0.00    +0.000 A 
ATOM     18  C   UNL     1     -14.428  10.244  -4.256  0.00  0.00    +0.000 A 
ATOM     19  C   UNL     1     -14.915  10.527  -2.945  0.00  0.00    +0.000 A 
ATOM     20  C   UNL     1     -15.912   9.298  -0.979  0.00  0.00    +0.000 A 
ATOM     21  C   UNL     1     -13.820  11.507  -4.747  0.00  0.00    +0.000 C 
ATOM     22  C   UNL     1     -13.952   6.107  -6.866  0.00  0.00    +0.000 A 
ATOM     23  C   UNL     1     -14.648  11.903  -2.586  0.00  0.00    +0.000 C 
ATOM     24  C   UNL     1     -16.749   7.509   0.519  0.00  0.00    +0.000 A 
ATOM     25  C   UNL     1     -13.332   8.854  -6.930  0.00  0.00    +0.000 A 
ATOM     26  C   UNL     1     -15.987  10.197   0.104  0.00  0.00    +0.000 A 
ATOM     27  C   UNL     1     -13.214   6.653  -7.916  0.00  0.00    +0.000 A 
ATOM     28  C   UNL     1     -12.912   8.005  -7.954  0.00  0.00    +0.000 A 
ATOM     29  C   UNL     1     -16.809   8.445   1.551  0.00  0.00    +0.000 A 
ATOM     30  C   UNL     1     -16.437   9.766   1.351  0.00  0.00    +0.000 A 
ATOM     31  H   UNL     1     -13.681  13.337  -3.778  0.00  0.00    +0.000 HD
ENDROOT
BRANCH   7  32
ATOM     32  O   UNL     1     -13.384   4.767  -3.450  0.00  0.00    +0.000 OA
ATOM     33  H   UNL     1     -13.247   5.649  -3.040  0.00  0.00    +0.000 HD
ENDBRANCH   7  32
BRANCH   7  35
ATOM     34  O   UNL     1     -14.328   2.290  -4.267  0.00  0.00    +0.000 OA
ATOM     35  C   UNL     1     -15.005   2.951  -3.477  0.00  0.00    +0.000 C 
BRANCH  35  36
ATOM     36  O   UNL     1     -15.963   2.498  -2.613  0.00  0.00    +0.000 OA
ATOM     37  C   UNL     1     -17.040   1.781  -3.151  0.00  0.00    +0.000 C 
ENDBRANCH  35  36
ENDBRANCH   7  35
TORSDOF 3
ENDMDL
MODEL 3
REMARK VINA RESULT:      -7.1     11.616     13.807
REMARK  Name = 490561_Nocardiopsis.pdbqt.pdb
REMARK  3 active torsions:
REMARK  status: ('A' for Active; 'I' for Inactive)
REMARK    1  A    between atoms: C_7  and  O_32
REMARK    2  A    between atoms: C_7  and  C_35
REMARK    3  A    between atoms: C_35  and  O_36
REMARK                            x       y       z     vdW  Elec       q    Type
REMARK                         _______ _______ _______ _____ _____    ______ ____
ROOT
ATOM      1  O   UNL     1      -3.828  16.364  -0.752  0.00  0.00    +0.000 OA
ATOM      2  O   UNL     1      -7.532  21.988   2.621  0.00  0.00    +0.000 OA
ATOM      3  N   UNL     1      -4.074  16.293   1.598  0.00  0.00    +0.000 N 
ATOM      4  N   UNL     1      -5.715  17.708  -0.479  0.00  0.00    +0.000 N 
ATOM      5  N   UNL     1      -6.356  21.057   4.395  0.00  0.00    +0.000 N 
ATOM      6  C   UNL     1      -3.852  15.453   0.403  0.00  0.00    +0.000 C 
ATOM      7  C   UNL     1      -5.061  14.469   0.094  0.00  0.00    +0.000 C 
ATOM      8  C   UNL     1      -5.185  16.569  -1.059  0.00  0.00    +0.000 C 
ATOM      9  C   UNL     1      -5.840  15.345  -0.776  0.00  0.00    +0.000 C 
ATOM     10  C   UNL     1      -4.734  17.487   1.747  0.00  0.00    +0.000 A 
ATOM     11  C   UNL     1      -5.485  18.161   0.784  0.00  0.00    +0.000 A 
ATOM     12  C   UNL     1      -4.758  18.100   3.004  0.00  0.00    +0.000 A 
ATOM     13  C   UNL     1      -6.135  19.318   1.228  0.00  0.00    +0.000 A 
ATOM     14  C   UNL     1      -2.445  14.770   0.416  0.00  0.00    +0.000 C 
ATOM     15  C   UNL     1      -3.689  16.065   2.943  0.00  0.00    +0.000 A 
ATOM     16  C   UNL     1      -6.668  18.647  -0.914  0.00  0.00    +0.000 A 
ATOM     17  C   UNL     1      -4.069  17.166   3.798  0.00  0.00    +0.000 A 
ATOM     18  C   UNL     1      -5.381  19.268   3.464  0.00  0.00    +0.000 A 
ATOM     19  C   UNL     1      -6.154  19.958   2.484  0.00  0.00    +0.000 A 
ATOM     20  C   UNL     1      -6.916  19.650   0.098  0.00  0.00    +0.000 A 
ATOM     21  C   UNL     1      -5.544  20.032   4.727  0.00  0.00    +0.000 C 
ATOM     22  C   UNL     1      -3.029  14.951   3.489  0.00  0.00    +0.000 A 
ATOM     23  C   UNL     1      -6.794  21.119   3.063  0.00  0.00    +0.000 C 
ATOM     24  C   UNL     1      -7.328  18.695  -2.152  0.00  0.00    +0.000 A 
ATOM     25  C   UNL     1      -3.747  17.096   5.169  0.00  0.00    +0.000 A 
ATOM     26  C   UNL     1      -7.848  20.665  -0.196  0.00  0.00    +0.000 A 
ATOM     27  C   UNL     1      -2.731  14.929   4.852  0.00  0.00    +0.000 A 
ATOM     28  C   UNL     1      -3.077  15.984   5.680  0.00  0.00    +0.000 A 
ATOM     29  C   UNL     1      -8.234  19.728  -2.390  0.00  0.00    +0.000 A 
ATOM     30  C   UNL     1      -8.492  20.697  -1.432  0.00  0.00    +0.000 A 
ATOM     31  H   UNL     1      -6.649  21.757   5.060  0.00  0.00    +0.000 HD
ENDROOT
BRANCH   7  32
ATOM     32  O   UNL     1      -5.858  14.116   1.233  0.00  0.00    +0.000 OA
ATOM     33  H   UNL     1      -6.618  14.738   1.262  0.00  0.00    +0.000 HD
ENDBRANCH   7  32
BRANCH   7  35
ATOM     34  O   UNL     1      -4.313  12.190  -0.017  0.00  0.00    +0.000 OA
ATOM     35  C   UNL     1      -4.596  13.214  -0.643  0.00  0.00    +0.000 C 
BRANCH  35  36
ATOM     36  O   UNL     1      -4.606  13.390  -1.998  0.00  0.00    +0.000 OA
ATOM     37  C   UNL     1      -5.001  12.306  -2.794  0.00  0.00    +0.000 C 
ENDBRANCH  35  36
ENDBRANCH   7  35
TORSDOF 3
ENDMDL
MODEL 4
REMARK VINA RESULT:      -7.0      2.070      3.497
REMARK  Name = 490561_Nocardiopsis.pdbqt.pdb
REMARK  3 active torsions:
REMARK  status: ('A' for Active; 'I' for Inactive)
REMARK    1  A    between atoms: C_7  and  O_32
REMARK    2  A    between atoms: C_7  and  C_35
REMARK    3  A    between atoms: C_35  and  O_36
REMARK                            x       y       z     vdW  Elec       q    Type
REMARK                         _______ _______ _______ _____ _____    ______ ____
ROOT
ATOM      1  O   UNL     1     -14.345   5.881  -5.180  0.00  0.00    +0.000 OA
ATOM      2  O   UNL     1     -14.947  11.782  -0.538  0.00  0.00    +0.000 OA
ATOM      3  N   UNL     1     -15.881   5.746  -3.387  0.00  0.00    +0.000 N 
ATOM      4  N   UNL     1     -14.733   8.146  -4.776  0.00  0.00    +0.000 N 
ATOM      5  N   UNL     1     -15.884  10.077   0.730  0.00  0.00    +0.000 N 
ATOM      6  C   UNL     1     -15.574   5.209  -4.729  0.00  0.00    +0.000 C 
ATOM      7  C   UNL     1     -16.654   5.605  -5.826  0.00  0.00    +0.000 C 
ATOM      8  C   UNL     1     -14.792   7.111  -5.694  0.00  0.00    +0.000 C 
ATOM      9  C   UNL     1     -16.054   6.855  -6.284  0.00  0.00    +0.000 C 
ATOM     10  C   UNL     1     -15.611   6.968  -2.824  0.00  0.00    +0.000 A 
ATOM     11  C   UNL     1     -15.063   8.084  -3.457  0.00  0.00    +0.000 A 
ATOM     12  C   UNL     1     -15.981   7.203  -1.497  0.00  0.00    +0.000 A 
ATOM     13  C   UNL     1     -14.980   9.240  -2.673  0.00  0.00    +0.000 A 
ATOM     14  C   UNL     1     -15.218   3.687  -4.688  0.00  0.00    +0.000 C 
ATOM     15  C   UNL     1     -16.583   5.140  -2.315  0.00  0.00    +0.000 A 
ATOM     16  C   UNL     1     -14.441   9.517  -4.899  0.00  0.00    +0.000 A 
ATOM     17  C   UNL     1     -16.623   6.000  -1.154  0.00  0.00    +0.000 A 
ATOM     18  C   UNL     1     -15.887   8.342  -0.687  0.00  0.00    +0.000 A 
ATOM     19  C   UNL     1     -15.331   9.488  -1.330  0.00  0.00    +0.000 A 
ATOM     20  C   UNL     1     -14.559  10.194  -3.627  0.00  0.00    +0.000 A 
ATOM     21  C   UNL     1     -16.246   8.778   0.687  0.00  0.00    +0.000 C 
ATOM     22  C   UNL     1     -17.206   3.881  -2.274  0.00  0.00    +0.000 A 
ATOM     23  C   UNL     1     -15.319  10.623  -0.432  0.00  0.00    +0.000 C 
ATOM     24  C   UNL     1     -14.061  10.216  -6.054  0.00  0.00    +0.000 A 
ATOM     25  C   UNL     1     -17.280   5.536   0.004  0.00  0.00    +0.000 A 
ATOM     26  C   UNL     1     -14.291  11.577  -3.590  0.00  0.00    +0.000 A 
ATOM     27  C   UNL     1     -17.842   3.466  -1.104  0.00  0.00    +0.000 A 
ATOM     28  C   UNL     1     -17.875   4.275   0.020  0.00  0.00    +0.000 A 
ATOM     29  C   UNL     1     -13.801  11.583  -5.957  0.00  0.00    +0.000 A 
ATOM     30  C   UNL     1     -13.912  12.254  -4.748  0.00  0.00    +0.000 A 
ATOM     31  H   UNL     1     -16.008  10.649   1.552  0.00  0.00    +0.000 HD
ENDROOT
BRANCH   7  32
ATOM     32  O   UNL     1     -17.965   5.881  -5.310  0.00  0.00    +0.000 OA
ATOM     33  H   UNL     1     -18.568   5.191  -5.662  0.00  0.00    +0.000 HD
ENDBRANCH   7  32
BRANCH   7  35
ATOM     34  O   UNL     1     -17.542   3.647  -6.893  0.00  0.00    +0.000 OA
ATOM     35  C   UNL     1     -16.729   4.572  -6.948  0.00  0.00    +0.000 C 
BRANCH  35  36
ATOM     36  O   UNL     1     -15.856   4.860  -7.960  0.00  0.00    +0.000 OA
ATOM     37  C   UNL     1     -14.971   3.850  -8.364  0.00  0.00    +0.000 C 
ENDBRANCH  35  36
ENDBRANCH   7  35
TORSDOF 3
ENDMDL
MODEL 5
REMARK VINA RESULT:      -6.9     21.567     24.617
REMARK  Name = 490561_Nocardiopsis.pdbqt.pdb
REMARK  3 active torsions:
REMARK  status: ('A' for Active; 'I' for Inactive)
REMARK    1  A    between atoms: C_7  and  O_32
REMARK    2  A    between atoms: C_7  and  C_35
REMARK    3  A    between atoms: C_35  and  O_36
REMARK                            x       y       z     vdW  Elec       q    Type
REMARK                         _______ _______ _______ _____ _____    ______ ____
ROOT
ATOM      1  O   UNL     1      -9.275   1.696  21.042  0.00  0.00    +0.000 OA
ATOM      2  O   UNL     1      -5.352   1.820  14.614  0.00  0.00    +0.000 OA
ATOM      3  N   UNL     1      -9.847   3.309  19.411  0.00  0.00    +0.000 N 
ATOM      4  N   UNL     1      -8.455   0.666  19.117  0.00  0.00    +0.000 N 
ATOM      5  N   UNL     1      -6.325   3.928  14.622  0.00  0.00    +0.000 N 
ATOM      6  C   UNL     1     -10.373   2.552  20.565  0.00  0.00    +0.000 C 
ATOM      7  C   UNL     1     -11.520   1.524  20.173  0.00  0.00    +0.000 C 
ATOM      8  C   UNL     1      -9.317   0.575  20.195  0.00  0.00    +0.000 C 
ATOM      9  C   UNL     1     -10.685   0.358  19.900  0.00  0.00    +0.000 C 
ATOM     10  C   UNL     1      -8.877   2.990  18.494  0.00  0.00    +0.000 A 
ATOM     11  C   UNL     1      -8.213   1.771  18.358  0.00  0.00    +0.000 A 
ATOM     12  C   UNL     1      -8.538   3.923  17.510  0.00  0.00    +0.000 A 
ATOM     13  C   UNL     1      -7.333   1.681  17.274  0.00  0.00    +0.000 A 
ATOM     14  C   UNL     1     -10.721   3.484  21.773  0.00  0.00    +0.000 C 
ATOM     15  C   UNL     1     -10.239   4.577  18.912  0.00  0.00    +0.000 A 
ATOM     16  C   UNL     1      -7.681  -0.286  18.428  0.00  0.00    +0.000 A 
ATOM     17  C   UNL     1      -9.432   4.974  17.781  0.00  0.00    +0.000 A 
ATOM     18  C   UNL     1      -7.645   3.864  16.431  0.00  0.00    +0.000 A 
ATOM     19  C   UNL     1      -6.966   2.618  16.286  0.00  0.00    +0.000 A 
ATOM     20  C   UNL     1      -6.971   0.316  17.322  0.00  0.00    +0.000 A 
ATOM     21  C   UNL     1      -7.192   4.712  15.299  0.00  0.00    +0.000 C 
ATOM     22  C   UNL     1     -11.265   5.421  19.371  0.00  0.00    +0.000 A 
ATOM     23  C   UNL     1      -6.106   2.636  15.123  0.00  0.00    +0.000 C 
ATOM     24  C   UNL     1      -7.543  -1.653  18.714  0.00  0.00    +0.000 A 
ATOM     25  C   UNL     1      -9.692   6.220  17.174  0.00  0.00    +0.000 A 
ATOM     26  C   UNL     1      -6.147  -0.516  16.538  0.00  0.00    +0.000 A 
ATOM     27  C   UNL     1     -11.481   6.644  18.738  0.00  0.00    +0.000 A 
ATOM     28  C   UNL     1     -10.706   7.043  17.661  0.00  0.00    +0.000 A 
ATOM     29  C   UNL     1      -6.708  -2.426  17.908  0.00  0.00    +0.000 A 
ATOM     30  C   UNL     1      -6.020  -1.871  16.838  0.00  0.00    +0.000 A 
ATOM     31  H   UNL     1      -5.847   4.239  13.790  0.00  0.00    +0.000 HD
ENDROOT
BRANCH   7  32
ATOM     32  O   UNL     1     -12.251   1.861  18.985  0.00  0.00    +0.000 OA
ATOM     33  H   UNL     1     -12.946   1.177  18.866  0.00  0.00    +0.000 HD
ENDBRANCH   7  32
BRANCH   7  35
ATOM     34  O   UNL     1     -13.577   1.828  21.372  0.00  0.00    +0.000 OA
ATOM     35  C   UNL     1     -12.478   1.271  21.335  0.00  0.00    +0.000 C 
BRANCH  35  36
ATOM     36  O   UNL     1     -11.973   0.357  22.217  0.00  0.00    +0.000 OA
ATOM     37  C   UNL     1     -12.681   0.140  23.408  0.00  0.00    +0.000 C 
ENDBRANCH  35  36
ENDBRANCH   7  35
TORSDOF 3
ENDMDL
MODEL 6
REMARK VINA RESULT:      -6.8      1.475      5.237
REMARK  Name = 490561_Nocardiopsis.pdbqt.pdb
REMARK  3 active torsions:
REMARK  status: ('A' for Active; 'I' for Inactive)
REMARK    1  A    between atoms: C_7  and  O_32
REMARK    2  A    between atoms: C_7  and  C_35
REMARK    3  A    between atoms: C_35  and  O_36
REMARK                            x       y       z     vdW  Elec       q    Type
REMARK                         _______ _______ _______ _____ _____    ______ ____
ROOT
ATOM      1  O   UNL     1     -16.882   7.228  -4.757  0.00  0.00    +0.000 OA
ATOM      2  O   UNL     1     -14.294  13.037  -0.720  0.00  0.00    +0.000 OA
ATOM      3  N   UNL     1     -15.067   8.474  -5.620  0.00  0.00    +0.000 N 
ATOM      4  N   UNL     1     -16.015   8.140  -2.792  0.00  0.00    +0.000 N 
ATOM      5  N   UNL     1     -13.447  13.505  -2.831  0.00  0.00    +0.000 N 
ATOM      6  C   UNL     1     -15.730   7.155  -5.670  0.00  0.00    +0.000 C 
ATOM      7  C   UNL     1     -14.840   5.981  -5.073  0.00  0.00    +0.000 C 
ATOM      8  C   UNL     1     -16.332   6.985  -3.486  0.00  0.00    +0.000 C 
ATOM      9  C   UNL     1     -15.283   6.054  -3.684  0.00  0.00    +0.000 C 
ATOM     10  C   UNL     1     -14.991   9.405  -4.615  0.00  0.00    +0.000 A 
ATOM     11  C   UNL     1     -15.443   9.266  -3.302  0.00  0.00    +0.000 A 
ATOM     12  C   UNL     1     -14.324  10.610  -4.851  0.00  0.00    +0.000 A 
ATOM     13  C   UNL     1     -15.155  10.337  -2.449  0.00  0.00    +0.000 A 
ATOM     14  C   UNL     1     -16.342   6.855  -7.078  0.00  0.00    +0.000 C 
ATOM     15  C   UNL     1     -14.285   9.126  -6.607  0.00  0.00    +0.000 A 
ATOM     16  C   UNL     1     -16.073   8.482  -1.429  0.00  0.00    +0.000 A 
ATOM     17  C   UNL     1     -13.856  10.433  -6.166  0.00  0.00    +0.000 A 
ATOM     18  C   UNL     1     -14.045  11.704  -4.022  0.00  0.00    +0.000 A 
ATOM     19  C   UNL     1     -14.501  11.565  -2.677  0.00  0.00    +0.000 A 
ATOM     20  C   UNL     1     -15.579   9.823  -1.203  0.00  0.00    +0.000 A 
ATOM     21  C   UNL     1     -13.343  13.012  -4.083  0.00  0.00    +0.000 C 
ATOM     22  C   UNL     1     -13.906   8.657  -7.877  0.00  0.00    +0.000 A 
ATOM     23  C   UNL     1     -14.126  12.718  -1.888  0.00  0.00    +0.000 C 
ATOM     24  C   UNL     1     -16.544   7.700  -0.363  0.00  0.00    +0.000 A 
ATOM     25  C   UNL     1     -13.075  11.215  -7.040  0.00  0.00    +0.000 A 
ATOM     26  C   UNL     1     -15.579  10.310   0.119  0.00  0.00    +0.000 A 
ATOM     27  C   UNL     1     -13.134   9.469  -8.706  0.00  0.00    +0.000 A 
ATOM     28  C   UNL     1     -12.728  10.731  -8.301  0.00  0.00    +0.000 A 
ATOM     29  C   UNL     1     -16.526   8.237   0.923  0.00  0.00    +0.000 A 
ATOM     30  C   UNL     1     -16.053   9.519   1.164  0.00  0.00    +0.000 A 
ATOM     31  H   UNL     1     -13.057  14.397  -2.564  0.00  0.00    +0.000 HD
ENDROOT
BRANCH   7  32
ATOM     32  O   UNL     1     -13.424   6.213  -5.122  0.00  0.00    +0.000 OA
ATOM     33  H   UNL     1     -12.994   5.351  -5.311  0.00  0.00    +0.000 HD
ENDBRANCH   7  32
BRANCH   7  35
ATOM     34  O   UNL     1     -14.548   4.218  -6.677  0.00  0.00    +0.000 OA
ATOM     35  C   UNL     1     -15.182   4.632  -5.703  0.00  0.00    +0.000 C 
BRANCH  35  36
ATOM     36  O   UNL     1     -16.184   3.996  -5.024  0.00  0.00    +0.000 OA
ATOM     37  C   UNL     1     -17.280   3.532  -5.765  0.00  0.00    +0.000 C 
ENDBRANCH  35  36
ENDBRANCH   7  35
TORSDOF 3
ENDMDL
MODEL 7
REMARK VINA RESULT:      -6.4      9.320     13.803
REMARK  Name = 490561_Nocardiopsis.pdbqt.pdb
REMARK  3 active torsions:
REMARK  status: ('A' for Active; 'I' for Inactive)
REMARK    1  A    between atoms: C_7  and  O_32
REMARK    2  A    between atoms: C_7  and  C_35
REMARK    3  A    between atoms: C_35  and  O_36
REMARK                            x       y       z     vdW  Elec       q    Type
REMARK                         _______ _______ _______ _____ _____    ______ ____
ROOT
ATOM      1  O   UNL     1     -10.797  -1.904   1.471  0.00  0.00    +0.000 OA
ATOM      2  O   UNL     1     -18.193  -3.190   0.860  0.00  0.00    +0.000 OA
ATOM      3  N   UNL     1     -12.152  -0.223   0.507  0.00  0.00    +0.000 N 
ATOM      4  N   UNL     1     -12.871  -2.445   2.392  0.00  0.00    +0.000 N 
ATOM      5  N   UNL     1     -17.880  -1.463  -0.662  0.00  0.00    +0.000 N 
ATOM      6  C   UNL     1     -10.874  -0.458   1.210  0.00  0.00    +0.000 C 
ATOM      7  C   UNL     1     -10.823   0.197   2.657  0.00  0.00    +0.000 C 
ATOM      8  C   UNL     1     -11.557  -2.086   2.639  0.00  0.00    +0.000 C 
ATOM      9  C   UNL     1     -11.351  -0.926   3.426  0.00  0.00    +0.000 C 
ATOM     10  C   UNL     1     -13.345  -0.898   0.561  0.00  0.00    +0.000 A 
ATOM     11  C   UNL     1     -13.684  -1.942   1.422  0.00  0.00    +0.000 A 
ATOM     12  C   UNL     1     -14.401  -0.482  -0.255  0.00  0.00    +0.000 A 
ATOM     13  C   UNL     1     -15.006  -2.392   1.333  0.00  0.00    +0.000 A 
ATOM     14  C   UNL     1      -9.637  -0.138   0.308  0.00  0.00    +0.000 C 
ATOM     15  C   UNL     1     -12.502   0.807  -0.402  0.00  0.00    +0.000 A 
ATOM     16  C   UNL     1     -13.771  -3.296   3.059  0.00  0.00    +0.000 A 
ATOM     17  C   UNL     1     -13.851   0.643  -0.894  0.00  0.00    +0.000 A 
ATOM     18  C   UNL     1     -15.722  -0.931  -0.378  0.00  0.00    +0.000 A 
ATOM     19  C   UNL     1     -16.075  -1.996   0.503  0.00  0.00    +0.000 A 
ATOM     20  C   UNL     1     -15.066  -3.298   2.415  0.00  0.00    +0.000 A 
ATOM     21  C   UNL     1     -16.956  -0.602  -1.138  0.00  0.00    +0.000 C 
ATOM     22  C   UNL     1     -11.728   1.897  -0.833  0.00  0.00    +0.000 A 
ATOM     23  C   UNL     1     -17.466  -2.358   0.337  0.00  0.00    +0.000 C 
ATOM     24  C   UNL     1     -13.530  -4.087   4.193  0.00  0.00    +0.000 A 
ATOM     25  C   UNL     1     -14.348   1.585  -1.818  0.00  0.00    +0.000 A 
ATOM     26  C   UNL     1     -16.075  -4.111   2.969  0.00  0.00    +0.000 A 
ATOM     27  C   UNL     1     -12.265   2.801  -1.749  0.00  0.00    +0.000 A 
ATOM     28  C   UNL     1     -13.551   2.648  -2.241  0.00  0.00    +0.000 A 
ATOM     29  C   UNL     1     -14.564  -4.877   4.693  0.00  0.00    +0.000 A 
ATOM     30  C   UNL     1     -15.815  -4.892   4.094  0.00  0.00    +0.000 A 
ATOM     31  H   UNL     1     -18.832  -1.478  -0.995  0.00  0.00    +0.000 HD
ENDROOT
BRANCH   7  32
ATOM     32  O   UNL     1     -11.685   1.331   2.837  0.00  0.00    +0.000 OA
ATOM     33  H   UNL     1     -12.171   1.464   1.994  0.00  0.00    +0.000 HD
ENDBRANCH   7  32
BRANCH   7  35
ATOM     34  O   UNL     1      -8.979   1.699   2.984  0.00  0.00    +0.000 OA
ATOM     35  C   UNL     1      -9.394   0.542   3.074  0.00  0.00    +0.000 C 
BRANCH  35  36
ATOM     36  O   UNL     1      -8.737  -0.547   3.574  0.00  0.00    +0.000 OA
ATOM     37  C   UNL     1      -7.346  -0.601   3.408  0.00  0.00    +0.000 C 
ENDBRANCH  35  36
ENDBRANCH   7  35
TORSDOF 3
ENDMDL
MODEL 8
REMARK VINA RESULT:      -6.2     11.244     15.065
REMARK  Name = 490561_Nocardiopsis.pdbqt.pdb
REMARK  3 active torsions:
REMARK  status: ('A' for Active; 'I' for Inactive)
REMARK    1  A    between atoms: C_7  and  O_32
REMARK    2  A    between atoms: C_7  and  C_35
REMARK    3  A    between atoms: C_35  and  O_36
REMARK                            x       y       z     vdW  Elec       q    Type
REMARK                         _______ _______ _______ _____ _____    ______ ____
ROOT
ATOM      1  O   UNL     1      -2.108  16.771   2.041  0.00  0.00    +0.000 OA
ATOM      2  O   UNL     1      -7.812  16.337  -2.859  0.00  0.00    +0.000 OA
ATOM      3  N   UNL     1      -4.021  18.107   2.426  0.00  0.00    +0.000 N 
ATOM      4  N   UNL     1      -3.719  15.560   0.866  0.00  0.00    +0.000 N 
ATOM      5  N   UNL     1      -8.253  18.350  -1.787  0.00  0.00    +0.000 N 
ATOM      6  C   UNL     1      -2.864  17.472   3.091  0.00  0.00    +0.000 C 
ATOM      7  C   UNL     1      -3.278  16.318   4.103  0.00  0.00    +0.000 C 
ATOM      8  C   UNL     1      -2.784  15.548   1.886  0.00  0.00    +0.000 C 
ATOM      9  C   UNL     1      -3.251  15.192   3.175  0.00  0.00    +0.000 C 
ATOM     10  C   UNL     1      -4.724  17.743   1.305  0.00  0.00    +0.000 A 
ATOM     11  C   UNL     1      -4.581  16.570   0.564  0.00  0.00    +0.000 A 
ATOM     12  C   UNL     1      -5.767  18.561   0.860  0.00  0.00    +0.000 A 
ATOM     13  C   UNL     1      -5.494  16.404  -0.484  0.00  0.00    +0.000 A 
ATOM     14  C   UNL     1      -1.870  18.526   3.679  0.00  0.00    +0.000 C 
ATOM     15  C   UNL     1      -4.749  19.265   2.798  0.00  0.00    +0.000 A 
ATOM     16  C   UNL     1      -4.138  14.586  -0.058  0.00  0.00    +0.000 A 
ATOM     17  C   UNL     1      -5.788  19.568   1.842  0.00  0.00    +0.000 A 
ATOM     18  C   UNL     1      -6.677  18.427  -0.197  0.00  0.00    +0.000 A 
ATOM     19  C   UNL     1      -6.537  17.226  -0.956  0.00  0.00    +0.000 A 
ATOM     20  C   UNL     1      -5.197  15.088  -0.905  0.00  0.00    +0.000 A 
ATOM     21  C   UNL     1      -7.835  19.149  -0.782  0.00  0.00    +0.000 C 
ATOM     22  C   UNL     1      -4.578  20.082   3.928  0.00  0.00    +0.000 A 
ATOM     23  C   UNL     1      -7.546  17.155  -1.990  0.00  0.00    +0.000 C 
ATOM     24  C   UNL     1      -3.644  13.283  -0.221  0.00  0.00    +0.000 A 
ATOM     25  C   UNL     1      -6.599  20.700   2.065  0.00  0.00    +0.000 A 
ATOM     26  C   UNL     1      -5.720  14.224  -1.888  0.00  0.00    +0.000 A 
ATOM     27  C   UNL     1      -5.404  21.192   4.104  0.00  0.00    +0.000 A 
ATOM     28  C   UNL     1      -6.395  21.502   3.187  0.00  0.00    +0.000 A 
ATOM     29  C   UNL     1      -4.194  12.474  -1.215  0.00  0.00    +0.000 A 
ATOM     30  C   UNL     1      -5.213  12.934  -2.036  0.00  0.00    +0.000 A 
ATOM     31  H   UNL     1      -9.038  18.583  -2.376  0.00  0.00    +0.000 HD
ENDROOT
BRANCH   7  32
ATOM     32  O   UNL     1      -4.600  16.439   4.649  0.00  0.00    +0.000 OA
ATOM     33  H   UNL     1      -4.841  15.565   5.026  0.00  0.00    +0.000 HD
ENDBRANCH   7  32
BRANCH   7  35
ATOM     34  O   UNL     1      -1.152  15.642   4.991  0.00  0.00    +0.000 OA
ATOM     35  C   UNL     1      -2.251  16.150   5.222  0.00  0.00    +0.000 C 
BRANCH  35  36
ATOM     36  O   UNL     1      -2.702  16.668   6.404  0.00  0.00    +0.000 OA
ATOM     37  C   UNL     1      -1.764  17.282   7.246  0.00  0.00    +0.000 C 
ENDBRANCH  35  36
ENDBRANCH   7  35
TORSDOF 3
ENDMDL
MODEL 9
REMARK VINA RESULT:      -6.2     14.115     16.122
REMARK  Name = 490561_Nocardiopsis.pdbqt.pdb
REMARK  3 active torsions:
REMARK  status: ('A' for Active; 'I' for Inactive)
REMARK    1  A    between atoms: C_7  and  O_32
REMARK    2  A    between atoms: C_7  and  C_35
REMARK    3  A    between atoms: C_35  and  O_36
REMARK                            x       y       z     vdW  Elec       q    Type
REMARK                         _______ _______ _______ _____ _____    ______ ____
ROOT
ATOM      1  O   UNL     1      -2.431  17.624   2.869  0.00  0.00    +0.000 OA
ATOM      2  O   UNL     1      -8.146  22.528   2.722  0.00  0.00    +0.000 OA
ATOM      3  N   UNL     1      -3.566  18.084   4.891  0.00  0.00    +0.000 N 
ATOM      4  N   UNL     1      -4.488  18.357   2.048  0.00  0.00    +0.000 N 
ATOM      5  N   UNL     1      -7.613  22.481   4.982  0.00  0.00    +0.000 N 
ATOM      6  C   UNL     1      -2.737  17.075   4.199  0.00  0.00    +0.000 C 
ATOM      7  C   UNL     1      -3.518  15.726   3.889  0.00  0.00    +0.000 C 
ATOM      8  C   UNL     1      -3.569  17.323   2.100  0.00  0.00    +0.000 C 
ATOM      9  C   UNL     1      -4.041  16.074   2.570  0.00  0.00    +0.000 C 
ATOM     10  C   UNL     1      -4.441  19.019   4.399  0.00  0.00    +0.000 A 
ATOM     11  C   UNL     1      -4.864  19.165   3.078  0.00  0.00    +0.000 A 
ATOM     12  C   UNL     1      -5.073  19.894   5.287  0.00  0.00    +0.000 A 
ATOM     13  C   UNL     1      -5.840  20.144   2.862  0.00  0.00    +0.000 A 
ATOM     14  C   UNL     1      -1.348  16.877   4.891  0.00  0.00    +0.000 C 
ATOM     15  C   UNL     1      -3.706  18.333   6.280  0.00  0.00    +0.000 A 
ATOM     16  C   UNL     1      -5.349  18.821   1.037  0.00  0.00    +0.000 A 
ATOM     17  C   UNL     1      -4.592  19.447   6.531  0.00  0.00    +0.000 A 
ATOM     18  C   UNL     1      -6.033  20.896   5.091  0.00  0.00    +0.000 A 
ATOM     19  C   UNL     1      -6.472  21.046   3.742  0.00  0.00    +0.000 A 
ATOM     20  C   UNL     1      -6.159  19.924   1.503  0.00  0.00    +0.000 A 
ATOM     21  C   UNL     1      -6.821  21.870   5.889  0.00  0.00    +0.000 C 
ATOM     22  C   UNL     1      -3.120  17.649   7.358  0.00  0.00    +0.000 A 
ATOM     23  C   UNL     1      -7.493  22.066   3.647  0.00  0.00    +0.000 C 
ATOM     24  C   UNL     1      -5.464  18.350  -0.280  0.00  0.00    +0.000 A 
ATOM     25  C   UNL     1      -4.829  19.829   7.867  0.00  0.00    +0.000 A 
ATOM     26  C   UNL     1      -7.071  20.500   0.597  0.00  0.00    +0.000 A 
ATOM     27  C   UNL     1      -3.385  18.066   8.662  0.00  0.00    +0.000 A 
ATOM     28  C   UNL     1      -4.220  19.142   8.916  0.00  0.00    +0.000 A 
ATOM     29  C   UNL     1      -6.379  18.963  -1.135  0.00  0.00    +0.000 A 
ATOM     30  C   UNL     1      -7.169  20.019  -0.708  0.00  0.00    +0.000 A 
ATOM     31  H   UNL     1      -8.269  23.204   5.233  0.00  0.00    +0.000 HD
ENDROOT
BRANCH   7  32
ATOM     32  O   UNL     1      -4.619  15.451   4.767  0.00  0.00    +0.000 OA
ATOM     33  H   UNL     1      -4.291  14.841   5.464  0.00  0.00    +0.000 HD
ENDBRANCH   7  32
BRANCH   7  35
ATOM     34  O   UNL     1      -2.529  13.716   4.749  0.00  0.00    +0.000 OA
ATOM     35  C   UNL     1      -2.576  14.526   3.822  0.00  0.00    +0.000 C 
BRANCH  35  36
ATOM     36  O   UNL     1      -1.897  14.482   2.636  0.00  0.00    +0.000 OA
ATOM     37  C   UNL     1      -0.539  14.137   2.675  0.00  0.00    +0.000 C 
ENDBRANCH  35  36
ENDBRANCH   7  35
TORSDOF 3
ENDMDL
