MODEL 1
REMARK VINA RESULT:      -5.5      0.000      0.000
REMARK  Name = 50922675_Encorafenib.pdbqt.pdb
REMARK  8 active torsions:
REMARK  status: ('A' for Active; 'I' for Inactive)
REMARK    1  A    between atoms: N_1  and  C_37
REMARK    2  A    between atoms: C_3  and  C_23
REMARK    3  A    between atoms: C_4  and  C_8
REMARK    4  A    between atoms: C_11  and  N_14
REMARK    5  A    between atoms: N_14  and  S_16
REMARK    6  A    between atoms: N_20  and  C_28
REMARK    7  A    between atoms: C_28  and  C_29
REMARK    8  A    between atoms: C_33  and  O_35
REMARK                            x       y       z     vdW  Elec       q    Type
REMARK                         _______ _______ _______ _____ _____    ______ ____
ROOT
ATOM      1  N   UNL     1     -14.503   8.996  -4.550  0.00  0.00    +0.000 N 
ATOM      2  N   UNL     1     -14.794   7.647  -4.526  0.00  0.00    +0.000 NA
ATOM      3  C   UNL     1     -15.435   8.568  -2.538  0.00  0.00    +0.000 A 
ATOM      4  C   UNL     1     -15.373   7.397  -3.341  0.00  0.00    +0.000 A 
ATOM      5  C   UNL     1     -14.879   9.544  -3.331  0.00  0.00    +0.000 A 
ENDROOT
BRANCH   4   8
ATOM      6 CL   UNL     1     -18.979   3.740  -3.741  0.00  0.00    +0.000 Cl
ATOM      7  F   UNL     1     -13.798   5.572  -1.803  0.00  0.00    +0.000 F 
ATOM      8  C   UNL     1     -15.791   6.034  -3.035  0.00  0.00    +0.000 A 
ATOM      9  C   UNL     1     -14.999   5.178  -2.259  0.00  0.00    +0.000 A 
ATOM     10  C   UNL     1     -17.037   5.583  -3.472  0.00  0.00    +0.000 A 
ATOM     11  C   UNL     1     -15.431   3.885  -1.946  0.00  0.00    +0.000 A 
ATOM     12  C   UNL     1     -17.468   4.299  -3.157  0.00  0.00    +0.000 A 
ATOM     13  C   UNL     1     -16.681   3.454  -2.384  0.00  0.00    +0.000 A 
BRANCH  11  14
ATOM     14  N   UNL     1     -14.647   3.063  -1.066  0.00  0.00    +0.000 N 
ATOM     15  H   UNL     1     -14.369   3.546  -0.207  0.00  0.00    +0.000 HD
BRANCH  14  16
ATOM     16  S   UNL     1     -13.288   2.313  -1.697  0.00  0.00    +0.000 S 
ATOM     17  O   UNL     1     -13.606   1.551  -2.874  0.00  0.00    +0.000 OA
ATOM     18  O   UNL     1     -12.053   3.026  -1.458  0.00  0.00    +0.000 OA
ATOM     19  C   UNL     1     -12.972   0.946  -0.621  0.00  0.00    +0.000 C 
ENDBRANCH  14  16
ENDBRANCH  11  14
ENDBRANCH   4   8
BRANCH   3  23
ATOM     20  N   UNL     1     -19.191   8.928   0.352  0.00  0.00    +0.000 N 
ATOM     21  N   UNL     1     -17.295   8.758  -1.066  0.00  0.00    +0.000 NA
ATOM     22  N   UNL     1     -17.070   9.313   1.217  0.00  0.00    +0.000 NA
ATOM     23  C   UNL     1     -15.960   8.835  -1.208  0.00  0.00    +0.000 A 
ATOM     24  C   UNL     1     -17.812   9.001   0.151  0.00  0.00    +0.000 A 
ATOM     25  C   UNL     1     -15.113   9.154  -0.171  0.00  0.00    +0.000 A 
ATOM     26  C   UNL     1     -15.740   9.382   1.028  0.00  0.00    +0.000 A 
ATOM     27  H   UNL     1     -19.408   9.364   1.241  0.00  0.00    +0.000 HD
BRANCH  20  28
ATOM     28  C   UNL     1     -20.042   9.221  -0.795  0.00  0.00    +0.000 C 
BRANCH  28  29
ATOM     29  C   UNL     1     -20.910   9.384  -1.905  0.00  0.00    +0.000 C 
ATOM     30  C   UNL     1     -21.497  10.743  -2.140  0.00  0.00    +0.000 C 
ATOM     31  O   UNL     1     -20.042   6.644  -1.987  0.00  0.00    +0.000 OA
ATOM     32  N   UNL     1     -21.089   8.476  -2.892  0.00  0.00    +0.000 N 
ATOM     33  C   UNL     1     -20.629   7.185  -2.918  0.00  0.00    +0.000 C 
ATOM     34  H   UNL     1     -21.590   8.820  -3.706  0.00  0.00    +0.000 HD
BRANCH  33  35
ATOM     35  O   UNL     1     -20.941   6.606  -4.127  0.00  0.00    +0.000 OA
ATOM     36  C   UNL     1     -20.092   6.850  -5.220  0.00  0.00    +0.000 C 
ENDBRANCH  33  35
ENDBRANCH  28  29
ENDBRANCH  20  28
ENDBRANCH   3  23
BRANCH   1  37
ATOM     37  C   UNL     1     -13.914   9.743  -5.600  0.00  0.00    +0.000 C 
ATOM     38  C   UNL     1     -13.872  11.262  -5.582  0.00  0.00    +0.000 C 
ATOM     39  C   UNL     1     -13.270   9.081  -6.800  0.00  0.00    +0.000 C 
ENDBRANCH   1  37
TORSDOF 8
ENDMDL
MODEL 2
REMARK VINA RESULT:      -5.2     22.983     25.635
REMARK  Name = 50922675_Encorafenib.pdbqt.pdb
REMARK  8 active torsions:
REMARK  status: ('A' for Active; 'I' for Inactive)
REMARK    1  A    between atoms: N_1  and  C_37
REMARK    2  A    between atoms: C_3  and  C_23
REMARK    3  A    between atoms: C_4  and  C_8
REMARK    4  A    between atoms: C_11  and  N_14
REMARK    5  A    between atoms: N_14  and  S_16
REMARK    6  A    between atoms: N_20  and  C_28
REMARK    7  A    between atoms: C_28  and  C_29
REMARK    8  A    between atoms: C_33  and  O_35
REMARK                            x       y       z     vdW  Elec       q    Type
REMARK                         _______ _______ _______ _____ _____    ______ ____
ROOT
ATOM      1  N   UNL     1     -17.138   4.800  21.806  0.00  0.00    +0.000 N 
ATOM      2  N   UNL     1     -16.098   4.766  20.899  0.00  0.00    +0.000 NA
ATOM      3  C   UNL     1     -15.253   4.433  22.993  0.00  0.00    +0.000 A 
ATOM      4  C   UNL     1     -14.980   4.520  21.600  0.00  0.00    +0.000 A 
ATOM      5  C   UNL     1     -16.612   4.615  23.078  0.00  0.00    +0.000 A 
ENDROOT
BRANCH   4   8
ATOM      6 CL   UNL     1     -10.796   6.936  19.816  0.00  0.00    +0.000 Cl
ATOM      7  F   UNL     1     -13.963   2.092  20.483  0.00  0.00    +0.000 F 
ATOM      8  C   UNL     1     -13.709   4.430  20.892  0.00  0.00    +0.000 A 
ATOM      9  C   UNL     1     -13.256   3.225  20.341  0.00  0.00    +0.000 A 
ATOM     10  C   UNL     1     -12.945   5.583  20.704  0.00  0.00    +0.000 A 
ATOM     11  C   UNL     1     -12.050   3.165  19.635  0.00  0.00    +0.000 A 
ATOM     12  C   UNL     1     -11.748   5.524  19.999  0.00  0.00    +0.000 A 
ATOM     13  C   UNL     1     -11.305   4.327  19.450  0.00  0.00    +0.000 A 
BRANCH  11  14
ATOM     14  N   UNL     1     -11.658   1.941  18.994  0.00  0.00    +0.000 N 
ATOM     15  H   UNL     1     -12.448   1.422  18.601  0.00  0.00    +0.000 HD
BRANCH  14  16
ATOM     16  S   UNL     1     -10.720   0.863  19.868  0.00  0.00    +0.000 S 
ATOM     17  O   UNL     1     -10.447   1.355  21.192  0.00  0.00    +0.000 OA
ATOM     18  O   UNL     1     -10.914  -0.523  19.505  0.00  0.00    +0.000 OA
ATOM     19  C   UNL     1      -9.085   1.038  19.220  0.00  0.00    +0.000 C 
ENDBRANCH  14  16
ENDBRANCH  11  14
ENDBRANCH   4   8
BRANCH   3  23
ATOM     20  N   UNL     1     -11.502   5.657  25.643  0.00  0.00    +0.000 N 
ATOM     21  N   UNL     1     -13.380   5.019  24.340  0.00  0.00    +0.000 NA
ATOM     22  N   UNL     1     -12.773   3.820  26.281  0.00  0.00    +0.000 NA
ATOM     23  C   UNL     1     -14.416   4.180  24.155  0.00  0.00    +0.000 A 
ATOM     24  C   UNL     1     -12.586   4.811  25.405  0.00  0.00    +0.000 A 
ATOM     25  C   UNL     1     -14.687   3.128  25.000  0.00  0.00    +0.000 A 
ATOM     26  C   UNL     1     -13.819   3.004  26.055  0.00  0.00    +0.000 A 
ATOM     27  H   UNL     1     -10.897   5.216  26.328  0.00  0.00    +0.000 HD
BRANCH  20  28
ATOM     28  C   UNL     1     -10.892   6.293  24.482  0.00  0.00    +0.000 C 
BRANCH  28  29
ATOM     29  C   UNL     1     -10.217   6.812  23.348  0.00  0.00    +0.000 C 
ATOM     30  C   UNL     1     -10.305   8.287  23.096  0.00  0.00    +0.000 C 
ATOM     31  O   UNL     1      -9.650   3.993  23.373  0.00  0.00    +0.000 OA
ATOM     32  N   UNL     1      -9.326   6.128  22.593  0.00  0.00    +0.000 N 
ATOM     33  C   UNL     1      -9.051   4.787  22.655  0.00  0.00    +0.000 C 
ATOM     34  H   UNL     1      -8.790   6.695  21.942  0.00  0.00    +0.000 HD
BRANCH  33  35
ATOM     35  O   UNL     1      -8.027   4.483  21.788  0.00  0.00    +0.000 OA
ATOM     36  C   UNL     1      -7.497   3.181  21.815  0.00  0.00    +0.000 C 
ENDBRANCH  33  35
ENDBRANCH  28  29
ENDBRANCH  20  28
ENDBRANCH   3  23
BRANCH   1  37
ATOM     37  C   UNL     1     -18.516   4.998  21.546  0.00  0.00    +0.000 C 
ATOM     38  C   UNL     1     -19.580   4.739  22.599  0.00  0.00    +0.000 C 
ATOM     39  C   UNL     1     -19.023   5.496  20.208  0.00  0.00    +0.000 C 
ENDBRANCH   1  37
TORSDOF 8
ENDMDL
MODEL 3
REMARK VINA RESULT:      -5.1     24.523     27.241
REMARK  Name = 50922675_Encorafenib.pdbqt.pdb
REMARK  8 active torsions:
REMARK  status: ('A' for Active; 'I' for Inactive)
REMARK    1  A    between atoms: N_1  and  C_37
REMARK    2  A    between atoms: C_3  and  C_23
REMARK    3  A    between atoms: C_4  and  C_8
REMARK    4  A    between atoms: C_11  and  N_14
REMARK    5  A    between atoms: N_14  and  S_16
REMARK    6  A    between atoms: N_20  and  C_28
REMARK    7  A    between atoms: C_28  and  C_29
REMARK    8  A    between atoms: C_33  and  O_35
REMARK                            x       y       z     vdW  Elec       q    Type
REMARK                         _______ _______ _______ _____ _____    ______ ____
ROOT
ATOM      1  N   UNL     1     -17.418   4.821  22.241  0.00  0.00    +0.000 N 
ATOM      2  N   UNL     1     -16.229   4.249  21.837  0.00  0.00    +0.000 NA
ATOM      3  C   UNL     1     -15.938   5.153  23.913  0.00  0.00    +0.000 A 
ATOM      4  C   UNL     1     -15.356   4.420  22.842  0.00  0.00    +0.000 A 
ATOM      5  C   UNL     1     -17.227   5.384  23.495  0.00  0.00    +0.000 A 
ENDROOT
BRANCH   4   8
ATOM      6 CL   UNL     1     -11.929   0.737  23.945  0.00  0.00    +0.000 Cl
ATOM      7  F   UNL     1     -13.311   5.780  21.376  0.00  0.00    +0.000 F 
ATOM      8  C   UNL     1     -13.999   3.910  22.691  0.00  0.00    +0.000 A 
ATOM      9  C   UNL     1     -13.020   4.617  21.982  0.00  0.00    +0.000 A 
ATOM     10  C   UNL     1     -13.642   2.714  23.316  0.00  0.00    +0.000 A 
ATOM     11  C   UNL     1     -11.713   4.129  21.877  0.00  0.00    +0.000 A 
ATOM     12  C   UNL     1     -12.342   2.230  23.214  0.00  0.00    +0.000 A 
ATOM     13  C   UNL     1     -11.373   2.938  22.514  0.00  0.00    +0.000 A 
BRANCH  11  14
ATOM     14  N   UNL     1     -10.704   4.922  21.232  0.00  0.00    +0.000 N 
ATOM     15  H   UNL     1     -10.779   5.920  21.447  0.00  0.00    +0.000 HD
BRANCH  14  16
ATOM     16  S   UNL     1     -10.524   4.765  19.574  0.00  0.00    +0.000 S 
ATOM     17  O   UNL     1      -9.154   4.940  19.174  0.00  0.00    +0.000 OA
ATOM     18  O   UNL     1     -11.478   3.871  18.955  0.00  0.00    +0.000 OA
ATOM     19  C   UNL     1     -11.153   6.271  18.894  0.00  0.00    +0.000 C 
ENDBRANCH  14  16
ENDBRANCH  11  14
ENDBRANCH   4   8
BRANCH   3  23
ATOM     20  N   UNL     1     -16.744   5.942  28.530  0.00  0.00    +0.000 N 
ATOM     21  N   UNL     1     -16.310   5.560  26.228  0.00  0.00    +0.000 NA
ATOM     22  N   UNL     1     -14.632   6.382  27.670  0.00  0.00    +0.000 NA
ATOM     23  C   UNL     1     -15.436   5.590  25.206  0.00  0.00    +0.000 A 
ATOM     24  C   UNL     1     -15.877   5.959  27.437  0.00  0.00    +0.000 A 
ATOM     25  C   UNL     1     -14.134   6.013  25.346  0.00  0.00    +0.000 A 
ATOM     26  C   UNL     1     -13.793   6.398  26.618  0.00  0.00    +0.000 A 
ATOM     27  H   UNL     1     -16.328   6.487  29.276  0.00  0.00    +0.000 HD
BRANCH  20  28
ATOM     28  C   UNL     1     -18.165   6.113  28.249  0.00  0.00    +0.000 C 
BRANCH  28  29
ATOM     29  C   UNL     1     -19.544   6.382  28.056  0.00  0.00    +0.000 C 
ATOM     30  C   UNL     1     -20.444   5.227  27.740  0.00  0.00    +0.000 C 
ATOM     31  O   UNL     1     -18.335   8.913  28.696  0.00  0.00    +0.000 OA
ATOM     32  N   UNL     1     -20.154   7.557  28.340  0.00  0.00    +0.000 N 
ATOM     33  C   UNL     1     -19.549   8.739  28.679  0.00  0.00    +0.000 C 
ATOM     34  H   UNL     1     -21.169   7.527  28.329  0.00  0.00    +0.000 HD
BRANCH  33  35
ATOM     35  O   UNL     1     -20.507   9.681  28.977  0.00  0.00    +0.000 OA
ATOM     36  C   UNL     1     -20.363  10.425  30.161  0.00  0.00    +0.000 C 
ENDBRANCH  33  35
ENDBRANCH  28  29
ENDBRANCH  20  28
ENDBRANCH   3  23
BRANCH   1  37
ATOM     37  C   UNL     1     -18.647   4.869  21.537  0.00  0.00    +0.000 C 
ATOM     38  C   UNL     1     -19.970   4.532  22.204  0.00  0.00    +0.000 C 
ATOM     39  C   UNL     1     -18.729   5.275  20.080  0.00  0.00    +0.000 C 
ENDBRANCH   1  37
TORSDOF 8
ENDMDL
MODEL 4
REMARK VINA RESULT:      -5.1      1.663      2.186
REMARK  Name = 50922675_Encorafenib.pdbqt.pdb
REMARK  8 active torsions:
REMARK  status: ('A' for Active; 'I' for Inactive)
REMARK    1  A    between atoms: N_1  and  C_37
REMARK    2  A    between atoms: C_3  and  C_23
REMARK    3  A    between atoms: C_4  and  C_8
REMARK    4  A    between atoms: C_11  and  N_14
REMARK    5  A    between atoms: N_14  and  S_16
REMARK    6  A    between atoms: N_20  and  C_28
REMARK    7  A    between atoms: C_28  and  C_29
REMARK    8  A    between atoms: C_33  and  O_35
REMARK                            x       y       z     vdW  Elec       q    Type
REMARK                         _______ _______ _______ _____ _____    ______ ____
ROOT
ATOM      1  N   UNL     1     -14.549   8.954  -4.472  0.00  0.00    +0.000 N 
ATOM      2  N   UNL     1     -14.796   7.597  -4.448  0.00  0.00    +0.000 NA
ATOM      3  C   UNL     1     -15.515   8.506  -2.481  0.00  0.00    +0.000 A 
ATOM      4  C   UNL     1     -15.396   7.333  -3.277  0.00  0.00    +0.000 A 
ATOM      5  C   UNL     1     -14.973   9.496  -3.266  0.00  0.00    +0.000 A 
ENDROOT
BRANCH   4   8
ATOM      6 CL   UNL     1     -18.914   3.591  -3.657  0.00  0.00    +0.000 Cl
ATOM      7  F   UNL     1     -13.760   5.540  -1.765  0.00  0.00    +0.000 F 
ATOM      8  C   UNL     1     -15.776   5.959  -2.973  0.00  0.00    +0.000 A 
ATOM      9  C   UNL     1     -14.955   5.119  -2.211  0.00  0.00    +0.000 A 
ATOM     10  C   UNL     1     -17.016   5.479  -3.399  0.00  0.00    +0.000 A 
ATOM     11  C   UNL     1     -15.351   3.814  -1.900  0.00  0.00    +0.000 A 
ATOM     12  C   UNL     1     -17.412   4.184  -3.087  0.00  0.00    +0.000 A 
ATOM     13  C   UNL     1     -16.595   3.355  -2.326  0.00  0.00    +0.000 A 
BRANCH  11  14
ATOM     14  N   UNL     1     -14.538   3.008  -1.033  0.00  0.00    +0.000 N 
ATOM     15  H   UNL     1     -14.226   3.507  -0.195  0.00  0.00    +0.000 HD
BRANCH  14  16
ATOM     16  S   UNL     1     -13.207   2.238  -1.698  0.00  0.00    +0.000 S 
ATOM     17  O   UNL     1     -13.581   1.407  -2.811  0.00  0.00    +0.000 OA
ATOM     18  O   UNL     1     -11.970   2.976  -1.571  0.00  0.00    +0.000 OA
ATOM     19  C   UNL     1     -12.811   0.937  -0.568  0.00  0.00    +0.000 C 
ENDBRANCH  14  16
ENDBRANCH  11  14
ENDBRANCH   4   8
BRANCH   3  23
ATOM     20  N   UNL     1     -19.367   9.091   0.242  0.00  0.00    +0.000 N 
ATOM     21  N   UNL     1     -17.424   8.805  -1.091  0.00  0.00    +0.000 NA
ATOM     22  N   UNL     1     -17.267   9.234   1.225  0.00  0.00    +0.000 NA
ATOM     23  C   UNL     1     -16.081   8.762  -1.167  0.00  0.00    +0.000 A 
ATOM     24  C   UNL     1     -17.978   9.041   0.111  0.00  0.00    +0.000 A 
ATOM     25  C   UNL     1     -15.264   8.952  -0.076  0.00  0.00    +0.000 A 
ATOM     26  C   UNL     1     -15.928   9.185   1.102  0.00  0.00    +0.000 A 
ATOM     27  H   UNL     1     -19.588   9.506   1.140  0.00  0.00    +0.000 HD
BRANCH  20  28
ATOM     28  C   UNL     1     -20.126   9.514  -0.928  0.00  0.00    +0.000 C 
BRANCH  28  29
ATOM     29  C   UNL     1     -20.889  10.037  -2.003  0.00  0.00    +0.000 C 
ATOM     30  C   UNL     1     -20.562   9.566  -3.388  0.00  0.00    +0.000 C 
ATOM     31  O   UNL     1     -21.986  11.216   0.380  0.00  0.00    +0.000 OA
ATOM     32  N   UNL     1     -22.024  10.762  -1.871  0.00  0.00    +0.000 N 
ATOM     33  C   UNL     1     -22.542  11.279  -0.712  0.00  0.00    +0.000 C 
ATOM     34  H   UNL     1     -22.552  10.895  -2.729  0.00  0.00    +0.000 HD
BRANCH  33  35
ATOM     35  O   UNL     1     -23.752  11.880  -0.971  0.00  0.00    +0.000 OA
ATOM     36  C   UNL     1     -24.900  11.071  -1.019  0.00  0.00    +0.000 C 
ENDBRANCH  33  35
ENDBRANCH  28  29
ENDBRANCH  20  28
ENDBRANCH   3  23
BRANCH   1  37
ATOM     37  C   UNL     1     -13.958   9.716  -5.511  0.00  0.00    +0.000 C 
ATOM     38  C   UNL     1     -13.965  11.235  -5.500  0.00  0.00    +0.000 C 
ATOM     39  C   UNL     1     -13.266   9.069  -6.693  0.00  0.00    +0.000 C 
ENDBRANCH   1  37
TORSDOF 8
ENDMDL
MODEL 5
REMARK VINA RESULT:      -5.1     20.577     22.929
REMARK  Name = 50922675_Encorafenib.pdbqt.pdb
REMARK  8 active torsions:
REMARK  status: ('A' for Active; 'I' for Inactive)
REMARK    1  A    between atoms: N_1  and  C_37
REMARK    2  A    between atoms: C_3  and  C_23
REMARK    3  A    between atoms: C_4  and  C_8
REMARK    4  A    between atoms: C_11  and  N_14
REMARK    5  A    between atoms: N_14  and  S_16
REMARK    6  A    between atoms: N_20  and  C_28
REMARK    7  A    between atoms: C_28  and  C_29
REMARK    8  A    between atoms: C_33  and  O_35
REMARK                            x       y       z     vdW  Elec       q    Type
REMARK                         _______ _______ _______ _____ _____    ______ ____
ROOT
ATOM      1  N   UNL     1      -1.167   6.365  14.554  0.00  0.00    +0.000 N 
ATOM      2  N   UNL     1      -2.165   5.464  14.240  0.00  0.00    +0.000 NA
ATOM      3  C   UNL     1      -2.382   6.061  16.433  0.00  0.00    +0.000 A 
ATOM      4  C   UNL     1      -2.905   5.304  15.348  0.00  0.00    +0.000 A 
ATOM      5  C   UNL     1      -1.296   6.708  15.893  0.00  0.00    +0.000 A 
ENDROOT
BRANCH   4   8
ATOM      6 CL   UNL     1      -4.617   0.447  15.371  0.00  0.00    +0.000 Cl
ATOM      7  F   UNL     1      -5.617   6.181  15.123  0.00  0.00    +0.000 F 
ATOM      8  C   UNL     1      -4.044   4.395  15.310  0.00  0.00    +0.000 A 
ATOM      9  C   UNL     1      -5.357   4.865  15.178  0.00  0.00    +0.000 A 
ATOM     10  C   UNL     1      -3.824   3.017  15.348  0.00  0.00    +0.000 A 
ATOM     11  C   UNL     1      -6.435   3.976  15.109  0.00  0.00    +0.000 A 
ATOM     12  C   UNL     1      -4.896   2.134  15.276  0.00  0.00    +0.000 A 
ATOM     13  C   UNL     1      -6.197   2.604  15.140  0.00  0.00    +0.000 A 
BRANCH  11  14
ATOM     14  N   UNL     1      -7.760   4.477  14.872  0.00  0.00    +0.000 N 
ATOM     15  H   UNL     1      -7.774   5.312  14.278  0.00  0.00    +0.000 HD
BRANCH  14  16
ATOM     16  S   UNL     1      -8.735   4.777  16.201  0.00  0.00    +0.000 S 
ATOM     17  O   UNL     1     -10.129   4.747  15.848  0.00  0.00    +0.000 OA
ATOM     18  O   UNL     1      -8.172   4.342  17.460  0.00  0.00    +0.000 OA
ATOM     19  C   UNL     1      -8.611   6.517  16.486  0.00  0.00    +0.000 C 
ENDBRANCH  14  16
ENDBRANCH  11  14
ENDBRANCH   4   8
BRANCH   3  23
ATOM     20  N   UNL     1      -5.575   7.750  19.522  0.00  0.00    +0.000 N 
ATOM     21  N   UNL     1      -3.961   6.897  18.005  0.00  0.00    +0.000 NA
ATOM     22  N   UNL     1      -3.700   6.647  20.338  0.00  0.00    +0.000 NA
ATOM     23  C   UNL     1      -2.802   6.240  17.813  0.00  0.00    +0.000 A 
ATOM     24  C   UNL     1      -4.377   7.080  19.271  0.00  0.00    +0.000 A 
ATOM     25  C   UNL     1      -2.033   5.760  18.849  0.00  0.00    +0.000 A 
ATOM     26  C   UNL     1      -2.546   5.999  20.099  0.00  0.00    +0.000 A 
ATOM     27  H   UNL     1      -5.602   7.998  20.505  0.00  0.00    +0.000 HD
BRANCH  20  28
ATOM     28  C   UNL     1      -5.995   8.743  18.541  0.00  0.00    +0.000 C 
BRANCH  28  29
ATOM     29  C   UNL     1      -6.379   9.798  17.675  0.00  0.00    +0.000 C 
ATOM     30  C   UNL     1      -6.374   9.531  16.201  0.00  0.00    +0.000 C 
ATOM     31  O   UNL     1      -6.643  10.840  20.343  0.00  0.00    +0.000 OA
ATOM     32  N   UNL     1      -6.951  10.959  18.071  0.00  0.00    +0.000 N 
ATOM     33  C   UNL     1      -7.096  11.411  19.357  0.00  0.00    +0.000 C 
ATOM     34  H   UNL     1      -7.340  11.524  17.321  0.00  0.00    +0.000 HD
BRANCH  33  35
ATOM     35  O   UNL     1      -7.803  12.591  19.358  0.00  0.00    +0.000 OA
ATOM     36  C   UNL     1      -7.487  13.557  18.388  0.00  0.00    +0.000 C 
ENDBRANCH  33  35
ENDBRANCH  28  29
ENDBRANCH  20  28
ENDBRANCH   3  23
BRANCH   1  37
ATOM     37  C   UNL     1      -0.154   6.876  13.705  0.00  0.00    +0.000 C 
ATOM     38  C   UNL     1       0.180   6.232  12.371  0.00  0.00    +0.000 C 
ATOM     39  C   UNL     1       0.651   8.109  14.061  0.00  0.00    +0.000 C 
ENDBRANCH   1  37
TORSDOF 8
ENDMDL
MODEL 6
REMARK VINA RESULT:      -4.8      4.963      7.398
REMARK  Name = 50922675_Encorafenib.pdbqt.pdb
REMARK  8 active torsions:
REMARK  status: ('A' for Active; 'I' for Inactive)
REMARK    1  A    between atoms: N_1  and  C_37
REMARK    2  A    between atoms: C_3  and  C_23
REMARK    3  A    between atoms: C_4  and  C_8
REMARK    4  A    between atoms: C_11  and  N_14
REMARK    5  A    between atoms: N_14  and  S_16
REMARK    6  A    between atoms: N_20  and  C_28
REMARK    7  A    between atoms: C_28  and  C_29
REMARK    8  A    between atoms: C_33  and  O_35
REMARK                            x       y       z     vdW  Elec       q    Type
REMARK                         _______ _______ _______ _____ _____    ______ ____
ROOT
ATOM      1  N   UNL     1     -14.641   8.184  -6.080  0.00  0.00    +0.000 N 
ATOM      2  N   UNL     1     -14.016   9.287  -5.535  0.00  0.00    +0.000 NA
ATOM      3  C   UNL     1     -16.216   9.319  -4.927  0.00  0.00    +0.000 A 
ATOM      4  C   UNL     1     -14.945   9.948  -4.827  0.00  0.00    +0.000 A 
ATOM      5  C   UNL     1     -15.982   8.221  -5.720  0.00  0.00    +0.000 A 
ENDROOT
BRANCH   4   8
ATOM      6 CL   UNL     1     -14.195  12.375  -0.346  0.00  0.00    +0.000 Cl
ATOM      7  F   UNL     1     -14.254  12.375  -6.172  0.00  0.00    +0.000 F 
ATOM      8  C   UNL     1     -14.564  11.172  -4.133  0.00  0.00    +0.000 A 
ATOM      9  C   UNL     1     -14.253  12.347  -4.829  0.00  0.00    +0.000 A 
ATOM     10  C   UNL     1     -14.564  11.199  -2.738  0.00  0.00    +0.000 A 
ATOM     11  C   UNL     1     -13.923  13.522  -4.146  0.00  0.00    +0.000 A 
ATOM     12  C   UNL     1     -14.239  12.368  -2.059  0.00  0.00    +0.000 A 
ATOM     13  C   UNL     1     -13.936  13.533  -2.754  0.00  0.00    +0.000 A 
BRANCH  11  14
ATOM     14  N   UNL     1     -13.707  14.738  -4.880  0.00  0.00    +0.000 N 
ATOM     15  H   UNL     1     -13.963  14.662  -5.869  0.00  0.00    +0.000 HD
BRANCH  14  16
ATOM     16  S   UNL     1     -12.192  15.447  -4.794  0.00  0.00    +0.000 S 
ATOM     17  O   UNL     1     -12.185  16.569  -3.894  0.00  0.00    +0.000 OA
ATOM     18  O   UNL     1     -11.095  14.531  -5.012  0.00  0.00    +0.000 OA
ATOM     19  C   UNL     1     -12.022  16.362  -6.297  0.00  0.00    +0.000 C 
ENDBRANCH  14  16
ENDBRANCH  11  14
ENDBRANCH   4   8
BRANCH   3  23
ATOM     20  N   UNL     1     -18.891  10.100  -1.077  0.00  0.00    +0.000 N 
ATOM     21  N   UNL     1     -17.583   9.712  -3.019  0.00  0.00    +0.000 NA
ATOM     22  N   UNL     1     -19.894  10.169  -3.171  0.00  0.00    +0.000 NA
ATOM     23  C   UNL     1     -17.521   9.618  -4.360  0.00  0.00    +0.000 A 
ATOM     24  C   UNL     1     -18.776   9.987  -2.463  0.00  0.00    +0.000 A 
ATOM     25  C   UNL     1     -18.619   9.786  -5.174  0.00  0.00    +0.000 A 
ATOM     26  C   UNL     1     -19.786  10.063  -4.508  0.00  0.00    +0.000 A 
ATOM     27  H   UNL     1     -19.876  10.069  -0.835  0.00  0.00    +0.000 HD
BRANCH  20  28
ATOM     28  C   UNL     1     -17.951   9.330  -0.271  0.00  0.00    +0.000 C 
BRANCH  28  29
ATOM     29  C   UNL     1     -16.963   8.570   0.406  0.00  0.00    +0.000 C 
ATOM     30  C   UNL     1     -16.039   9.296   1.336  0.00  0.00    +0.000 C 
ATOM     31  O   UNL     1     -18.468   6.681  -1.156  0.00  0.00    +0.000 OA
ATOM     32  N   UNL     1     -16.917   7.218   0.449  0.00  0.00    +0.000 N 
ATOM     33  C   UNL     1     -17.676   6.343  -0.283  0.00  0.00    +0.000 C 
ATOM     34  H   UNL     1     -16.268   6.833   1.129  0.00  0.00    +0.000 HD
BRANCH  33  35
ATOM     35  O   UNL     1     -17.399   5.052   0.104  0.00  0.00    +0.000 OA
ATOM     36  C   UNL     1     -17.691   4.011  -0.793  0.00  0.00    +0.000 C 
ENDBRANCH  33  35
ENDBRANCH  28  29
ENDBRANCH  20  28
ENDBRANCH   3  23
BRANCH   1  37
ATOM     37  C   UNL     1     -14.070   7.165  -6.882  0.00  0.00    +0.000 C 
ATOM     38  C   UNL     1     -12.567   7.012  -7.041  0.00  0.00    +0.000 C 
ATOM     39  C   UNL     1     -14.917   6.149  -7.622  0.00  0.00    +0.000 C 
ENDBRANCH   1  37
TORSDOF 8
ENDMDL
MODEL 7
REMARK VINA RESULT:      -4.7     24.401     27.097
REMARK  Name = 50922675_Encorafenib.pdbqt.pdb
REMARK  8 active torsions:
REMARK  status: ('A' for Active; 'I' for Inactive)
REMARK    1  A    between atoms: N_1  and  C_37
REMARK    2  A    between atoms: C_3  and  C_23
REMARK    3  A    between atoms: C_4  and  C_8
REMARK    4  A    between atoms: C_11  and  N_14
REMARK    5  A    between atoms: N_14  and  S_16
REMARK    6  A    between atoms: N_20  and  C_28
REMARK    7  A    between atoms: C_28  and  C_29
REMARK    8  A    between atoms: C_33  and  O_35
REMARK                            x       y       z     vdW  Elec       q    Type
REMARK                         _______ _______ _______ _____ _____    ______ ____
ROOT
ATOM      1  N   UNL     1     -17.361   4.942  22.667  0.00  0.00    +0.000 N 
ATOM      2  N   UNL     1     -16.234   4.355  22.130  0.00  0.00    +0.000 NA
ATOM      3  C   UNL     1     -15.738   5.105  24.228  0.00  0.00    +0.000 A 
ATOM      4  C   UNL     1     -15.276   4.426  23.067  0.00  0.00    +0.000 A 
ATOM      5  C   UNL     1     -17.046   5.412  23.935  0.00  0.00    +0.000 A 
ENDROOT
BRANCH   4   8
ATOM      6 CL   UNL     1     -11.980   0.495  23.526  0.00  0.00    +0.000 Cl
ATOM      7  F   UNL     1     -13.258   5.854  21.631  0.00  0.00    +0.000 F 
ATOM      8  C   UNL     1     -13.958   3.878  22.772  0.00  0.00    +0.000 A 
ATOM      9  C   UNL     1     -12.990   4.618  22.083  0.00  0.00    +0.000 A 
ATOM     10  C   UNL     1     -13.625   2.603  23.235  0.00  0.00    +0.000 A 
ATOM     11  C   UNL     1     -11.718   4.089  21.839  0.00  0.00    +0.000 A 
ATOM     12  C   UNL     1     -12.360   2.079  22.995  0.00  0.00    +0.000 A 
ATOM     13  C   UNL     1     -11.400   2.819  22.315  0.00  0.00    +0.000 A 
BRANCH  11  14
ATOM     14  N   UNL     1     -10.711   4.905  21.221  0.00  0.00    +0.000 N 
ATOM     15  H   UNL     1     -10.760   5.888  21.505  0.00  0.00    +0.000 HD
BRANCH  14  16
ATOM     16  S   UNL     1     -10.579   4.860  19.551  0.00  0.00    +0.000 S 
ATOM     17  O   UNL     1      -9.212   4.996  19.127  0.00  0.00    +0.000 OA
ATOM     18  O   UNL     1     -11.592   4.061  18.898  0.00  0.00    +0.000 OA
ATOM     19  C   UNL     1     -11.146   6.440  18.998  0.00  0.00    +0.000 C 
ENDBRANCH  14  16
ENDBRANCH  11  14
ENDBRANCH   4   8
BRANCH   3  23
ATOM     20  N   UNL     1     -16.208   5.980  28.876  0.00  0.00    +0.000 N 
ATOM     21  N   UNL     1     -15.940   5.550  26.557  0.00  0.00    +0.000 NA
ATOM     22  N   UNL     1     -14.087   6.051  27.931  0.00  0.00    +0.000 NA
ATOM     23  C   UNL     1     -15.116   5.435  25.500  0.00  0.00    +0.000 A 
ATOM     24  C   UNL     1     -15.396   5.856  27.748  0.00  0.00    +0.000 A 
ATOM     25  C   UNL     1     -13.755   5.622  25.588  0.00  0.00    +0.000 A 
ATOM     26  C   UNL     1     -13.301   5.929  26.845  0.00  0.00    +0.000 A 
ATOM     27  H   UNL     1     -15.672   6.437  29.606  0.00  0.00    +0.000 HD
BRANCH  20  28
ATOM     28  C   UNL     1     -17.586   6.401  28.655  0.00  0.00    +0.000 C 
BRANCH  28  29
ATOM     29  C   UNL     1     -18.899   6.812  28.312  0.00  0.00    +0.000 C 
ATOM     30  C   UNL     1     -19.301   8.217  28.646  0.00  0.00    +0.000 C 
ATOM     31  O   UNL     1     -18.664   4.100  27.387  0.00  0.00    +0.000 OA
ATOM     32  N   UNL     1     -19.751   6.117  27.523  0.00  0.00    +0.000 N 
ATOM     33  C   UNL     1     -19.592   4.835  27.067  0.00  0.00    +0.000 C 
ATOM     34  H   UNL     1     -20.572   6.633  27.218  0.00  0.00    +0.000 HD
BRANCH  33  35
ATOM     35  O   UNL     1     -20.628   4.511  26.221  0.00  0.00    +0.000 OA
ATOM     36  C   UNL     1     -21.937   4.544  26.730  0.00  0.00    +0.000 C 
ENDBRANCH  33  35
ENDBRANCH  28  29
ENDBRANCH  20  28
ENDBRANCH   3  23
BRANCH   1  37
ATOM     37  C   UNL     1     -18.640   5.082  22.073  0.00  0.00    +0.000 C 
ATOM     38  C   UNL     1     -19.922   4.859  22.857  0.00  0.00    +0.000 C 
ATOM     39  C   UNL     1     -18.817   5.480  20.621  0.00  0.00    +0.000 C 
ENDBRANCH   1  37
TORSDOF 8
ENDMDL
MODEL 8
REMARK VINA RESULT:      -4.6      2.570      4.709
REMARK  Name = 50922675_Encorafenib.pdbqt.pdb
REMARK  8 active torsions:
REMARK  status: ('A' for Active; 'I' for Inactive)
REMARK    1  A    between atoms: N_1  and  C_37
REMARK    2  A    between atoms: C_3  and  C_23
REMARK    3  A    between atoms: C_4  and  C_8
REMARK    4  A    between atoms: C_11  and  N_14
REMARK    5  A    between atoms: N_14  and  S_16
REMARK    6  A    between atoms: N_20  and  C_28
REMARK    7  A    between atoms: C_28  and  C_29
REMARK    8  A    between atoms: C_33  and  O_35
REMARK                            x       y       z     vdW  Elec       q    Type
REMARK                         _______ _______ _______ _____ _____    ______ ____
ROOT
ATOM      1  N   UNL     1     -15.146   8.595  -1.401  0.00  0.00    +0.000 N 
ATOM      2  N   UNL     1     -15.162   7.265  -1.031  0.00  0.00    +0.000 NA
ATOM      3  C   UNL     1     -15.124   7.390  -3.310  0.00  0.00    +0.000 A 
ATOM      4  C   UNL     1     -15.121   6.547  -2.165  0.00  0.00    +0.000 A 
ATOM      5  C   UNL     1     -15.141   8.661  -2.788  0.00  0.00    +0.000 A 
ENDROOT
BRANCH   4   8
ATOM      6 CL   UNL     1     -17.876   2.203  -1.918  0.00  0.00    +0.000 Cl
ATOM      7  F   UNL     1     -12.746   4.964  -1.997  0.00  0.00    +0.000 F 
ATOM      8  C   UNL     1     -15.128   5.092  -2.079  0.00  0.00    +0.000 A 
ATOM      9  C   UNL     1     -13.943   4.354  -1.977  0.00  0.00    +0.000 A 
ATOM     10  C   UNL     1     -16.347   4.413  -2.038  0.00  0.00    +0.000 A 
ATOM     11  C   UNL     1     -13.970   2.960  -1.861  0.00  0.00    +0.000 A 
ATOM     12  C   UNL     1     -16.375   3.028  -1.918  0.00  0.00    +0.000 A 
ATOM     13  C   UNL     1     -15.196   2.300  -1.813  0.00  0.00    +0.000 A 
BRANCH  11  14
ATOM     14  N   UNL     1     -12.747   2.236  -1.656  0.00  0.00    +0.000 N 
ATOM     15  H   UNL     1     -12.169   2.627  -0.906  0.00  0.00    +0.000 HD
BRANCH  14  16
ATOM     16  S   UNL     1     -11.759   1.974  -2.983  0.00  0.00    +0.000 S 
ATOM     17  O   UNL     1     -12.520   1.573  -4.135  0.00  0.00    +0.000 OA
ATOM     18  O   UNL     1     -10.562   2.785  -3.000  0.00  0.00    +0.000 OA
ATOM     19  C   UNL     1     -10.974   0.420  -2.677  0.00  0.00    +0.000 C 
ENDBRANCH  14  16
ENDBRANCH  11  14
ENDBRANCH   4   8
BRANCH   3  23
ATOM     20  N   UNL     1     -17.206   5.540  -7.162  0.00  0.00    +0.000 N 
ATOM     21  N   UNL     1     -16.139   6.472  -5.257  0.00  0.00    +0.000 NA
ATOM     22  N   UNL     1     -15.131   6.561  -7.390  0.00  0.00    +0.000 NA
ATOM     23  C   UNL     1     -15.083   7.124  -4.739  0.00  0.00    +0.000 A 
ATOM     24  C   UNL     1     -16.130   6.209  -6.576  0.00  0.00    +0.000 A 
ATOM     25  C   UNL     1     -14.004   7.523  -5.496  0.00  0.00    +0.000 A 
ATOM     26  C   UNL     1     -14.094   7.208  -6.828  0.00  0.00    +0.000 A 
ATOM     27  H   UNL     1     -16.922   5.227  -8.084  0.00  0.00    +0.000 HD
BRANCH  20  28
ATOM     28  C   UNL     1     -17.954   4.621  -6.313  0.00  0.00    +0.000 C 
BRANCH  28  29
ATOM     29  C   UNL     1     -18.646   3.801  -5.386  0.00  0.00    +0.000 C 
ATOM     30  C   UNL     1     -18.427   2.320  -5.464  0.00  0.00    +0.000 C 
ATOM     31  O   UNL     1     -19.376   6.505  -4.733  0.00  0.00    +0.000 OA
ATOM     32  N   UNL     1     -19.321   4.250  -4.302  0.00  0.00    +0.000 N 
ATOM     33  C   UNL     1     -19.621   5.553  -3.999  0.00  0.00    +0.000 C 
ATOM     34  H   UNL     1     -19.594   3.531  -3.638  0.00  0.00    +0.000 HD
BRANCH  33  35
ATOM     35  O   UNL     1     -20.241   5.613  -2.773  0.00  0.00    +0.000 OA
ATOM     36  C   UNL     1     -20.799   4.434  -2.251  0.00  0.00    +0.000 C 
ENDBRANCH  33  35
ENDBRANCH  28  29
ENDBRANCH  20  28
ENDBRANCH   3  23
BRANCH   1  37
ATOM     37  C   UNL     1     -15.145   9.735  -0.559  0.00  0.00    +0.000 C 
ATOM     38  C   UNL     1     -14.934  11.137  -1.103  0.00  0.00    +0.000 C 
ATOM     39  C   UNL     1     -15.371   9.635   0.936  0.00  0.00    +0.000 C 
ENDBRANCH   1  37
TORSDOF 8
ENDMDL
MODEL 9
REMARK VINA RESULT:      -4.6     24.646     27.250
REMARK  Name = 50922675_Encorafenib.pdbqt.pdb
REMARK  8 active torsions:
REMARK  status: ('A' for Active; 'I' for Inactive)
REMARK    1  A    between atoms: N_1  and  C_37
REMARK    2  A    between atoms: C_3  and  C_23
REMARK    3  A    between atoms: C_4  and  C_8
REMARK    4  A    between atoms: C_11  and  N_14
REMARK    5  A    between atoms: N_14  and  S_16
REMARK    6  A    between atoms: N_20  and  C_28
REMARK    7  A    between atoms: C_28  and  C_29
REMARK    8  A    between atoms: C_33  and  O_35
REMARK                            x       y       z     vdW  Elec       q    Type
REMARK                         _______ _______ _______ _____ _____    ______ ____
ROOT
ATOM      1  N   UNL     1     -17.583   4.936  22.375  0.00  0.00    +0.000 N 
ATOM      2  N   UNL     1     -16.437   4.549  21.710  0.00  0.00    +0.000 NA
ATOM      3  C   UNL     1     -15.875   5.167  23.834  0.00  0.00    +0.000 A 
ATOM      4  C   UNL     1     -15.425   4.659  22.584  0.00  0.00    +0.000 A 
ATOM      5  C   UNL     1     -17.229   5.327  23.660  0.00  0.00    +0.000 A 
ENDROOT
BRANCH   4   8
ATOM      6 CL   UNL     1     -11.386   5.767  19.587  0.00  0.00    +0.000 Cl
ATOM      7  F   UNL     1     -13.992   2.380  23.547  0.00  0.00    +0.000 F 
ATOM      8  C   UNL     1     -14.077   4.314  22.150  0.00  0.00    +0.000 A 
ATOM      9  C   UNL     1     -13.417   3.176  22.630  0.00  0.00    +0.000 A 
ATOM     10  C   UNL     1     -13.444   5.101  21.187  0.00  0.00    +0.000 A 
ATOM     11  C   UNL     1     -12.137   2.842  22.177  0.00  0.00    +0.000 A 
ATOM     12  C   UNL     1     -12.173   4.766  20.733  0.00  0.00    +0.000 A 
ATOM     13  C   UNL     1     -11.523   3.634  21.209  0.00  0.00    +0.000 A 
BRANCH  11  14
ATOM     14  N   UNL     1     -11.524   1.617  22.608  0.00  0.00    +0.000 N 
ATOM     15  H   UNL     1     -12.191   0.846  22.707  0.00  0.00    +0.000 HD
BRANCH  14  16
ATOM     16  S   UNL     1     -10.577   1.657  23.990  0.00  0.00    +0.000 S 
ATOM     17  O   UNL     1      -9.484   0.727  23.906  0.00  0.00    +0.000 OA
ATOM     18  O   UNL     1     -10.545   2.944  24.649  0.00  0.00    +0.000 OA
ATOM     19  C   UNL     1     -11.513   0.797  25.218  0.00  0.00    +0.000 C 
ENDBRANCH  14  16
ENDBRANCH  11  14
ENDBRANCH   4   8
BRANCH   3  23
ATOM     20  N   UNL     1     -16.139   5.817  28.535  0.00  0.00    +0.000 N 
ATOM     21  N   UNL     1     -15.974   5.500  26.189  0.00  0.00    +0.000 NA
ATOM     22  N   UNL     1     -14.071   5.999  27.493  0.00  0.00    +0.000 NA
ATOM     23  C   UNL     1     -15.201   5.460  25.089  0.00  0.00    +0.000 A 
ATOM     24  C   UNL     1     -15.381   5.770  27.365  0.00  0.00    +0.000 A 
ATOM     25  C   UNL     1     -13.844   5.686  25.119  0.00  0.00    +0.000 A 
ATOM     26  C   UNL     1     -13.337   5.952  26.366  0.00  0.00    +0.000 A 
ATOM     27  H   UNL     1     -15.582   6.258  29.259  0.00  0.00    +0.000 HD
BRANCH  20  28
ATOM     28  C   UNL     1     -17.539   6.202  28.400  0.00  0.00    +0.000 C 
BRANCH  28  29
ATOM     29  C   UNL     1     -18.880   6.583  28.141  0.00  0.00    +0.000 C 
ATOM     30  C   UNL     1     -19.290   7.982  28.486  0.00  0.00    +0.000 C 
ATOM     31  O   UNL     1     -18.648   3.865  27.228  0.00  0.00    +0.000 OA
ATOM     32  N   UNL     1     -19.766   5.862  27.415  0.00  0.00    +0.000 N 
ATOM     33  C   UNL     1     -19.610   4.578  26.962  0.00  0.00    +0.000 C 
ATOM     34  H   UNL     1     -20.616   6.357  27.161  0.00  0.00    +0.000 HD
BRANCH  33  35
ATOM     35  O   UNL     1     -20.692   4.223  26.189  0.00  0.00    +0.000 OA
ATOM     36  C   UNL     1     -21.924   4.848  26.444  0.00  0.00    +0.000 C 
ENDBRANCH  33  35
ENDBRANCH  28  29
ENDBRANCH  20  28
ENDBRANCH   3  23
BRANCH   1  37
ATOM     37  C   UNL     1     -18.912   4.962  21.883  0.00  0.00    +0.000 C 
ATOM     38  C   UNL     1     -20.108   4.690  22.780  0.00  0.00    +0.000 C 
ATOM     39  C   UNL     1     -19.231   5.279  20.437  0.00  0.00    +0.000 C 
ENDBRANCH   1  37
TORSDOF 8
ENDMDL
