MODEL 1
REMARK VINA RESULT:      -6.4      0.000      0.000
REMARK  Name = 5109870_Ethoxyphenyl.pdbqt.pdb
REMARK  6 active torsions:
REMARK  status: ('A' for Active; 'I' for Inactive)
REMARK    1  A    between atoms: N_2  and  C_22
REMARK    2  A    between atoms: C_3  and  O_11
REMARK    3  A    between atoms: C_3  and  C_13
REMARK    4  A    between atoms: C_16  and  N_19
REMARK    5  A    between atoms: C_25  and  O_28
REMARK    6  A    between atoms: O_28  and  C_29
REMARK                            x       y       z     vdW  Elec       q    Type
REMARK                         _______ _______ _______ _____ _____    ______ ____
ROOT
ATOM      1  N   UNL     1     -16.863   6.843  -0.741  0.00  0.00    +0.000 N 
ATOM      2  N   UNL     1     -15.905   7.633  -2.795  0.00  0.00    +0.000 N 
ATOM      3  C   UNL     1     -17.894   6.557  -1.767  0.00  0.00    +0.000 C 
ATOM      4  C   UNL     1     -15.791   7.640  -1.419  0.00  0.00    +0.000 C 
ATOM      5  C   UNL     1     -17.162   6.955  -2.972  0.00  0.00    +0.000 C 
ATOM      6  C   UNL     1     -17.289   7.443   0.522  0.00  0.00    +0.000 C 
ATOM      7  C   UNL     1     -15.076   8.649  -0.708  0.00  0.00    +0.000 C 
ATOM      8  C   UNL     1     -17.082   8.458   1.660  0.00  0.00    +0.000 C 
ATOM      9  C   UNL     1     -14.990   9.540   0.541  0.00  0.00    +0.000 C 
ATOM     10  C   UNL     1     -15.962   9.491   1.717  0.00  0.00    +0.000 C 
ENDROOT
BRANCH   3  11
ATOM     11  C   UNL     1     -18.324   5.109  -1.736  0.00  0.00    +0.000 A 
ATOM     12  C   UNL     1     -19.476   4.673  -2.405  0.00  0.00    +0.000 A 
ATOM     13  C   UNL     1     -19.841   3.329  -2.407  0.00  0.00    +0.000 A 
ATOM     14  C   UNL     1     -19.035   2.411  -1.741  0.00  0.00    +0.000 A 
ATOM     15  C   UNL     1     -17.876   2.807  -1.079  0.00  0.00    +0.000 A 
ATOM     16  C   UNL     1     -17.525   4.154  -1.088  0.00  0.00    +0.000 A 
BRANCH  14  17
ATOM     17  N   UNL     1     -19.409   1.010  -1.737  0.00  0.00    +0.000 N 
ATOM     18  O   UNL     1     -20.537   0.717  -2.158  0.00  0.00    +0.000 OA
ATOM     19  O   UNL     1     -18.580   0.193  -1.313  0.00  0.00    +0.000 OA
ENDBRANCH  14  17
ENDBRANCH   3  11
BRANCH   2  20
ATOM     20  C   UNL     1     -15.286   8.399  -3.795  0.00  0.00    +0.000 A 
ATOM     21  C   UNL     1     -15.208   9.793  -3.720  0.00  0.00    +0.000 A 
ATOM     22  C   UNL     1     -14.570  10.544  -4.707  0.00  0.00    +0.000 A 
ATOM     23  C   UNL     1     -13.982   9.909  -5.798  0.00  0.00    +0.000 A 
ATOM     24  C   UNL     1     -14.037   8.522  -5.889  0.00  0.00    +0.000 A 
ATOM     25  C   UNL     1     -14.677   7.780  -4.896  0.00  0.00    +0.000 A 
BRANCH  23  26
ATOM     26  O   UNL     1     -13.332  10.552  -6.820  0.00  0.00    +0.000 OA
BRANCH  26  27
ATOM     27  C   UNL     1     -12.472  11.491  -6.433  0.00  0.00    +0.000 C 
ATOM     28  C   UNL     1     -11.474  12.574  -6.003  0.00  0.00    +0.000 C 
ENDBRANCH  26  27
ENDBRANCH  23  26
ENDBRANCH   2  20
BRANCH   3  29
ATOM     29  O   UNL     1     -19.038   7.394  -1.658  0.00  0.00    +0.000 OA
ATOM     30  H   UNL     1     -19.476   7.340  -2.524  0.00  0.00    +0.000 HD
ENDBRANCH   3  29
TORSDOF 6
ENDMDL
MODEL 2
REMARK VINA RESULT:      -6.1      3.803      8.131
REMARK  Name = 5109870_Ethoxyphenyl.pdbqt.pdb
REMARK  6 active torsions:
REMARK  status: ('A' for Active; 'I' for Inactive)
REMARK    1  A    between atoms: N_2  and  C_22
REMARK    2  A    between atoms: C_3  and  O_11
REMARK    3  A    between atoms: C_3  and  C_13
REMARK    4  A    between atoms: C_16  and  N_19
REMARK    5  A    between atoms: C_25  and  O_28
REMARK    6  A    between atoms: O_28  and  C_29
REMARK                            x       y       z     vdW  Elec       q    Type
REMARK                         _______ _______ _______ _____ _____    ______ ____
ROOT
ATOM      1  N   UNL     1     -16.712   7.776  -2.497  0.00  0.00    +0.000 N 
ATOM      2  N   UNL     1     -15.064   6.034  -2.398  0.00  0.00    +0.000 N 
ATOM      3  C   UNL     1     -15.792   8.194  -1.412  0.00  0.00    +0.000 C 
ATOM      4  C   UNL     1     -16.297   6.396  -2.904  0.00  0.00    +0.000 C 
ATOM      5  C   UNL     1     -14.779   7.143  -1.526  0.00  0.00    +0.000 C 
ATOM      6  C   UNL     1     -18.152   7.879  -2.264  0.00  0.00    +0.000 C 
ATOM      7  C   UNL     1     -17.267   5.442  -3.332  0.00  0.00    +0.000 C 
ATOM      8  C   UNL     1     -19.571   7.298  -2.377  0.00  0.00    +0.000 C 
ATOM      9  C   UNL     1     -18.751   5.054  -3.423  0.00  0.00    +0.000 C 
ATOM     10  C   UNL     1     -19.911   5.927  -2.952  0.00  0.00    +0.000 C 
ENDROOT
BRANCH   3  11
ATOM     11  C   UNL     1     -15.278   9.598  -1.628  0.00  0.00    +0.000 A 
ATOM     12  C   UNL     1     -14.996  10.084  -2.913  0.00  0.00    +0.000 A 
ATOM     13  C   UNL     1     -14.564  11.394  -3.108  0.00  0.00    +0.000 A 
ATOM     14  C   UNL     1     -14.425  12.229  -2.003  0.00  0.00    +0.000 A 
ATOM     15  C   UNL     1     -14.712  11.784  -0.716  0.00  0.00    +0.000 A 
ATOM     16  C   UNL     1     -15.143  10.472  -0.539  0.00  0.00    +0.000 A 
BRANCH  14  17
ATOM     17  N   UNL     1     -13.974  13.592  -2.198  0.00  0.00    +0.000 N 
ATOM     18  O   UNL     1     -13.680  14.249  -1.189  0.00  0.00    +0.000 OA
ATOM     19  O   UNL     1     -13.910  14.017  -3.360  0.00  0.00    +0.000 OA
ENDBRANCH  14  17
ENDBRANCH   3  11
BRANCH   2  20
ATOM     20  C   UNL     1     -14.401   4.799  -2.329  0.00  0.00    +0.000 A 
ATOM     21  C   UNL     1     -13.100   4.628  -2.814  0.00  0.00    +0.000 A 
ATOM     22  C   UNL     1     -12.441   3.402  -2.721  0.00  0.00    +0.000 A 
ATOM     23  C   UNL     1     -13.072   2.312  -2.126  0.00  0.00    +0.000 A 
ATOM     24  C   UNL     1     -14.362   2.461  -1.626  0.00  0.00    +0.000 A 
ATOM     25  C   UNL     1     -15.012   3.692  -1.725  0.00  0.00    +0.000 A 
BRANCH  23  26
ATOM     26  O   UNL     1     -12.513   1.068  -1.983  0.00  0.00    +0.000 OA
BRANCH  26  27
ATOM     27  C   UNL     1     -11.199   1.064  -1.775  0.00  0.00    +0.000 C 
ATOM     28  C   UNL     1      -9.682   1.052  -1.550  0.00  0.00    +0.000 C 
ENDBRANCH  26  27
ENDBRANCH  23  26
ENDBRANCH   2  20
BRANCH   3  29
ATOM     29  O   UNL     1     -16.374   8.096  -0.118  0.00  0.00    +0.000 OA
ATOM     30  H   UNL     1     -16.630   9.004   0.114  0.00  0.00    +0.000 HD
ENDBRANCH   3  29
TORSDOF 6
ENDMDL
MODEL 3
REMARK VINA RESULT:      -5.8     14.023     17.819
REMARK  Name = 5109870_Ethoxyphenyl.pdbqt.pdb
REMARK  6 active torsions:
REMARK  status: ('A' for Active; 'I' for Inactive)
REMARK    1  A    between atoms: N_2  and  C_22
REMARK    2  A    between atoms: C_3  and  O_11
REMARK    3  A    between atoms: C_3  and  C_13
REMARK    4  A    between atoms: C_16  and  N_19
REMARK    5  A    between atoms: C_25  and  O_28
REMARK    6  A    between atoms: O_28  and  C_29
REMARK                            x       y       z     vdW  Elec       q    Type
REMARK                         _______ _______ _______ _____ _____    ______ ____
ROOT
ATOM      1  N   UNL     1     -22.978  16.525   8.080  0.00  0.00    +0.000 N 
ATOM      2  N   UNL     1     -23.754  17.019  10.296  0.00  0.00    +0.000 N 
ATOM      3  C   UNL     1     -22.437  15.428   8.917  0.00  0.00    +0.000 C 
ATOM      4  C   UNL     1     -23.600  17.515   9.016  0.00  0.00    +0.000 C 
ATOM      5  C   UNL     1     -23.068  15.758  10.197  0.00  0.00    +0.000 C 
ATOM      6  C   UNL     1     -22.088  17.160   7.109  0.00  0.00    +0.000 C 
ATOM      7  C   UNL     1     -23.565  18.911   8.727  0.00  0.00    +0.000 C 
ATOM      8  C   UNL     1     -21.545  18.421   6.415  0.00  0.00    +0.000 C 
ATOM      9  C   UNL     1     -22.964  20.045   7.882  0.00  0.00    +0.000 C 
ATOM     10  C   UNL     1     -21.958  19.851   6.751  0.00  0.00    +0.000 C 
ENDROOT
BRANCH   3  11
ATOM     11  C   UNL     1     -22.801  14.072   8.361  0.00  0.00    +0.000 A 
ATOM     12  C   UNL     1     -23.650  13.939   7.253  0.00  0.00    +0.000 A 
ATOM     13  C   UNL     1     -23.947  12.688   6.719  0.00  0.00    +0.000 A 
ATOM     14  C   UNL     1     -23.375  11.557   7.296  0.00  0.00    +0.000 A 
ATOM     15  C   UNL     1     -22.516  11.654   8.386  0.00  0.00    +0.000 A 
ATOM     16  C   UNL     1     -22.230  12.912   8.907  0.00  0.00    +0.000 A 
BRANCH  14  17
ATOM     17  N   UNL     1     -23.681  10.251   6.747  0.00  0.00    +0.000 N 
ATOM     18  O   UNL     1     -23.162   9.265   7.290  0.00  0.00    +0.000 OA
ATOM     19  O   UNL     1     -24.442  10.200   5.771  0.00  0.00    +0.000 OA
ENDBRANCH  14  17
ENDBRANCH   3  11
BRANCH   2  20
ATOM     20  C   UNL     1     -24.068  17.641  11.515  0.00  0.00    +0.000 A 
ATOM     21  C   UNL     1     -23.201  18.553  12.127  0.00  0.00    +0.000 A 
ATOM     22  C   UNL     1     -23.532  19.183  13.326  0.00  0.00    +0.000 A 
ATOM     23  C   UNL     1     -24.754  18.919  13.941  0.00  0.00    +0.000 A 
ATOM     24  C   UNL     1     -25.637  18.025  13.345  0.00  0.00    +0.000 A 
ATOM     25  C   UNL     1     -25.296  17.400  12.146  0.00  0.00    +0.000 A 
BRANCH  23  26
ATOM     26  O   UNL     1     -25.175  19.485  15.117  0.00  0.00    +0.000 OA
BRANCH  26  27
ATOM     27  C   UNL     1     -24.198  19.892  15.924  0.00  0.00    +0.000 C 
ATOM     28  C   UNL     1     -23.061  20.351  16.846  0.00  0.00    +0.000 C 
ENDBRANCH  26  27
ENDBRANCH  23  26
ENDBRANCH   2  20
BRANCH   3  29
ATOM     29  O   UNL     1     -21.028  15.505   9.096  0.00  0.00    +0.000 OA
ATOM     30  H   UNL     1     -20.890  15.432  10.055  0.00  0.00    +0.000 HD
ENDBRANCH   3  29
TORSDOF 6
ENDMDL
MODEL 4
REMARK VINA RESULT:      -5.7      3.482      4.376
REMARK  Name = 5109870_Ethoxyphenyl.pdbqt.pdb
REMARK  6 active torsions:
REMARK  status: ('A' for Active; 'I' for Inactive)
REMARK    1  A    between atoms: N_2  and  C_22
REMARK    2  A    between atoms: C_3  and  O_11
REMARK    3  A    between atoms: C_3  and  C_13
REMARK    4  A    between atoms: C_16  and  N_19
REMARK    5  A    between atoms: C_25  and  O_28
REMARK    6  A    between atoms: O_28  and  C_29
REMARK                            x       y       z     vdW  Elec       q    Type
REMARK                         _______ _______ _______ _____ _____    ______ ____
ROOT
ATOM      1  N   UNL     1     -17.336   9.049  -1.765  0.00  0.00    +0.000 N 
ATOM      2  N   UNL     1     -15.805  10.518  -2.887  0.00  0.00    +0.000 N 
ATOM      3  C   UNL     1     -18.176   9.794  -2.732  0.00  0.00    +0.000 C 
ATOM      4  C   UNL     1     -15.974   9.671  -1.809  0.00  0.00    +0.000 C 
ATOM      5  C   UNL     1     -17.137  10.551  -3.433  0.00  0.00    +0.000 C 
ATOM      6  C   UNL     1     -17.830   8.885  -0.399  0.00  0.00    +0.000 C 
ATOM      7  C   UNL     1     -15.172   9.748  -0.633  0.00  0.00    +0.000 C 
ATOM      8  C   UNL     1     -17.590   8.885   1.121  0.00  0.00    +0.000 C 
ATOM      9  C   UNL     1     -15.102   9.632   0.898  0.00  0.00    +0.000 C 
ATOM     10  C   UNL     1     -16.267   9.229   1.797  0.00  0.00    +0.000 C 
ENDROOT
BRANCH   3  11
ATOM     11  C   UNL     1     -18.979   8.860  -3.607  0.00  0.00    +0.000 A 
ATOM     12  C   UNL     1     -19.965   9.342  -4.480  0.00  0.00    +0.000 A 
ATOM     13  C   UNL     1     -20.671   8.479  -5.315  0.00  0.00    +0.000 A 
ATOM     14  C   UNL     1     -20.375   7.119  -5.282  0.00  0.00    +0.000 A 
ATOM     15  C   UNL     1     -19.393   6.609  -4.439  0.00  0.00    +0.000 A 
ATOM     16  C   UNL     1     -18.697   7.486  -3.612  0.00  0.00    +0.000 A 
BRANCH  14  17
ATOM     17  N   UNL     1     -21.107   6.214  -6.147  0.00  0.00    +0.000 N 
ATOM     18  O   UNL     1     -20.896   5.000  -6.017  0.00  0.00    +0.000 OA
ATOM     19  O   UNL     1     -21.898   6.710  -6.961  0.00  0.00    +0.000 OA
ENDBRANCH  14  17
ENDBRANCH   3  11
BRANCH   2  20
ATOM     20  C   UNL     1     -14.813  11.461  -3.196  0.00  0.00    +0.000 A 
ATOM     21  C   UNL     1     -14.237  11.542  -4.468  0.00  0.00    +0.000 A 
ATOM     22  C   UNL     1     -13.267  12.498  -4.771  0.00  0.00    +0.000 A 
ATOM     23  C   UNL     1     -12.855  13.409  -3.801  0.00  0.00    +0.000 A 
ATOM     24  C   UNL     1     -13.422  13.355  -2.532  0.00  0.00    +0.000 A 
ATOM     25  C   UNL     1     -14.391  12.395  -2.239  0.00  0.00    +0.000 A 
BRANCH  23  26
ATOM     26  O   UNL     1     -11.913  14.385  -3.997  0.00  0.00    +0.000 OA
BRANCH  26  27
ATOM     27  C   UNL     1     -12.342  15.452  -4.668  0.00  0.00    +0.000 C 
ATOM     28  C   UNL     1     -12.831  16.690  -5.428  0.00  0.00    +0.000 C 
ENDBRANCH  26  27
ENDBRANCH  23  26
ENDBRANCH   2  20
BRANCH   3  29
ATOM     29  O   UNL     1     -19.049  10.729  -2.110  0.00  0.00    +0.000 OA
ATOM     30  H   UNL     1     -18.541  11.093  -1.366  0.00  0.00    +0.000 HD
ENDBRANCH   3  29
TORSDOF 6
ENDMDL
MODEL 5
REMARK VINA RESULT:      -5.7     14.435     17.790
REMARK  Name = 5109870_Ethoxyphenyl.pdbqt.pdb
REMARK  6 active torsions:
REMARK  status: ('A' for Active; 'I' for Inactive)
REMARK    1  A    between atoms: N_2  and  C_22
REMARK    2  A    between atoms: C_3  and  O_11
REMARK    3  A    between atoms: C_3  and  C_13
REMARK    4  A    between atoms: C_16  and  N_19
REMARK    5  A    between atoms: C_25  and  O_28
REMARK    6  A    between atoms: O_28  and  C_29
REMARK                            x       y       z     vdW  Elec       q    Type
REMARK                         _______ _______ _______ _____ _____    ______ ____
ROOT
ATOM      1  N   UNL     1     -24.833  16.084  10.481  0.00  0.00    +0.000 N 
ATOM      2  N   UNL     1     -22.944  17.457  11.034  0.00  0.00    +0.000 N 
ATOM      3  C   UNL     1     -23.945  15.991   9.297  0.00  0.00    +0.000 C 
ATOM      4  C   UNL     1     -24.235  17.115  11.387  0.00  0.00    +0.000 C 
ATOM      5  C   UNL     1     -22.793  16.748   9.791  0.00  0.00    +0.000 C 
ATOM      6  C   UNL     1     -26.262  16.297  10.260  0.00  0.00    +0.000 C 
ATOM      7  C   UNL     1     -25.069  17.959  12.177  0.00  0.00    +0.000 C 
ATOM      8  C   UNL     1     -27.584  16.994  10.625  0.00  0.00    +0.000 C 
ATOM      9  C   UNL     1     -26.483  18.499  12.448  0.00  0.00    +0.000 C 
ATOM     10  C   UNL     1     -27.740  18.065  11.700  0.00  0.00    +0.000 C 
ENDROOT
BRANCH   3  11
ATOM     11  C   UNL     1     -23.651  14.554   8.933  0.00  0.00    +0.000 A 
ATOM     12  C   UNL     1     -24.423  13.866   7.986  0.00  0.00    +0.000 A 
ATOM     13  C   UNL     1     -24.119  12.556   7.624  0.00  0.00    +0.000 A 
ATOM     14  C   UNL     1     -23.021  11.933   8.211  0.00  0.00    +0.000 A 
ATOM     15  C   UNL     1     -22.225  12.591   9.143  0.00  0.00    +0.000 A 
ATOM     16  C   UNL     1     -22.543  13.900   9.493  0.00  0.00    +0.000 A 
BRANCH  14  17
ATOM     17  N   UNL     1     -22.700  10.569   7.841  0.00  0.00    +0.000 N 
ATOM     18  O   UNL     1     -21.715  10.045   8.381  0.00  0.00    +0.000 OA
ATOM     19  O   UNL     1     -23.429  10.010   7.010  0.00  0.00    +0.000 OA
ENDBRANCH  14  17
ENDBRANCH   3  11
BRANCH   2  20
ATOM     20  C   UNL     1     -22.104  18.505  11.440  0.00  0.00    +0.000 A 
ATOM     21  C   UNL     1     -22.225  19.798  10.919  0.00  0.00    +0.000 A 
ATOM     22  C   UNL     1     -21.400  20.838  11.346  0.00  0.00    +0.000 A 
ATOM     23  C   UNL     1     -20.432  20.608  12.320  0.00  0.00    +0.000 A 
ATOM     24  C   UNL     1     -20.299  19.333  12.861  0.00  0.00    +0.000 A 
ATOM     25  C   UNL     1     -21.130  18.300  12.427  0.00  0.00    +0.000 A 
BRANCH  23  26
ATOM     26  O   UNL     1     -19.573  21.560  12.808  0.00  0.00    +0.000 OA
BRANCH  26  27
ATOM     27  C   UNL     1     -18.786  22.125  11.896  0.00  0.00    +0.000 C 
ATOM     28  C   UNL     1     -17.866  22.775  10.855  0.00  0.00    +0.000 C 
ENDBRANCH  26  27
ENDBRANCH  23  26
ENDBRANCH   2  20
BRANCH   3  29
ATOM     29  O   UNL     1     -24.457  16.673   8.159  0.00  0.00    +0.000 OA
ATOM     30  H   UNL     1     -24.909  17.455   8.515  0.00  0.00    +0.000 HD
ENDBRANCH   3  29
TORSDOF 6
ENDMDL
MODEL 6
REMARK VINA RESULT:      -5.5     16.377     19.638
REMARK  Name = 5109870_Ethoxyphenyl.pdbqt.pdb
REMARK  6 active torsions:
REMARK  status: ('A' for Active; 'I' for Inactive)
REMARK    1  A    between atoms: N_2  and  C_22
REMARK    2  A    between atoms: C_3  and  O_11
REMARK    3  A    between atoms: C_3  and  C_13
REMARK    4  A    between atoms: C_16  and  N_19
REMARK    5  A    between atoms: C_25  and  O_28
REMARK    6  A    between atoms: O_28  and  C_29
REMARK                            x       y       z     vdW  Elec       q    Type
REMARK                         _______ _______ _______ _____ _____    ______ ____
ROOT
ATOM      1  N   UNL     1      -2.142  17.871   7.740  0.00  0.00    +0.000 N 
ATOM      2  N   UNL     1      -2.253  16.375   5.867  0.00  0.00    +0.000 N 
ATOM      3  C   UNL     1      -3.565  17.462   7.674  0.00  0.00    +0.000 C 
ATOM      4  C   UNL     1      -1.476  17.312   6.521  0.00  0.00    +0.000 C 
ATOM      5  C   UNL     1      -3.489  16.472   6.598  0.00  0.00    +0.000 C 
ATOM      6  C   UNL     1      -1.836  19.287   7.942  0.00  0.00    +0.000 C 
ATOM      7  C   UNL     1      -0.418  18.021   5.881  0.00  0.00    +0.000 C 
ATOM      8  C   UNL     1      -1.007  20.539   7.607  0.00  0.00    +0.000 C 
ATOM      9  C   UNL     1       0.351  19.343   5.729  0.00  0.00    +0.000 C 
ATOM     10  C   UNL     1       0.084  20.606   6.543  0.00  0.00    +0.000 C 
ENDROOT
BRANCH   3  11
ATOM     11  C   UNL     1      -4.051  16.922   8.999  0.00  0.00    +0.000 A 
ATOM     12  C   UNL     1      -5.346  17.183   9.466  0.00  0.00    +0.000 A 
ATOM     13  C   UNL     1      -5.801  16.646  10.668  0.00  0.00    +0.000 A 
ATOM     14  C   UNL     1      -4.950  15.826  11.403  0.00  0.00    +0.000 A 
ATOM     15  C   UNL     1      -3.663  15.533  10.962  0.00  0.00    +0.000 A 
ATOM     16  C   UNL     1      -3.225  16.078   9.759  0.00  0.00    +0.000 A 
BRANCH  14  17
ATOM     17  N   UNL     1      -5.415  15.265  12.656  0.00  0.00    +0.000 N 
ATOM     18  O   UNL     1      -5.746  16.054  13.551  0.00  0.00    +0.000 OA
ATOM     19  O   UNL     1      -5.454  14.030  12.754  0.00  0.00    +0.000 OA
ENDBRANCH  14  17
ENDBRANCH   3  11
BRANCH   2  20
ATOM     20  C   UNL     1      -2.140  15.777   4.602  0.00  0.00    +0.000 A 
ATOM     21  C   UNL     1      -1.033  15.001   4.245  0.00  0.00    +0.000 A 
ATOM     22  C   UNL     1      -0.942  14.392   2.993  0.00  0.00    +0.000 A 
ATOM     23  C   UNL     1      -1.970  14.541   2.066  0.00  0.00    +0.000 A 
ATOM     24  C   UNL     1      -3.086  15.300   2.403  0.00  0.00    +0.000 A 
ATOM     25  C   UNL     1      -3.168  15.905   3.657  0.00  0.00    +0.000 A 
BRANCH  23  26
ATOM     26  O   UNL     1      -1.978  13.985   0.812  0.00  0.00    +0.000 OA
BRANCH  26  27
ATOM     27  C   UNL     1      -3.188  13.810   0.285  0.00  0.00    +0.000 C 
ATOM     28  C   UNL     1      -4.586  13.603  -0.308  0.00  0.00    +0.000 C 
ENDBRANCH  26  27
ENDBRANCH  23  26
ENDBRANCH   2  20
BRANCH   3  29
ATOM     29  O   UNL     1      -4.428  18.507   7.243  0.00  0.00    +0.000 OA
ATOM     30  H   UNL     1      -5.277  18.331   7.681  0.00  0.00    +0.000 HD
ENDBRANCH   3  29
TORSDOF 6
ENDMDL
MODEL 7
REMARK VINA RESULT:      -5.5     21.268     23.111
REMARK  Name = 5109870_Ethoxyphenyl.pdbqt.pdb
REMARK  6 active torsions:
REMARK  status: ('A' for Active; 'I' for Inactive)
REMARK    1  A    between atoms: N_2  and  C_22
REMARK    2  A    between atoms: C_3  and  O_11
REMARK    3  A    between atoms: C_3  and  C_13
REMARK    4  A    between atoms: C_16  and  N_19
REMARK    5  A    between atoms: C_25  and  O_28
REMARK    6  A    between atoms: O_28  and  C_29
REMARK                            x       y       z     vdW  Elec       q    Type
REMARK                         _______ _______ _______ _____ _____    ______ ____
ROOT
ATOM      1  N   UNL     1      -7.488  15.690  16.249  0.00  0.00    +0.000 N 
ATOM      2  N   UNL     1      -5.793  15.524  14.558  0.00  0.00    +0.000 N 
ATOM      3  C   UNL     1      -6.886  17.043  16.191  0.00  0.00    +0.000 C 
ATOM      4  C   UNL     1      -6.657  14.811  15.366  0.00  0.00    +0.000 C 
ATOM      5  C   UNL     1      -5.972  16.860  15.061  0.00  0.00    +0.000 C 
ATOM      6  C   UNL     1      -7.729  15.093  17.562  0.00  0.00    +0.000 C 
ATOM      7  C   UNL     1      -6.454  13.437  15.692  0.00  0.00    +0.000 C 
ATOM      8  C   UNL     1      -7.691  13.882  18.509  0.00  0.00    +0.000 C 
ATOM      9  C   UNL     1      -6.557  12.327  16.750  0.00  0.00    +0.000 C 
ATOM     10  C   UNL     1      -7.141  12.506  18.148  0.00  0.00    +0.000 C 
ENDROOT
BRANCH   3  11
ATOM     11  C   UNL     1      -7.935  18.111  15.992  0.00  0.00    +0.000 A 
ATOM     12  C   UNL     1      -8.258  18.592  14.715  0.00  0.00    +0.000 A 
ATOM     13  C   UNL     1      -9.257  19.545  14.536  0.00  0.00    +0.000 A 
ATOM     14  C   UNL     1      -9.949  20.012  15.649  0.00  0.00    +0.000 A 
ATOM     15  C   UNL     1      -9.665  19.546  16.929  0.00  0.00    +0.000 A 
ATOM     16  C   UNL     1      -8.664  18.593  17.090  0.00  0.00    +0.000 A 
BRANCH  14  17
ATOM     17  N   UNL     1     -10.989  21.006  15.471  0.00  0.00    +0.000 N 
ATOM     18  O   UNL     1     -11.614  21.370  16.477  0.00  0.00    +0.000 OA
ATOM     19  O   UNL     1     -11.189  21.432  14.325  0.00  0.00    +0.000 OA
ENDBRANCH  14  17
ENDBRANCH   3  11
BRANCH   2  20
ATOM     20  C   UNL     1      -4.704  15.129  13.766  0.00  0.00    +0.000 A 
ATOM     21  C   UNL     1      -4.833  14.885  12.395  0.00  0.00    +0.000 A 
ATOM     22  C   UNL     1      -3.739  14.515  11.612  0.00  0.00    +0.000 A 
ATOM     23  C   UNL     1      -2.478  14.389  12.188  0.00  0.00    +0.000 A 
ATOM     24  C   UNL     1      -2.322  14.637  13.548  0.00  0.00    +0.000 A 
ATOM     25  C   UNL     1      -3.423  15.006  14.322  0.00  0.00    +0.000 A 
BRANCH  23  26
ATOM     26  O   UNL     1      -1.341  14.033  11.509  0.00  0.00    +0.000 OA
BRANCH  26  27
ATOM     27  C   UNL     1      -0.648  13.038  12.059  0.00  0.00    +0.000 C 
ATOM     28  C   UNL     1       0.164  11.898  12.685  0.00  0.00    +0.000 C 
ENDBRANCH  26  27
ENDBRANCH  23  26
ENDBRANCH   2  20
BRANCH   3  29
ATOM     29  O   UNL     1      -6.102  17.355  17.336  0.00  0.00    +0.000 OA
ATOM     30  H   UNL     1      -6.187  18.316  17.446  0.00  0.00    +0.000 HD
ENDBRANCH   3  29
TORSDOF 6
ENDMDL
MODEL 8
REMARK VINA RESULT:      -5.5     21.105     23.476
REMARK  Name = 5109870_Ethoxyphenyl.pdbqt.pdb
REMARK  6 active torsions:
REMARK  status: ('A' for Active; 'I' for Inactive)
REMARK    1  A    between atoms: N_2  and  C_22
REMARK    2  A    between atoms: C_3  and  O_11
REMARK    3  A    between atoms: C_3  and  C_13
REMARK    4  A    between atoms: C_16  and  N_19
REMARK    5  A    between atoms: C_25  and  O_28
REMARK    6  A    between atoms: O_28  and  C_29
REMARK                            x       y       z     vdW  Elec       q    Type
REMARK                         _______ _______ _______ _____ _____    ______ ____
ROOT
ATOM      1  N   UNL     1      -7.612  14.486  17.447  0.00  0.00    +0.000 N 
ATOM      2  N   UNL     1      -6.246  14.883  15.514  0.00  0.00    +0.000 N 
ATOM      3  C   UNL     1      -7.092  15.862  17.634  0.00  0.00    +0.000 C 
ATOM      4  C   UNL     1      -6.916  13.923  16.247  0.00  0.00    +0.000 C 
ATOM      5  C   UNL     1      -6.391  16.038  16.360  0.00  0.00    +0.000 C 
ATOM      6  C   UNL     1      -7.584  13.572  18.588  0.00  0.00    +0.000 C 
ATOM      7  C   UNL     1      -6.595  12.535  16.178  0.00  0.00    +0.000 C 
ATOM      8  C   UNL     1      -7.320  12.177  19.179  0.00  0.00    +0.000 C 
ATOM      9  C   UNL     1      -6.455  11.198  16.923  0.00  0.00    +0.000 C 
ATOM     10  C   UNL     1      -6.783  10.983  18.397  0.00  0.00    +0.000 C 
ENDROOT
BRANCH   3  11
ATOM     11  C   UNL     1      -8.207  16.849  17.887  0.00  0.00    +0.000 A 
ATOM     12  C   UNL     1      -8.512  17.861  16.965  0.00  0.00    +0.000 A 
ATOM     13  C   UNL     1      -9.570  18.739  17.185  0.00  0.00    +0.000 A 
ATOM     14  C   UNL     1     -10.339  18.593  18.336  0.00  0.00    +0.000 A 
ATOM     15  C   UNL     1     -10.074  17.591  19.263  0.00  0.00    +0.000 A 
ATOM     16  C   UNL     1      -9.013  16.721  19.028  0.00  0.00    +0.000 A 
BRANCH  14  17
ATOM     17  N   UNL     1     -11.440  19.506  18.572  0.00  0.00    +0.000 N 
ATOM     18  O   UNL     1     -11.340  20.656  18.122  0.00  0.00    +0.000 OA
ATOM     19  O   UNL     1     -12.414  19.079  19.209  0.00  0.00    +0.000 OA
ENDBRANCH  14  17
ENDBRANCH   3  11
BRANCH   2  20
ATOM     20  C   UNL     1      -5.302  14.789  14.480  0.00  0.00    +0.000 A 
ATOM     21  C   UNL     1      -5.679  14.631  13.142  0.00  0.00    +0.000 A 
ATOM     22  C   UNL     1      -4.733  14.562  12.119  0.00  0.00    +0.000 A 
ATOM     23  C   UNL     1      -3.375  14.658  12.415  0.00  0.00    +0.000 A 
ATOM     24  C   UNL     1      -2.976  14.826  13.737  0.00  0.00    +0.000 A 
ATOM     25  C   UNL     1      -3.931  14.894  14.752  0.00  0.00    +0.000 A 
BRANCH  23  26
ATOM     26  O   UNL     1      -2.368  14.603  11.486  0.00  0.00    +0.000 OA
BRANCH  26  27
ATOM     27  C   UNL     1      -1.390  13.746  11.771  0.00  0.00    +0.000 C 
ATOM     28  C   UNL     1      -0.270  12.747  12.087  0.00  0.00    +0.000 C 
ENDBRANCH  26  27
ENDBRANCH  23  26
ENDBRANCH   2  20
BRANCH   3  29
ATOM     29  O   UNL     1      -6.129  15.958  18.676  0.00  0.00    +0.000 OA
ATOM     30  H   UNL     1      -5.298  16.192  18.231  0.00  0.00    +0.000 HD
ENDBRANCH   3  29
TORSDOF 6
ENDMDL
MODEL 9
REMARK VINA RESULT:      -5.4     19.630     21.884
REMARK  Name = 5109870_Ethoxyphenyl.pdbqt.pdb
REMARK  6 active torsions:
REMARK  status: ('A' for Active; 'I' for Inactive)
REMARK    1  A    between atoms: N_2  and  C_22
REMARK    2  A    between atoms: C_3  and  O_11
REMARK    3  A    between atoms: C_3  and  C_13
REMARK    4  A    between atoms: C_16  and  N_19
REMARK    5  A    between atoms: C_25  and  O_28
REMARK    6  A    between atoms: O_28  and  C_29
REMARK                            x       y       z     vdW  Elec       q    Type
REMARK                         _______ _______ _______ _____ _____    ______ ____
ROOT
ATOM      1  N   UNL     1      -4.545  -0.474  15.381  0.00  0.00    +0.000 N 
ATOM      2  N   UNL     1      -5.241   1.822  15.354  0.00  0.00    +0.000 N 
ATOM      3  C   UNL     1      -6.022  -0.532  15.493  0.00  0.00    +0.000 C 
ATOM      4  C   UNL     1      -4.162   0.970  15.481  0.00  0.00    +0.000 C 
ATOM      5  C   UNL     1      -6.338   0.890  15.340  0.00  0.00    +0.000 C 
ATOM      6  C   UNL     1      -3.749  -1.324  16.266  0.00  0.00    +0.000 C 
ATOM      7  C   UNL     1      -2.942   1.357  16.109  0.00  0.00    +0.000 C 
ATOM      8  C   UNL     1      -2.540  -1.528  17.195  0.00  0.00    +0.000 C 
ATOM      9  C   UNL     1      -1.758   0.952  17.002  0.00  0.00    +0.000 C 
ATOM     10  C   UNL     1      -1.532  -0.446  17.569  0.00  0.00    +0.000 C 
ENDROOT
BRANCH   3  11
ATOM     11  C   UNL     1      -6.624  -1.432  14.440  0.00  0.00    +0.000 A 
ATOM     12  C   UNL     1      -7.189  -2.671  14.773  0.00  0.00    +0.000 A 
ATOM     13  C   UNL     1      -7.781  -3.476  13.803  0.00  0.00    +0.000 A 
ATOM     14  C   UNL     1      -7.818  -3.027  12.486  0.00  0.00    +0.000 A 
ATOM     15  C   UNL     1      -7.281  -1.796  12.123  0.00  0.00    +0.000 A 
ATOM     16  C   UNL     1      -6.693  -1.004  13.105  0.00  0.00    +0.000 A 
BRANCH  14  17
ATOM     17  N   UNL     1      -8.432  -3.860  11.470  0.00  0.00    +0.000 N 
ATOM     18  O   UNL     1      -8.695  -5.032  11.771  0.00  0.00    +0.000 OA
ATOM     19  O   UNL     1      -8.655  -3.348  10.364  0.00  0.00    +0.000 OA
ENDBRANCH  14  17
ENDBRANCH   3  11
BRANCH   2  20
ATOM     20  C   UNL     1      -5.390   3.196  15.601  0.00  0.00    +0.000 A 
ATOM     21  C   UNL     1      -4.947   4.165  14.695  0.00  0.00    +0.000 A 
ATOM     22  C   UNL     1      -5.120   5.527  14.939  0.00  0.00    +0.000 A 
ATOM     23  C   UNL     1      -5.755   5.954  16.103  0.00  0.00    +0.000 A 
ATOM     24  C   UNL     1      -6.214   5.009  17.014  0.00  0.00    +0.000 A 
ATOM     25  C   UNL     1      -6.036   3.649  16.760  0.00  0.00    +0.000 A 
BRANCH  23  26
ATOM     26  O   UNL     1      -5.975   7.266  16.437  0.00  0.00    +0.000 OA
BRANCH  26  27
ATOM     27  C   UNL     1      -7.192   7.528  16.905  0.00  0.00    +0.000 C 
ATOM     28  C   UNL     1      -8.602   7.822  17.433  0.00  0.00    +0.000 C 
ENDBRANCH  26  27
ENDBRANCH  23  26
ENDBRANCH   2  20
BRANCH   3  29
ATOM     29  O   UNL     1      -6.470  -0.939  16.779  0.00  0.00    +0.000 OA
ATOM     30  H   UNL     1      -6.974  -1.755  16.625  0.00  0.00    +0.000 HD
ENDBRANCH   3  29
TORSDOF 6
ENDMDL
