MODEL 1
REMARK VINA RESULT:      -6.4      0.000      0.000
REMARK  Name = 5280445_Luteolin.pdbqt.pdb
REMARK  5 active torsions:
REMARK  status: ('A' for Active; 'I' for Inactive)
REMARK    1  A    between atoms: C_5  and  C_12
REMARK    2  A    between atoms: C_8  and  O_22
REMARK    3  A    between atoms: C_10  and  O_24
REMARK    4  A    between atoms: C_15  and  O_18
REMARK    5  A    between atoms: C_17  and  O_20
REMARK                            x       y       z     vdW  Elec       q    Type
REMARK                         _______ _______ _______ _____ _____    ______ ____
ROOT
ATOM      1  O   UNL     1     -14.853   8.483  -2.112  0.00  0.00    +0.000 OA
ATOM      2  O   UNL     1     -18.223   8.116   0.218  0.00  0.00    +0.000 OA
ATOM      3  C   UNL     1     -16.541   6.982  -1.066  0.00  0.00    +0.000 A 
ATOM      4  C   UNL     1     -15.387   7.217  -1.855  0.00  0.00    +0.000 A 
ATOM      5  C   UNL     1     -15.485   9.608  -1.566  0.00  0.00    +0.000 A 
ATOM      6  C   UNL     1     -17.225   8.150  -0.479  0.00  0.00    +0.000 A 
ATOM      7  C   UNL     1     -16.528   9.324  -0.860  0.00  0.00    +0.000 A 
ATOM      8  C   UNL     1     -17.007   5.685  -0.857  0.00  0.00    +0.000 A 
ATOM      9  C   UNL     1     -14.715   6.142  -2.425  0.00  0.00    +0.000 A 
ATOM     10  C   UNL     1     -15.193   4.851  -2.207  0.00  0.00    +0.000 A 
ATOM     11  C   UNL     1     -16.329   4.614  -1.432  0.00  0.00    +0.000 A 
ENDROOT
BRANCH   5  12
ATOM     12  C   UNL     1     -14.926  10.926  -1.836  0.00  0.00    +0.000 A 
ATOM     13  C   UNL     1     -14.754  11.365  -3.152  0.00  0.00    +0.000 A 
ATOM     14  C   UNL     1     -14.553  11.775  -0.785  0.00  0.00    +0.000 A 
ATOM     15  C   UNL     1     -14.219  12.623  -3.399  0.00  0.00    +0.000 A 
ATOM     16  C   UNL     1     -14.017  13.038  -1.032  0.00  0.00    +0.000 A 
ATOM     17  C   UNL     1     -13.854  13.456  -2.347  0.00  0.00    +0.000 A 
BRANCH  15  18
ATOM     18  O   UNL     1     -14.057  13.040  -4.689  0.00  0.00    +0.000 OA
ATOM     19  H   UNL     1     -13.201  12.661  -4.974  0.00  0.00    +0.000 HD
ENDBRANCH  15  18
BRANCH  17  20
ATOM     20  O   UNL     1     -13.333  14.685  -2.642  0.00  0.00    +0.000 OA
ATOM     21  H   UNL     1     -12.638  14.878  -1.986  0.00  0.00    +0.000 HD
ENDBRANCH  17  20
ENDBRANCH   5  12
BRANCH   8  22
ATOM     22  O   UNL     1     -18.114   5.396  -0.108  0.00  0.00    +0.000 OA
ATOM     23  H   UNL     1     -18.069   4.464   0.198  0.00  0.00    +0.000 HD
ENDBRANCH   8  22
BRANCH  10  24
ATOM     24  O   UNL     1     -14.518   3.810  -2.777  0.00  0.00    +0.000 OA
ATOM     25  H   UNL     1     -15.165   3.123  -3.020  0.00  0.00    +0.000 HD
ENDBRANCH  10  24
TORSDOF 5
ENDMDL
MODEL 2
REMARK VINA RESULT:      -5.9     19.243     22.151
REMARK  Name = 5280445_Luteolin.pdbqt.pdb
REMARK  5 active torsions:
REMARK  status: ('A' for Active; 'I' for Inactive)
REMARK    1  A    between atoms: C_5  and  C_12
REMARK    2  A    between atoms: C_8  and  O_22
REMARK    3  A    between atoms: C_10  and  O_24
REMARK    4  A    between atoms: C_15  and  O_18
REMARK    5  A    between atoms: C_17  and  O_20
REMARK                            x       y       z     vdW  Elec       q    Type
REMARK                         _______ _______ _______ _____ _____    ______ ____
ROOT
ATOM      1  O   UNL     1     -20.956   5.462  17.758  0.00  0.00    +0.000 OA
ATOM      2  O   UNL     1     -24.441   7.577  18.307  0.00  0.00    +0.000 OA
ATOM      3  C   UNL     1     -22.188   7.606  17.476  0.00  0.00    +0.000 A 
ATOM      4  C   UNL     1     -21.037   6.792  17.335  0.00  0.00    +0.000 A 
ATOM      5  C   UNL     1     -22.074   4.876  18.364  0.00  0.00    +0.000 A 
ATOM      6  C   UNL     1     -23.380   7.013  18.112  0.00  0.00    +0.000 A 
ATOM      7  C   UNL     1     -23.087   5.670  18.462  0.00  0.00    +0.000 A 
ATOM      8  C   UNL     1     -22.186   8.926  17.026  0.00  0.00    +0.000 A 
ATOM      9  C   UNL     1     -19.895   7.316  16.740  0.00  0.00    +0.000 A 
ATOM     10  C   UNL     1     -19.907   8.637  16.295  0.00  0.00    +0.000 A 
ATOM     11  C   UNL     1     -21.038   9.443  16.432  0.00  0.00    +0.000 A 
ENDROOT
BRANCH   5  12
ATOM     12  C   UNL     1     -21.986   3.489  18.804  0.00  0.00    +0.000 A 
ATOM     13  C   UNL     1     -21.417   2.519  17.974  0.00  0.00    +0.000 A 
ATOM     14  C   UNL     1     -22.468   3.105  20.062  0.00  0.00    +0.000 A 
ATOM     15  C   UNL     1     -21.339   1.200  18.402  0.00  0.00    +0.000 A 
ATOM     16  C   UNL     1     -22.391   1.780  20.492  0.00  0.00    +0.000 A 
ATOM     17  C   UNL     1     -21.822   0.832  19.653  0.00  0.00    +0.000 A 
BRANCH  15  18
ATOM     18  O   UNL     1     -20.781   0.262  17.581  0.00  0.00    +0.000 OA
ATOM     19  H   UNL     1     -19.816   0.410  17.644  0.00  0.00    +0.000 HD
ENDBRANCH  15  18
BRANCH  17  20
ATOM     20  O   UNL     1     -21.721  -0.480  20.028  0.00  0.00    +0.000 OA
ATOM     21  H   UNL     1     -22.546  -0.927  19.763  0.00  0.00    +0.000 HD
ENDBRANCH  17  20
ENDBRANCH   5  12
BRANCH   8  22
ATOM     22  O   UNL     1     -23.264   9.759  17.135  0.00  0.00    +0.000 OA
ATOM     23  H   UNL     1     -24.076   9.286  16.850  0.00  0.00    +0.000 HD
ENDBRANCH   8  22
BRANCH  10  24
ATOM     24  O   UNL     1     -18.774   9.132  15.715  0.00  0.00    +0.000 OA
ATOM     25  H   UNL     1     -18.014   8.619  16.044  0.00  0.00    +0.000 HD
ENDBRANCH  10  24
TORSDOF 5
ENDMDL
MODEL 3
REMARK VINA RESULT:      -5.7      2.007      3.889
REMARK  Name = 5280445_Luteolin.pdbqt.pdb
REMARK  5 active torsions:
REMARK  status: ('A' for Active; 'I' for Inactive)
REMARK    1  A    between atoms: C_5  and  C_12
REMARK    2  A    between atoms: C_8  and  O_22
REMARK    3  A    between atoms: C_10  and  O_24
REMARK    4  A    between atoms: C_15  and  O_18
REMARK    5  A    between atoms: C_17  and  O_20
REMARK                            x       y       z     vdW  Elec       q    Type
REMARK                         _______ _______ _______ _____ _____    ______ ____
ROOT
ATOM      1  O   UNL     1     -16.382   5.974  -1.353  0.00  0.00    +0.000 OA
ATOM      2  O   UNL     1     -13.143   4.019  -2.969  0.00  0.00    +0.000 OA
ATOM      3  C   UNL     1     -15.383   3.829  -2.125  0.00  0.00    +0.000 A 
ATOM      4  C   UNL     1     -16.440   4.595  -1.574  0.00  0.00    +0.000 A 
ATOM      5  C   UNL     1     -15.211   6.664  -1.689  0.00  0.00    +0.000 A 
ATOM      6  C   UNL     1     -14.138   4.531  -2.488  0.00  0.00    +0.000 A 
ATOM      7  C   UNL     1     -14.289   5.909  -2.185  0.00  0.00    +0.000 A 
ATOM      8  C   UNL     1     -15.524   2.454  -2.314  0.00  0.00    +0.000 A 
ATOM      9  C   UNL     1     -17.630   3.968  -1.219  0.00  0.00    +0.000 A 
ATOM     10  C   UNL     1     -17.756   2.593  -1.414  0.00  0.00    +0.000 A 
ATOM     11  C   UNL     1     -16.717   1.834  -1.956  0.00  0.00    +0.000 A 
ENDROOT
BRANCH   5  12
ATOM     12  C   UNL     1     -15.153   8.101  -1.458  0.00  0.00    +0.000 A 
ATOM     13  C   UNL     1     -15.012   8.985  -2.531  0.00  0.00    +0.000 A 
ATOM     14  C   UNL     1     -15.238   8.621  -0.159  0.00  0.00    +0.000 A 
ATOM     15  C   UNL     1     -14.957  10.354  -2.300  0.00  0.00    +0.000 A 
ATOM     16  C   UNL     1     -15.183   9.996   0.074  0.00  0.00    +0.000 A 
ATOM     17  C   UNL     1     -15.043  10.857  -1.006  0.00  0.00    +0.000 A 
BRANCH  15  18
ATOM     18  O   UNL     1     -14.820  11.206  -3.358  0.00  0.00    +0.000 OA
ATOM     19  H   UNL     1     -14.758  12.098  -2.960  0.00  0.00    +0.000 HD
ENDBRANCH  15  18
BRANCH  17  20
ATOM     20  O   UNL     1     -14.984  12.212  -0.831  0.00  0.00    +0.000 OA
ATOM     21  H   UNL     1     -15.896  12.535  -0.709  0.00  0.00    +0.000 HD
ENDBRANCH  17  20
ENDBRANCH   5  12
BRANCH   8  22
ATOM     22  O   UNL     1     -14.541   1.663  -2.839  0.00  0.00    +0.000 OA
ATOM     23  H   UNL     1     -14.228   2.047  -3.688  0.00  0.00    +0.000 HD
ENDBRANCH   8  22
BRANCH  10  24
ATOM     24  O   UNL     1     -18.932   1.998  -1.058  0.00  0.00    +0.000 OA
ATOM     25  H   UNL     1     -18.873   1.051  -1.277  0.00  0.00    +0.000 HD
ENDBRANCH  10  24
TORSDOF 5
ENDMDL
MODEL 4
REMARK VINA RESULT:      -5.6     26.098     27.800
REMARK  Name = 5280445_Luteolin.pdbqt.pdb
REMARK  5 active torsions:
REMARK  status: ('A' for Active; 'I' for Inactive)
REMARK    1  A    between atoms: C_5  and  C_12
REMARK    2  A    between atoms: C_8  and  O_22
REMARK    3  A    between atoms: C_10  and  O_24
REMARK    4  A    between atoms: C_15  and  O_18
REMARK    5  A    between atoms: C_17  and  O_20
REMARK                            x       y       z     vdW  Elec       q    Type
REMARK                         _______ _______ _______ _____ _____    ______ ____
ROOT
ATOM      1  O   UNL     1     -13.990  16.757  24.797  0.00  0.00    +0.000 OA
ATOM      2  O   UNL     1      -9.977  17.156  23.986  0.00  0.00    +0.000 OA
ATOM      3  C   UNL     1     -11.662  15.994  25.241  0.00  0.00    +0.000 A 
ATOM      4  C   UNL     1     -13.063  15.938  25.449  0.00  0.00    +0.000 A 
ATOM      5  C   UNL     1     -13.526  17.703  23.875  0.00  0.00    +0.000 A 
ATOM      6  C   UNL     1     -11.147  16.983  24.275  0.00  0.00    +0.000 A 
ATOM      7  C   UNL     1     -12.243  17.702  23.733  0.00  0.00    +0.000 A 
ATOM      8  C   UNL     1     -10.806  15.139  25.933  0.00  0.00    +0.000 A 
ATOM      9  C   UNL     1     -13.586  15.019  26.352  0.00  0.00    +0.000 A 
ATOM     10  C   UNL     1     -12.718  14.171  27.036  0.00  0.00    +0.000 A 
ATOM     11  C   UNL     1     -11.338  14.223  26.836  0.00  0.00    +0.000 A 
ENDROOT
BRANCH   5  12
ATOM     12  C   UNL     1     -14.494  18.554  23.197  0.00  0.00    +0.000 A 
ATOM     13  C   UNL     1     -15.780  18.718  23.719  0.00  0.00    +0.000 A 
ATOM     14  C   UNL     1     -14.154  19.223  22.013  0.00  0.00    +0.000 A 
ATOM     15  C   UNL     1     -16.696  19.532  23.064  0.00  0.00    +0.000 A 
ATOM     16  C   UNL     1     -15.074  20.040  21.355  0.00  0.00    +0.000 A 
ATOM     17  C   UNL     1     -16.346  20.190  21.891  0.00  0.00    +0.000 A 
BRANCH  15  18
ATOM     18  O   UNL     1     -17.949  19.684  23.586  0.00  0.00    +0.000 OA
ATOM     19  H   UNL     1     -18.513  19.936  22.827  0.00  0.00    +0.000 HD
ENDBRANCH  15  18
BRANCH  17  20
ATOM     20  O   UNL     1     -17.284  20.980  21.284  0.00  0.00    +0.000 OA
ATOM     21  H   UNL     1     -17.339  20.709  20.350  0.00  0.00    +0.000 HD
ENDBRANCH  17  20
ENDBRANCH   5  12
BRANCH   8  22
ATOM     22  O   UNL     1      -9.448  15.147  25.776  0.00  0.00    +0.000 OA
ATOM     23  H   UNL     1      -9.075  14.297  26.098  0.00  0.00    +0.000 HD
ENDBRANCH   8  22
BRANCH  10  24
ATOM     24  O   UNL     1     -13.253  13.277  27.919  0.00  0.00    +0.000 OA
ATOM     25  H   UNL     1     -14.222  13.374  27.901  0.00  0.00    +0.000 HD
ENDBRANCH  10  24
TORSDOF 5
ENDMDL
MODEL 5
REMARK VINA RESULT:      -5.4     17.973     20.446
REMARK  Name = 5280445_Luteolin.pdbqt.pdb
REMARK  5 active torsions:
REMARK  status: ('A' for Active; 'I' for Inactive)
REMARK    1  A    between atoms: C_5  and  C_12
REMARK    2  A    between atoms: C_8  and  O_22
REMARK    3  A    between atoms: C_10  and  O_24
REMARK    4  A    between atoms: C_15  and  O_18
REMARK    5  A    between atoms: C_17  and  O_20
REMARK                            x       y       z     vdW  Elec       q    Type
REMARK                         _______ _______ _______ _____ _____    ______ ____
ROOT
ATOM      1  O   UNL     1      -2.122  15.167  11.024  0.00  0.00    +0.000 OA
ATOM      2  O   UNL     1      -5.488  15.004  13.383  0.00  0.00    +0.000 OA
ATOM      3  C   UNL     1      -4.506  15.809  11.345  0.00  0.00    +0.000 A 
ATOM      4  C   UNL     1      -3.295  15.805  10.609  0.00  0.00    +0.000 A 
ATOM      5  C   UNL     1      -2.121  14.481  12.245  0.00  0.00    +0.000 A 
ATOM      6  C   UNL     1      -4.531  15.094  12.635  0.00  0.00    +0.000 A 
ATOM      7  C   UNL     1      -3.253  14.523  12.864  0.00  0.00    +0.000 A 
ATOM      8  C   UNL     1      -5.632  16.471  10.858  0.00  0.00    +0.000 A 
ATOM      9  C   UNL     1      -3.232  16.469   9.388  0.00  0.00    +0.000 A 
ATOM     10  C   UNL     1      -4.366  17.126   8.914  0.00  0.00    +0.000 A 
ATOM     11  C   UNL     1      -5.561  17.133   9.636  0.00  0.00    +0.000 A 
ENDROOT
BRANCH   5  12
ATOM     12  C   UNL     1      -0.898  13.817  12.674  0.00  0.00    +0.000 A 
ATOM     13  C   UNL     1      -0.715  12.451  12.439  0.00  0.00    +0.000 A 
ATOM     14  C   UNL     1       0.114  14.533  13.328  0.00  0.00    +0.000 A 
ATOM     15  C   UNL     1       0.455  11.827  12.854  0.00  0.00    +0.000 A 
ATOM     16  C   UNL     1       1.289  13.906  13.744  0.00  0.00    +0.000 A 
ATOM     17  C   UNL     1       1.451  12.549  13.501  0.00  0.00    +0.000 A 
BRANCH  15  18
ATOM     18  O   UNL     1       0.621  10.492  12.617  0.00  0.00    +0.000 OA
ATOM     19  H   UNL     1      -0.067  10.262  11.961  0.00  0.00    +0.000 HD
ENDBRANCH  15  18
BRANCH  17  20
ATOM     20  O   UNL     1       2.585  11.888  13.889  0.00  0.00    +0.000 OA
ATOM     21  H   UNL     1       2.402  11.466  14.748  0.00  0.00    +0.000 HD
ENDBRANCH  17  20
ENDBRANCH   5  12
BRANCH   8  22
ATOM     22  O   UNL     1      -6.826  16.510  11.522  0.00  0.00    +0.000 OA
ATOM     23  H   UNL     1      -7.344  17.288  11.221  0.00  0.00    +0.000 HD
ENDBRANCH   8  22
BRANCH  10  24
ATOM     24  O   UNL     1      -4.281  17.771   7.714  0.00  0.00    +0.000 OA
ATOM     25  H   UNL     1      -4.852  17.306   7.077  0.00  0.00    +0.000 HD
ENDBRANCH  10  24
TORSDOF 5
ENDMDL
MODEL 6
REMARK VINA RESULT:      -5.3     14.283     15.280
REMARK  Name = 5280445_Luteolin.pdbqt.pdb
REMARK  5 active torsions:
REMARK  status: ('A' for Active; 'I' for Inactive)
REMARK    1  A    between atoms: C_5  and  C_12
REMARK    2  A    between atoms: C_8  and  O_22
REMARK    3  A    between atoms: C_10  and  O_24
REMARK    4  A    between atoms: C_15  and  O_18
REMARK    5  A    between atoms: C_17  and  O_20
REMARK                            x       y       z     vdW  Elec       q    Type
REMARK                         _______ _______ _______ _____ _____    ______ ____
ROOT
ATOM      1  O   UNL     1      -0.418   7.241   0.495  0.00  0.00    +0.000 OA
ATOM      2  O   UNL     1      -2.616   5.204   3.313  0.00  0.00    +0.000 OA
ATOM      3  C   UNL     1      -0.556   6.331   2.808  0.00  0.00    +0.000 A 
ATOM      4  C   UNL     1       0.117   7.019   1.768  0.00  0.00    +0.000 A 
ATOM      5  C   UNL     1      -1.700   6.760   0.207  0.00  0.00    +0.000 A 
ATOM      6  C   UNL     1      -1.910   5.813   2.530  0.00  0.00    +0.000 A 
ATOM      7  C   UNL     1      -2.257   6.144   1.196  0.00  0.00    +0.000 A 
ATOM      8  C   UNL     1       0.050   6.153   4.051  0.00  0.00    +0.000 A 
ATOM      9  C   UNL     1       1.394   7.521   1.992  0.00  0.00    +0.000 A 
ATOM     10  C   UNL     1       1.987   7.335   3.240  0.00  0.00    +0.000 A 
ATOM     11  C   UNL     1       1.328   6.658   4.267  0.00  0.00    +0.000 A 
ENDROOT
BRANCH   5  12
ATOM     12  C   UNL     1      -2.255   6.994  -1.120  0.00  0.00    +0.000 A 
ATOM     13  C   UNL     1      -2.638   8.280  -1.510  0.00  0.00    +0.000 A 
ATOM     14  C   UNL     1      -2.413   5.936  -2.026  0.00  0.00    +0.000 A 
ATOM     15  C   UNL     1      -3.166   8.492  -2.777  0.00  0.00    +0.000 A 
ATOM     16  C   UNL     1      -2.944   6.148  -3.299  0.00  0.00    +0.000 A 
ATOM     17  C   UNL     1      -3.317   7.434  -3.667  0.00  0.00    +0.000 A 
BRANCH  15  18
ATOM     18  O   UNL     1      -3.535   9.754  -3.146  0.00  0.00    +0.000 OA
ATOM     19  H   UNL     1      -4.247  10.003  -2.523  0.00  0.00    +0.000 HD
ENDBRANCH  15  18
BRANCH  17  20
ATOM     20  O   UNL     1      -3.842   7.695  -4.903  0.00  0.00    +0.000 OA
ATOM     21  H   UNL     1      -3.657   8.628  -5.112  0.00  0.00    +0.000 HD
ENDBRANCH  17  20
ENDBRANCH   5  12
BRANCH   8  22
ATOM     22  O   UNL     1      -0.549   5.498   5.091  0.00  0.00    +0.000 OA
ATOM     23  H   UNL     1      -1.499   5.742   5.131  0.00  0.00    +0.000 HD
ENDBRANCH   8  22
BRANCH  10  24
ATOM     24  O   UNL     1       3.241   7.836   3.437  0.00  0.00    +0.000 OA
ATOM     25  H   UNL     1       3.375   8.577   2.820  0.00  0.00    +0.000 HD
ENDBRANCH  10  24
TORSDOF 5
ENDMDL
MODEL 7
REMARK VINA RESULT:      -5.3     12.738     15.364
REMARK  Name = 5280445_Luteolin.pdbqt.pdb
REMARK  5 active torsions:
REMARK  status: ('A' for Active; 'I' for Inactive)
REMARK    1  A    between atoms: C_5  and  C_12
REMARK    2  A    between atoms: C_8  and  O_22
REMARK    3  A    between atoms: C_10  and  O_24
REMARK    4  A    between atoms: C_15  and  O_18
REMARK    5  A    between atoms: C_17  and  O_20
REMARK                            x       y       z     vdW  Elec       q    Type
REMARK                         _______ _______ _______ _____ _____    ______ ____
ROOT
ATOM      1  O   UNL     1      -4.197   3.248   2.776  0.00  0.00    +0.000 OA
ATOM      2  O   UNL     1      -1.502   0.187   3.309  0.00  0.00    +0.000 OA
ATOM      3  C   UNL     1      -1.817   2.541   2.954  0.00  0.00    +0.000 A 
ATOM      4  C   UNL     1      -2.826   3.521   2.778  0.00  0.00    +0.000 A 
ATOM      5  C   UNL     1      -4.624   1.928   2.956  0.00  0.00    +0.000 A 
ATOM      6  C   UNL     1      -2.241   1.141   3.146  0.00  0.00    +0.000 A 
ATOM      7  C   UNL     1      -3.657   1.086   3.110  0.00  0.00    +0.000 A 
ATOM      8  C   UNL     1      -0.469   2.898   2.944  0.00  0.00    +0.000 A 
ATOM      9  C   UNL     1      -2.465   4.851   2.595  0.00  0.00    +0.000 A 
ATOM     10  C   UNL     1      -1.114   5.193   2.588  0.00  0.00    +0.000 A 
ATOM     11  C   UNL     1      -0.117   4.231   2.760  0.00  0.00    +0.000 A 
ENDROOT
BRANCH   5  12
ATOM     12  C   UNL     1      -6.054   1.647   2.953  0.00  0.00    +0.000 A 
ATOM     13  C   UNL     1      -6.734   1.426   4.155  0.00  0.00    +0.000 A 
ATOM     14  C   UNL     1      -6.771   1.595   1.750  0.00  0.00    +0.000 A 
ATOM     15  C   UNL     1      -8.097   1.158   4.141  0.00  0.00    +0.000 A 
ATOM     16  C   UNL     1      -8.140   1.327   1.736  0.00  0.00    +0.000 A 
ATOM     17  C   UNL     1      -8.797   1.110   2.940  0.00  0.00    +0.000 A 
BRANCH  15  18
ATOM     18  O   UNL     1      -8.749   0.944   5.321  0.00  0.00    +0.000 OA
ATOM     19  H   UNL     1      -8.437   1.655   5.917  0.00  0.00    +0.000 HD
ENDBRANCH  15  18
BRANCH  17  20
ATOM     20  O   UNL     1     -10.138   0.843   2.980  0.00  0.00    +0.000 OA
ATOM     21  H   UNL     1     -10.453   0.771   2.061  0.00  0.00    +0.000 HD
ENDBRANCH  17  20
ENDBRANCH   5  12
BRANCH   8  22
ATOM     22  O   UNL     1       0.548   1.999   3.108  0.00  0.00    +0.000 OA
ATOM     23  H   UNL     1       0.730   1.879   4.065  0.00  0.00    +0.000 HD
ENDBRANCH   8  22
BRANCH  10  24
ATOM     24  O   UNL     1      -0.782   6.505   2.405  0.00  0.00    +0.000 OA
ATOM     25  H   UNL     1      -0.357   6.828   3.219  0.00  0.00    +0.000 HD
ENDBRANCH  10  24
TORSDOF 5
ENDMDL
MODEL 8
REMARK VINA RESULT:      -5.1     19.032     20.548
REMARK  Name = 5280445_Luteolin.pdbqt.pdb
REMARK  5 active torsions:
REMARK  status: ('A' for Active; 'I' for Inactive)
REMARK    1  A    between atoms: C_5  and  C_12
REMARK    2  A    between atoms: C_8  and  O_22
REMARK    3  A    between atoms: C_10  and  O_24
REMARK    4  A    between atoms: C_15  and  O_18
REMARK    5  A    between atoms: C_17  and  O_20
REMARK                            x       y       z     vdW  Elec       q    Type
REMARK                         _______ _______ _______ _____ _____    ______ ____
ROOT
ATOM      1  O   UNL     1     -24.286   6.727  15.459  0.00  0.00    +0.000 OA
ATOM      2  O   UNL     1     -20.822   4.928  16.756  0.00  0.00    +0.000 OA
ATOM      3  C   UNL     1     -22.186   6.903  16.785  0.00  0.00    +0.000 A 
ATOM      4  C   UNL     1     -23.403   7.430  16.284  0.00  0.00    +0.000 A 
ATOM      5  C   UNL     1     -23.967   5.415  15.090  0.00  0.00    +0.000 A 
ATOM      6  C   UNL     1     -21.827   5.522  16.411  0.00  0.00    +0.000 A 
ATOM      7  C   UNL     1     -22.848   4.996  15.579  0.00  0.00    +0.000 A 
ATOM      8  C   UNL     1     -21.362   7.673  17.604  0.00  0.00    +0.000 A 
ATOM      9  C   UNL     1     -23.776   8.729  16.615  0.00  0.00    +0.000 A 
ATOM     10  C   UNL     1     -22.941   9.486  17.435  0.00  0.00    +0.000 A 
ATOM     11  C   UNL     1     -21.742   8.972  17.930  0.00  0.00    +0.000 A 
ENDROOT
BRANCH   5  12
ATOM     12  C   UNL     1     -24.890   4.685  14.230  0.00  0.00    +0.000 A 
ATOM     13  C   UNL     1     -25.006   3.296  14.336  0.00  0.00    +0.000 A 
ATOM     14  C   UNL     1     -25.675   5.360  13.286  0.00  0.00    +0.000 A 
ATOM     15  C   UNL     1     -25.887   2.609  13.512  0.00  0.00    +0.000 A 
ATOM     16  C   UNL     1     -26.561   4.670  12.458  0.00  0.00    +0.000 A 
ATOM     17  C   UNL     1     -26.661   3.291  12.579  0.00  0.00    +0.000 A 
BRANCH  15  18
ATOM     18  O   UNL     1     -25.991   1.252  13.626  0.00  0.00    +0.000 OA
ATOM     19  H   UNL     1     -26.739   1.104  14.239  0.00  0.00    +0.000 HD
ENDBRANCH  15  18
BRANCH  17  20
ATOM     20  O   UNL     1     -27.515   2.569  11.791  0.00  0.00    +0.000 OA
ATOM     21  H   UNL     1     -27.493   1.645  12.100  0.00  0.00    +0.000 HD
ENDBRANCH  17  20
ENDBRANCH   5  12
BRANCH   8  22
ATOM     22  O   UNL     1     -20.178   7.221  18.116  0.00  0.00    +0.000 OA
ATOM     23  H   UNL     1     -20.227   6.249  18.250  0.00  0.00    +0.000 HD
ENDBRANCH   8  22
BRANCH  10  24
ATOM     24  O   UNL     1     -23.327  10.758  17.746  0.00  0.00    +0.000 OA
ATOM     25  H   UNL     1     -22.572  11.213  18.161  0.00  0.00    +0.000 HD
ENDBRANCH  10  24
TORSDOF 5
ENDMDL
MODEL 9
REMARK VINA RESULT:      -5.1     17.685     19.904
REMARK  Name = 5280445_Luteolin.pdbqt.pdb
REMARK  5 active torsions:
REMARK  status: ('A' for Active; 'I' for Inactive)
REMARK    1  A    between atoms: C_5  and  C_12
REMARK    2  A    between atoms: C_8  and  O_22
REMARK    3  A    between atoms: C_10  and  O_24
REMARK    4  A    between atoms: C_15  and  O_18
REMARK    5  A    between atoms: C_17  and  O_20
REMARK                            x       y       z     vdW  Elec       q    Type
REMARK                         _______ _______ _______ _____ _____    ______ ____
ROOT
ATOM      1  O   UNL     1     -24.939   7.353  14.771  0.00  0.00    +0.000 OA
ATOM      2  O   UNL     1     -22.407   4.371  16.044  0.00  0.00    +0.000 OA
ATOM      3  C   UNL     1     -23.077   6.666  16.273  0.00  0.00    +0.000 A 
ATOM      4  C   UNL     1     -23.993   7.620  15.765  0.00  0.00    +0.000 A 
ATOM      5  C   UNL     1     -25.003   6.064  14.226  0.00  0.00    +0.000 A 
ATOM      6  C   UNL     1     -23.123   5.300  15.716  0.00  0.00    +0.000 A 
ATOM      7  C   UNL     1     -24.142   5.245  14.732  0.00  0.00    +0.000 A 
ATOM      8  C   UNL     1     -22.165   7.015  17.268  0.00  0.00    +0.000 A 
ATOM      9  C   UNL     1     -23.981   8.917  16.265  0.00  0.00    +0.000 A 
ATOM     10  C   UNL     1     -23.063   9.252  17.259  0.00  0.00    +0.000 A 
ATOM     11  C   UNL     1     -22.158   8.316  17.763  0.00  0.00    +0.000 A 
ENDROOT
BRANCH   5  12
ATOM     12  C   UNL     1     -25.990   5.789  13.190  0.00  0.00    +0.000 A 
ATOM     13  C   UNL     1     -25.636   5.057  12.053  0.00  0.00    +0.000 A 
ATOM     14  C   UNL     1     -27.307   6.250  13.316  0.00  0.00    +0.000 A 
ATOM     15  C   UNL     1     -26.585   4.801  11.071  0.00  0.00    +0.000 A 
ATOM     16  C   UNL     1     -28.260   5.992  12.330  0.00  0.00    +0.000 A 
ATOM     17  C   UNL     1     -27.888   5.264  11.208  0.00  0.00    +0.000 A 
BRANCH  15  18
ATOM     18  O   UNL     1     -26.226   4.085   9.965  0.00  0.00    +0.000 OA
ATOM     19  H   UNL     1     -26.398   4.681   9.208  0.00  0.00    +0.000 HD
ENDBRANCH  15  18
BRANCH  17  20
ATOM     20  O   UNL     1     -28.785   4.984  10.213  0.00  0.00    +0.000 OA
ATOM     21  H   UNL     1     -28.898   4.017  10.181  0.00  0.00    +0.000 HD
ENDBRANCH  17  20
ENDBRANCH   5  12
BRANCH   8  22
ATOM     22  O   UNL     1     -21.257   6.140  17.796  0.00  0.00    +0.000 OA
ATOM     23  H   UNL     1     -21.529   5.895  18.707  0.00  0.00    +0.000 HD
ENDBRANCH   8  22
BRANCH  10  24
ATOM     24  O   UNL     1     -23.068  10.532  17.735  0.00  0.00    +0.000 OA
ATOM     25  H   UNL     1     -22.330  10.626  18.364  0.00  0.00    +0.000 HD
ENDBRANCH  10  24
TORSDOF 5
ENDMDL
