MODEL 1
REMARK VINA RESULT:      -6.6      0.000      0.000
REMARK  Name = 5281224_Astaxanthin.pdbqt.pdb
REMARK  16 active torsions:
REMARK  status: ('A' for Active; 'I' for Inactive)
REMARK    1  A    between atoms: C_1  and  C_5
REMARK    2  A    between atoms: C_2  and  C_27
REMARK    3  A    between atoms: C_3  and  C_5
REMARK    4  A    between atoms: C_3  and  C_7
REMARK    5  A    between atoms: C_6  and  C_10
REMARK    6  A    between atoms: C_8  and  C_10
REMARK    7  A    between atoms: C_8  and  C_12
REMARK    8  A    between atoms: C_11  and  C_16
REMARK    9  A    between atoms: C_17  and  O_23
REMARK   10  A    between atoms: C_25  and  C_27
REMARK   11  A    between atoms: C_25  and  C_29
REMARK   12  A    between atoms: C_28  and  C_32
REMARK   13  A    between atoms: C_30  and  C_32
REMARK   14  A    between atoms: C_30  and  C_34
REMARK   15  A    between atoms: C_33  and  C_38
REMARK   16  A    between atoms: C_39  and  O_45
REMARK                            x       y       z     vdW  Elec       q    Type
REMARK                         _______ _______ _______ _____ _____    ______ ____
ROOT
ATOM      1  C   UNL     1      -9.963   3.739  -3.793  0.00  0.00    +0.000 C 
ATOM      2  C   UNL     1      -8.860   3.937  -4.222  0.00  0.00    +0.000 C 
ENDROOT
BRANCH   2   3
ATOM      3  C   UNL     1      -7.446   4.188  -4.763  0.00  0.00    +0.000 C 
BRANCH   3   4
ATOM      4  C   UNL     1      -6.254   4.399  -5.226  0.00  0.00    +0.000 C 
ATOM      5  C   UNL     1      -6.076   5.021  -6.577  0.00  0.00    +0.000 C 
BRANCH   4   7
ATOM      6  C   UNL     1      -4.167   3.602  -3.864  0.00  0.00    +0.000 C 
ATOM      7  C   UNL     1      -5.124   3.968  -4.491  0.00  0.00    +0.000 C 
BRANCH   6   8
ATOM      8  C   UNL     1      -2.948   3.133  -3.062  0.00  0.00    +0.000 C 
BRANCH   8   9
ATOM      9  C   UNL     1      -1.920   2.737  -2.377  0.00  0.00    +0.000 C 
ATOM     10  C   UNL     1      -0.940   1.780  -2.984  0.00  0.00    +0.000 C 
BRANCH   9  12
ATOM     11  C   UNL     1      -1.398   3.842  -0.060  0.00  0.00    +0.000 C 
ATOM     12  C   UNL     1      -1.645   3.328  -1.118  0.00  0.00    +0.000 C 
BRANCH  11  16
ATOM     13  O   UNL     1       0.849   7.343   2.533  0.00  0.00    +0.000 OA
ATOM     14  C   UNL     1      -1.698   3.849   2.490  0.00  0.00    +0.000 C 
ATOM     15  C   UNL     1      -1.222   4.677   3.584  0.00  0.00    +0.000 C 
ATOM     16  C   UNL     1      -1.087   4.472   1.209  0.00  0.00    +0.000 C 
ATOM     17  C   UNL     1      -0.419   5.800   3.756  0.00  0.00    +0.000 C 
ATOM     18  C   UNL     1      -3.241   3.919   2.399  0.00  0.00    +0.000 C 
ATOM     19  C   UNL     1      -1.184   2.401   2.653  0.00  0.00    +0.000 C 
ATOM     20  C   UNL     1      -0.285   5.577   1.236  0.00  0.00    +0.000 C 
ATOM     21  C   UNL     1       0.132   6.351   2.498  0.00  0.00    +0.000 C 
ATOM     22  C   UNL     1       0.258   6.126  -0.091  0.00  0.00    +0.000 C 
BRANCH  17  23
ATOM     23  O   UNL     1      -0.162   6.354   4.981  0.00  0.00    +0.000 OA
ATOM     24  H   UNL     1       0.467   7.100   4.899  0.00  0.00    +0.000 HD
ENDBRANCH  17  23
ENDBRANCH  11  16
ENDBRANCH   9  12
ENDBRANCH   8   9
ENDBRANCH   6   8
ENDBRANCH   4   7
ENDBRANCH   3   4
ENDBRANCH   2   3
BRANCH   1  25
ATOM     25  C   UNL     1     -11.368   3.485  -3.236  0.00  0.00    +0.000 C 
BRANCH  25  26
ATOM     26  C   UNL     1     -12.554   3.269  -2.760  0.00  0.00    +0.000 C 
ATOM     27  C   UNL     1     -13.071   1.865  -2.653  0.00  0.00    +0.000 C 
BRANCH  26  29
ATOM     28  C   UNL     1     -14.101   5.284  -2.139  0.00  0.00    +0.000 C 
ATOM     29  C   UNL     1     -13.391   4.358  -2.423  0.00  0.00    +0.000 C 
BRANCH  28  30
ATOM     30  C   UNL     1     -15.007   6.469  -1.780  0.00  0.00    +0.000 C 
BRANCH  30  31
ATOM     31  C   UNL     1     -15.779   7.464  -1.477  0.00  0.00    +0.000 C 
ATOM     32  C   UNL     1     -16.902   7.271  -0.504  0.00  0.00    +0.000 C 
BRANCH  31  34
ATOM     33  C   UNL     1     -15.195   9.877  -2.316  0.00  0.00    +0.000 C 
ATOM     34  C   UNL     1     -15.463   8.766  -1.942  0.00  0.00    +0.000 C 
BRANCH  33  38
ATOM     35  O   UNL     1     -13.733  14.449  -1.324  0.00  0.00    +0.000 OA
ATOM     36  C   UNL     1     -15.010  11.542  -4.260  0.00  0.00    +0.000 C 
ATOM     37  C   UNL     1     -14.630  12.939  -4.392  0.00  0.00    +0.000 C 
ATOM     38  C   UNL     1     -14.876  11.224  -2.749  0.00  0.00    +0.000 C 
ATOM     39  C   UNL     1     -14.210  13.978  -3.567  0.00  0.00    +0.000 C 
ATOM     40  C   UNL     1     -14.030  10.646  -5.055  0.00  0.00    +0.000 C 
ATOM     41  C   UNL     1     -16.477  11.345  -4.700  0.00  0.00    +0.000 C 
ATOM     42  C   UNL     1     -14.470  12.150  -1.831  0.00  0.00    +0.000 C 
ATOM     43  C   UNL     1     -14.099  13.610  -2.138  0.00  0.00    +0.000 C 
ATOM     44  C   UNL     1     -14.356  11.728  -0.360  0.00  0.00    +0.000 C 
BRANCH  39  45
ATOM     45  O   UNL     1     -13.921  15.231  -4.034  0.00  0.00    +0.000 OA
ATOM     46  H   UNL     1     -14.676  15.838  -3.890  0.00  0.00    +0.000 HD
ENDBRANCH  39  45
ENDBRANCH  33  38
ENDBRANCH  31  34
ENDBRANCH  30  31
ENDBRANCH  28  30
ENDBRANCH  26  29
ENDBRANCH  25  26
ENDBRANCH   1  25
TORSDOF 16
ENDMDL
MODEL 2
REMARK VINA RESULT:      -6.5      1.826      2.308
REMARK  Name = 5281224_Astaxanthin.pdbqt.pdb
REMARK  16 active torsions:
REMARK  status: ('A' for Active; 'I' for Inactive)
REMARK    1  A    between atoms: C_1  and  C_5
REMARK    2  A    between atoms: C_2  and  C_27
REMARK    3  A    between atoms: C_3  and  C_5
REMARK    4  A    between atoms: C_3  and  C_7
REMARK    5  A    between atoms: C_6  and  C_10
REMARK    6  A    between atoms: C_8  and  C_10
REMARK    7  A    between atoms: C_8  and  C_12
REMARK    8  A    between atoms: C_11  and  C_16
REMARK    9  A    between atoms: C_17  and  O_23
REMARK   10  A    between atoms: C_25  and  C_27
REMARK   11  A    between atoms: C_25  and  C_29
REMARK   12  A    between atoms: C_28  and  C_32
REMARK   13  A    between atoms: C_30  and  C_32
REMARK   14  A    between atoms: C_30  and  C_34
REMARK   15  A    between atoms: C_33  and  C_38
REMARK   16  A    between atoms: C_39  and  O_45
REMARK                            x       y       z     vdW  Elec       q    Type
REMARK                         _______ _______ _______ _____ _____    ______ ____
ROOT
ATOM      1  C   UNL     1     -10.212   3.912  -3.984  0.00  0.00    +0.000 C 
ATOM      2  C   UNL     1      -9.056   3.984  -4.298  0.00  0.00    +0.000 C 
ENDROOT
BRANCH   2   3
ATOM      3  C   UNL     1      -7.576   4.075  -4.691  0.00  0.00    +0.000 C 
BRANCH   3   4
ATOM      4  C   UNL     1      -6.325   4.146  -5.023  0.00  0.00    +0.000 C 
ATOM      5  C   UNL     1      -5.735   3.115  -5.938  0.00  0.00    +0.000 C 
BRANCH   4   7
ATOM      6  C   UNL     1      -4.795   5.994  -3.981  0.00  0.00    +0.000 C 
ATOM      7  C   UNL     1      -5.499   5.147  -4.459  0.00  0.00    +0.000 C 
BRANCH   6   8
ATOM      8  C   UNL     1      -3.893   7.075  -3.373  0.00  0.00    +0.000 C 
BRANCH   8   9
ATOM      9  C   UNL     1      -3.125   7.983  -2.856  0.00  0.00    +0.000 C 
ATOM     10  C   UNL     1      -3.106   9.365  -3.437  0.00  0.00    +0.000 C 
BRANCH   9  12
ATOM     11  C   UNL     1      -1.809   7.480  -0.648  0.00  0.00    +0.000 C 
ATOM     12  C   UNL     1      -2.424   7.711  -1.656  0.00  0.00    +0.000 C 
BRANCH  11  16
ATOM     13  O   UNL     1       2.186   8.086   2.125  0.00  0.00    +0.000 OA
ATOM     14  C   UNL     1      -1.693   6.249   1.602  0.00  0.00    +0.000 C 
ATOM     15  C   UNL     1      -0.725   6.160   2.681  0.00  0.00    +0.000 C 
ATOM     16  C   UNL     1      -1.053   7.200   0.557  0.00  0.00    +0.000 C 
ATOM     17  C   UNL     1       0.532   6.672   2.988  0.00  0.00    +0.000 C 
ATOM     18  C   UNL     1      -3.010   6.877   2.116  0.00  0.00    +0.000 C 
ATOM     19  C   UNL     1      -1.913   4.859   0.965  0.00  0.00    +0.000 C 
ATOM     20  C   UNL     1       0.173   7.775   0.735  0.00  0.00    +0.000 C 
ATOM     21  C   UNL     1       1.087   7.575   1.955  0.00  0.00    +0.000 C 
ATOM     22  C   UNL     1       0.710   8.715  -0.353  0.00  0.00    +0.000 C 
BRANCH  17  23
ATOM     23  O   UNL     1       1.198   6.375   4.146  0.00  0.00    +0.000 OA
ATOM     24  H   UNL     1       0.611   6.486   4.922  0.00  0.00    +0.000 HD
ENDBRANCH  17  23
ENDBRANCH  11  16
ENDBRANCH   9  12
ENDBRANCH   8   9
ENDBRANCH   6   8
ENDBRANCH   4   7
ENDBRANCH   3   4
ENDBRANCH   2   3
BRANCH   1  25
ATOM     25  C   UNL     1     -11.686   3.819  -3.573  0.00  0.00    +0.000 C 
BRANCH  25  26
ATOM     26  C   UNL     1     -12.931   3.738  -3.222  0.00  0.00    +0.000 C 
ATOM     27  C   UNL     1     -13.639   2.418  -3.286  0.00  0.00    +0.000 C 
BRANCH  26  29
ATOM     28  C   UNL     1     -14.247   5.899  -2.562  0.00  0.00    +0.000 C 
ATOM     29  C   UNL     1     -13.643   4.906  -2.864  0.00  0.00    +0.000 C 
BRANCH  28  30
ATOM     30  C   UNL     1     -15.018   7.169  -2.179  0.00  0.00    +0.000 C 
BRANCH  30  31
ATOM     31  C   UNL     1     -15.676   8.237  -1.855  0.00  0.00    +0.000 C 
ATOM     32  C   UNL     1     -16.654   8.199  -0.720  0.00  0.00    +0.000 C 
BRANCH  31  34
ATOM     33  C   UNL     1     -15.084  10.533  -2.971  0.00  0.00    +0.000 C 
ATOM     34  C   UNL     1     -15.355   9.474  -2.469  0.00  0.00    +0.000 C 
BRANCH  33  38
ATOM     35  O   UNL     1     -13.300  15.081  -2.582  0.00  0.00    +0.000 OA
ATOM     36  C   UNL     1     -15.073  12.017  -5.065  0.00  0.00    +0.000 C 
ATOM     37  C   UNL     1     -14.651  13.374  -5.367  0.00  0.00    +0.000 C 
ATOM     38  C   UNL     1     -14.762  11.819  -3.559  0.00  0.00    +0.000 C 
ATOM     39  C   UNL     1     -14.082  14.453  -4.697  0.00  0.00    +0.000 C 
ATOM     40  C   UNL     1     -14.245  11.005  -5.891  0.00  0.00    +0.000 C 
ATOM     41  C   UNL     1     -16.593  11.867  -5.300  0.00  0.00    +0.000 C 
ATOM     42  C   UNL     1     -14.200  12.793  -2.785  0.00  0.00    +0.000 C 
ATOM     43  C   UNL     1     -13.804  14.200  -3.266  0.00  0.00    +0.000 C 
ATOM     44  C   UNL     1     -13.917  12.490  -1.308  0.00  0.00    +0.000 C 
BRANCH  39  45
ATOM     45  O   UNL     1     -13.797  15.645  -5.306  0.00  0.00    +0.000 OA
ATOM     46  H   UNL     1     -13.135  16.149  -4.790  0.00  0.00    +0.000 HD
ENDBRANCH  39  45
ENDBRANCH  33  38
ENDBRANCH  31  34
ENDBRANCH  30  31
ENDBRANCH  28  30
ENDBRANCH  26  29
ENDBRANCH  25  26
ENDBRANCH   1  25
TORSDOF 16
ENDMDL
MODEL 3
REMARK VINA RESULT:      -6.4      7.961     11.439
REMARK  Name = 5281224_Astaxanthin.pdbqt.pdb
REMARK  16 active torsions:
REMARK  status: ('A' for Active; 'I' for Inactive)
REMARK    1  A    between atoms: C_1  and  C_5
REMARK    2  A    between atoms: C_2  and  C_27
REMARK    3  A    between atoms: C_3  and  C_5
REMARK    4  A    between atoms: C_3  and  C_7
REMARK    5  A    between atoms: C_6  and  C_10
REMARK    6  A    between atoms: C_8  and  C_10
REMARK    7  A    between atoms: C_8  and  C_12
REMARK    8  A    between atoms: C_11  and  C_16
REMARK    9  A    between atoms: C_17  and  O_23
REMARK   10  A    between atoms: C_25  and  C_27
REMARK   11  A    between atoms: C_25  and  C_29
REMARK   12  A    between atoms: C_28  and  C_32
REMARK   13  A    between atoms: C_30  and  C_32
REMARK   14  A    between atoms: C_30  and  C_34
REMARK   15  A    between atoms: C_33  and  C_38
REMARK   16  A    between atoms: C_39  and  O_45
REMARK                            x       y       z     vdW  Elec       q    Type
REMARK                         _______ _______ _______ _____ _____    ______ ____
ROOT
ATOM      1  C   UNL     1     -11.806  13.697  -4.731  0.00  0.00    +0.000 C 
ATOM      2  C   UNL     1     -10.786  14.331  -4.721  0.00  0.00    +0.000 C 
ENDROOT
BRANCH   2   3
ATOM      3  C   UNL     1      -9.488  15.148  -4.709  0.00  0.00    +0.000 C 
BRANCH   3   4
ATOM      4  C   UNL     1      -8.395  15.843  -4.697  0.00  0.00    +0.000 C 
ATOM      5  C   UNL     1      -7.406  15.701  -5.815  0.00  0.00    +0.000 C 
BRANCH   4   7
ATOM      6  C   UNL     1      -7.842  17.377  -2.651  0.00  0.00    +0.000 C 
ATOM      7  C   UNL     1      -8.097  16.674  -3.591  0.00  0.00    +0.000 C 
BRANCH   6   8
ATOM      8  C   UNL     1      -7.514  18.272  -1.451  0.00  0.00    +0.000 C 
BRANCH   8   9
ATOM      9  C   UNL     1      -7.233  19.023  -0.431  0.00  0.00    +0.000 C 
ATOM     10  C   UNL     1      -7.913  20.348  -0.269  0.00  0.00    +0.000 C 
BRANCH   9  12
ATOM     11  C   UNL     1      -5.685  18.117   1.478  0.00  0.00    +0.000 C 
ATOM     12  C   UNL     1      -6.403  18.523   0.602  0.00  0.00    +0.000 C 
BRANCH  11  16
ATOM     13  O   UNL     1      -3.336  14.469   3.758  0.00  0.00    +0.000 OA
ATOM     14  C   UNL     1      -4.237  18.692   3.519  0.00  0.00    +0.000 C 
ATOM     15  C   UNL     1      -3.410  17.936   4.444  0.00  0.00    +0.000 C 
ATOM     16  C   UNL     1      -4.809  17.642   2.531  0.00  0.00    +0.000 C 
ATOM     17  C   UNL     1      -3.033  16.613   4.649  0.00  0.00    +0.000 C 
ATOM     18  C   UNL     1      -3.372  19.705   2.734  0.00  0.00    +0.000 C 
ATOM     19  C   UNL     1      -5.400  19.372   4.276  0.00  0.00    +0.000 C 
ATOM     20  C   UNL     1      -4.515  16.311   2.617  0.00  0.00    +0.000 C 
ATOM     21  C   UNL     1      -3.607  15.660   3.673  0.00  0.00    +0.000 C 
ATOM     22  C   UNL     1      -5.121  15.355   1.580  0.00  0.00    +0.000 C 
BRANCH  17  23
ATOM     23  O   UNL     1      -2.198  16.222   5.662  0.00  0.00    +0.000 OA
ATOM     24  H   UNL     1      -1.710  16.989   6.024  0.00  0.00    +0.000 HD
ENDBRANCH  17  23
ENDBRANCH  11  16
ENDBRANCH   9  12
ENDBRANCH   8   9
ENDBRANCH   6   8
ENDBRANCH   4   7
ENDBRANCH   3   4
ENDBRANCH   2   3
BRANCH   1  25
ATOM     25  C   UNL     1     -13.113  12.897  -4.744  0.00  0.00    +0.000 C 
BRANCH  25  26
ATOM     26  C   UNL     1     -14.218  12.219  -4.760  0.00  0.00    +0.000 C 
ATOM     27  C   UNL     1     -15.227  12.462  -5.842  0.00  0.00    +0.000 C 
BRANCH  26  29
ATOM     28  C   UNL     1     -14.758  10.549  -2.822  0.00  0.00    +0.000 C 
ATOM     29  C   UNL     1     -14.508  11.315  -3.712  0.00  0.00    +0.000 C 
BRANCH  28  30
ATOM     30  C   UNL     1     -15.079   9.572  -1.683  0.00  0.00    +0.000 C 
BRANCH  30  31
ATOM     31  C   UNL     1     -15.353   8.741  -0.728  0.00  0.00    +0.000 C 
ATOM     32  C   UNL     1     -15.556   9.246   0.668  0.00  0.00    +0.000 C 
BRANCH  31  34
ATOM     33  C   UNL     1     -15.816   6.225  -1.295  0.00  0.00    +0.000 C 
ATOM     34  C   UNL     1     -15.615   7.381  -1.032  0.00  0.00    +0.000 C 
BRANCH  33  38
ATOM     35  O   UNL     1     -14.137   1.848  -2.726  0.00  0.00    +0.000 OA
ATOM     36  C   UNL     1     -17.490   4.291  -1.504  0.00  0.00    +0.000 C 
ATOM     37  C   UNL     1     -17.408   2.891  -1.884  0.00  0.00    +0.000 C 
ATOM     38  C   UNL     1     -16.041   4.830  -1.620  0.00  0.00    +0.000 C 
ATOM     39  C   UNL     1     -16.433   1.985  -2.293  0.00  0.00    +0.000 C 
ATOM     40  C   UNL     1     -17.961   4.418  -0.036  0.00  0.00    +0.000 C 
ATOM     41  C   UNL     1     -18.405   5.057  -2.485  0.00  0.00    +0.000 C 
ATOM     42  C   UNL     1     -14.990   4.048  -2.005  0.00  0.00    +0.000 C 
ATOM     43  C   UNL     1     -15.073   2.559  -2.380  0.00  0.00    +0.000 C 
ATOM     44  C   UNL     1     -13.591   4.676  -2.073  0.00  0.00    +0.000 C 
BRANCH  39  45
ATOM     45  O   UNL     1     -16.706   0.677  -2.585  0.00  0.00    +0.000 OA
ATOM     46  H   UNL     1     -17.520   0.604  -3.125  0.00  0.00    +0.000 HD
ENDBRANCH  39  45
ENDBRANCH  33  38
ENDBRANCH  31  34
ENDBRANCH  30  31
ENDBRANCH  28  30
ENDBRANCH  26  29
ENDBRANCH  25  26
ENDBRANCH   1  25
TORSDOF 16
ENDMDL
MODEL 4
REMARK VINA RESULT:      -6.3     15.163     19.867
REMARK  Name = 5281224_Astaxanthin.pdbqt.pdb
REMARK  16 active torsions:
REMARK  status: ('A' for Active; 'I' for Inactive)
REMARK    1  A    between atoms: C_1  and  C_5
REMARK    2  A    between atoms: C_2  and  C_27
REMARK    3  A    between atoms: C_3  and  C_5
REMARK    4  A    between atoms: C_3  and  C_7
REMARK    5  A    between atoms: C_6  and  C_10
REMARK    6  A    between atoms: C_8  and  C_10
REMARK    7  A    between atoms: C_8  and  C_12
REMARK    8  A    between atoms: C_11  and  C_16
REMARK    9  A    between atoms: C_17  and  O_23
REMARK   10  A    between atoms: C_25  and  C_27
REMARK   11  A    between atoms: C_25  and  C_29
REMARK   12  A    between atoms: C_28  and  C_32
REMARK   13  A    between atoms: C_30  and  C_32
REMARK   14  A    between atoms: C_30  and  C_34
REMARK   15  A    between atoms: C_33  and  C_38
REMARK   16  A    between atoms: C_39  and  O_45
REMARK                            x       y       z     vdW  Elec       q    Type
REMARK                         _______ _______ _______ _____ _____    ______ ____
ROOT
ATOM      1  C   UNL     1       0.023   9.092  14.060  0.00  0.00    +0.000 C 
ATOM      2  C   UNL     1       0.115  10.231  13.693  0.00  0.00    +0.000 C 
ENDROOT
BRANCH   2   3
ATOM      3  C   UNL     1       0.240  11.685  13.220  0.00  0.00    +0.000 C 
BRANCH   3   4
ATOM      4  C   UNL     1       0.343  12.915  12.826  0.00  0.00    +0.000 C 
ATOM      5  C   UNL     1       1.641  13.646  12.988  0.00  0.00    +0.000 C 
BRANCH   4   7
ATOM      6  C   UNL     1      -1.751  14.167  11.882  0.00  0.00    +0.000 C 
ATOM      7  C   UNL     1      -0.791  13.592  12.317  0.00  0.00    +0.000 C 
BRANCH   6   8
ATOM      8  C   UNL     1      -2.975  14.902  11.324  0.00  0.00    +0.000 C 
BRANCH   8   9
ATOM      9  C   UNL     1      -4.015  15.517  10.850  0.00  0.00    +0.000 C 
ATOM     10  C   UNL     1      -5.311  15.479  11.601  0.00  0.00    +0.000 C 
BRANCH   9  12
ATOM     11  C   UNL     1      -3.768  17.031   8.727  0.00  0.00    +0.000 C 
ATOM     12  C   UNL     1      -3.882  16.346   9.709  0.00  0.00    +0.000 C 
BRANCH  11  16
ATOM     13  O   UNL     1      -4.764  21.104   6.190  0.00  0.00    +0.000 OA
ATOM     14  C   UNL     1      -2.745  17.285   6.386  0.00  0.00    +0.000 C 
ATOM     15  C   UNL     1      -2.790  18.297   5.344  0.00  0.00    +0.000 C 
ATOM     16  C   UNL     1      -3.627  17.842   7.534  0.00  0.00    +0.000 C 
ATOM     17  C   UNL     1      -3.378  19.540   5.135  0.00  0.00    +0.000 C 
ATOM     18  C   UNL     1      -1.297  17.112   6.900  0.00  0.00    +0.000 C 
ATOM     19  C   UNL     1      -3.349  15.960   5.870  0.00  0.00    +0.000 C 
ATOM     20  C   UNL     1      -4.259  19.051   7.460  0.00  0.00    +0.000 C 
ATOM     21  C   UNL     1      -4.204  20.019   6.266  0.00  0.00    +0.000 C 
ATOM     22  C   UNL     1      -5.096  19.518   8.658  0.00  0.00    +0.000 C 
BRANCH  17  23
ATOM     23  O   UNL     1      -3.207  20.264   3.985  0.00  0.00    +0.000 OA
ATOM     24  H   UNL     1      -3.968  20.142   3.382  0.00  0.00    +0.000 HD
ENDBRANCH  17  23
ENDBRANCH  11  16
ENDBRANCH   9  12
ENDBRANCH   8   9
ENDBRANCH   6   8
ENDBRANCH   4   7
ENDBRANCH   3   4
ENDBRANCH   2   3
BRANCH   1  25
ATOM     25  C   UNL     1      -0.085   7.636  14.526  0.00  0.00    +0.000 C 
BRANCH  25  26
ATOM     26  C   UNL     1      -0.171   6.404  14.921  0.00  0.00    +0.000 C 
ATOM     27  C   UNL     1       1.076   5.626  15.215  0.00  0.00    +0.000 C 
BRANCH  26  29
ATOM     28  C   UNL     1      -2.504   5.230  15.052  0.00  0.00    +0.000 C 
ATOM     29  C   UNL     1      -1.433   5.770  14.990  0.00  0.00    +0.000 C 
BRANCH  28  30
ATOM     30  C   UNL     1      -3.871   4.537  15.133  0.00  0.00    +0.000 C 
BRANCH  30  31
ATOM     31  C   UNL     1      -5.022   3.945  15.198  0.00  0.00    +0.000 C 
ATOM     32  C   UNL     1      -5.187   2.568  14.630  0.00  0.00    +0.000 C 
BRANCH  31  34
ATOM     33  C   UNL     1      -6.964   5.019  16.590  0.00  0.00    +0.000 C 
ATOM     34  C   UNL     1      -6.074   4.534  15.942  0.00  0.00    +0.000 C 
BRANCH  33  38
ATOM     35  O   UNL     1      -8.573   8.267  19.889  0.00  0.00    +0.000 OA
ATOM     36  C   UNL     1      -9.451   4.979  17.221  0.00  0.00    +0.000 C 
ATOM     37  C   UNL     1     -10.300   5.739  18.123  0.00  0.00    +0.000 C 
ATOM     38  C   UNL     1      -8.036   5.589  17.384  0.00  0.00    +0.000 C 
ATOM     39  C   UNL     1     -10.171   6.794  19.023  0.00  0.00    +0.000 C 
ATOM     40  C   UNL     1      -9.920   5.170  15.759  0.00  0.00    +0.000 C 
ATOM     41  C   UNL     1      -9.423   3.493  17.642  0.00  0.00    +0.000 C 
ATOM     42  C   UNL     1      -7.770   6.629  18.228  0.00  0.00    +0.000 C 
ATOM     43  C   UNL     1      -8.798   7.334  19.129  0.00  0.00    +0.000 C 
ATOM     44  C   UNL     1      -6.336   7.170  18.303  0.00  0.00    +0.000 C 
BRANCH  39  45
ATOM     45  O   UNL     1     -11.221   7.292  19.744  0.00  0.00    +0.000 OA
ATOM     46  H   UNL     1     -12.053   7.238  19.229  0.00  0.00    +0.000 HD
ENDBRANCH  39  45
ENDBRANCH  33  38
ENDBRANCH  31  34
ENDBRANCH  30  31
ENDBRANCH  28  30
ENDBRANCH  26  29
ENDBRANCH  25  26
ENDBRANCH   1  25
TORSDOF 16
ENDMDL
MODEL 5
REMARK VINA RESULT:      -6.2      7.299     10.460
REMARK  Name = 5281224_Astaxanthin.pdbqt.pdb
REMARK  16 active torsions:
REMARK  status: ('A' for Active; 'I' for Inactive)
REMARK    1  A    between atoms: C_1  and  C_5
REMARK    2  A    between atoms: C_2  and  C_27
REMARK    3  A    between atoms: C_3  and  C_5
REMARK    4  A    between atoms: C_3  and  C_7
REMARK    5  A    between atoms: C_6  and  C_10
REMARK    6  A    between atoms: C_8  and  C_10
REMARK    7  A    between atoms: C_8  and  C_12
REMARK    8  A    between atoms: C_11  and  C_16
REMARK    9  A    between atoms: C_17  and  O_23
REMARK   10  A    between atoms: C_25  and  C_27
REMARK   11  A    between atoms: C_25  and  C_29
REMARK   12  A    between atoms: C_28  and  C_32
REMARK   13  A    between atoms: C_30  and  C_32
REMARK   14  A    between atoms: C_30  and  C_34
REMARK   15  A    between atoms: C_33  and  C_38
REMARK   16  A    between atoms: C_39  and  O_45
REMARK                            x       y       z     vdW  Elec       q    Type
REMARK                         _______ _______ _______ _____ _____    ______ ____
ROOT
ATOM      1  C   UNL     1     -11.835  13.843  -4.639  0.00  0.00    +0.000 C 
ATOM      2  C   UNL     1     -10.780  14.414  -4.673  0.00  0.00    +0.000 C 
ENDROOT
BRANCH   2   3
ATOM      3  C   UNL     1      -9.435  15.150  -4.719  0.00  0.00    +0.000 C 
BRANCH   3   4
ATOM      4  C   UNL     1      -8.303  15.778  -4.757  0.00  0.00    +0.000 C 
ATOM      5  C   UNL     1      -7.551  15.887  -6.050  0.00  0.00    +0.000 C 
BRANCH   4   7
ATOM      6  C   UNL     1      -7.255  16.723  -2.554  0.00  0.00    +0.000 C 
ATOM      7  C   UNL     1      -7.737  16.291  -3.565  0.00  0.00    +0.000 C 
BRANCH   6   8
ATOM      8  C   UNL     1      -6.636  17.273  -1.264  0.00  0.00    +0.000 C 
BRANCH   8   9
ATOM      9  C   UNL     1      -6.108  17.732  -0.171  0.00  0.00    +0.000 C 
ATOM     10  C   UNL     1      -6.729  18.906   0.524  0.00  0.00    +0.000 C 
BRANCH   9  12
ATOM     11  C   UNL     1      -4.133  16.450   0.978  0.00  0.00    +0.000 C 
ATOM     12  C   UNL     1      -5.041  17.030   0.442  0.00  0.00    +0.000 C 
BRANCH  11  16
ATOM     13  O   UNL     1      -0.333  13.358   0.837  0.00  0.00    +0.000 OA
ATOM     14  C   UNL     1      -2.814  16.046   3.143  0.00  0.00    +0.000 C 
ATOM     15  C   UNL     1      -1.667  15.237   3.517  0.00  0.00    +0.000 C 
ATOM     16  C   UNL     1      -3.036  15.766   1.634  0.00  0.00    +0.000 C 
ATOM     17  C   UNL     1      -0.789  14.345   2.911  0.00  0.00    +0.000 C 
ATOM     18  C   UNL     1      -2.495  17.548   3.336  0.00  0.00    +0.000 C 
ATOM     19  C   UNL     1      -4.062  15.603   3.937  0.00  0.00    +0.000 C 
ATOM     20  C   UNL     1      -2.244  14.915   0.916  0.00  0.00    +0.000 C 
ATOM     21  C   UNL     1      -1.050  14.122   1.471  0.00  0.00    +0.000 C 
ATOM     22  C   UNL     1      -2.539  14.718  -0.577  0.00  0.00    +0.000 C 
BRANCH  17  23
ATOM     23  O   UNL     1       0.233  13.730   3.582  0.00  0.00    +0.000 OA
ATOM     24  H   UNL     1      -0.115  13.164   4.301  0.00  0.00    +0.000 HD
ENDBRANCH  17  23
ENDBRANCH  11  16
ENDBRANCH   9  12
ENDBRANCH   8   9
ENDBRANCH   6   8
ENDBRANCH   4   7
ENDBRANCH   3   4
ENDBRANCH   2   3
BRANCH   1  25
ATOM     25  C   UNL     1     -13.188  13.123  -4.598  0.00  0.00    +0.000 C 
BRANCH  25  26
ATOM     26  C   UNL     1     -14.331  12.513  -4.569  0.00  0.00    +0.000 C 
ATOM     27  C   UNL     1     -15.402  12.886  -5.550  0.00  0.00    +0.000 C 
BRANCH  26  29
ATOM     28  C   UNL     1     -14.828  10.751  -2.701  0.00  0.00    +0.000 C 
ATOM     29  C   UNL     1     -14.599  11.559  -3.559  0.00  0.00    +0.000 C 
BRANCH  28  30
ATOM     30  C   UNL     1     -15.122   9.721  -1.603  0.00  0.00    +0.000 C 
BRANCH  30  31
ATOM     31  C   UNL     1     -15.377   8.847  -0.681  0.00  0.00    +0.000 C 
ATOM     32  C   UNL     1     -15.694   9.300   0.712  0.00  0.00    +0.000 C 
BRANCH  31  34
ATOM     33  C   UNL     1     -15.621   6.323  -1.341  0.00  0.00    +0.000 C 
ATOM     34  C   UNL     1     -15.510   7.479  -1.027  0.00  0.00    +0.000 C 
BRANCH  33  38
ATOM     35  O   UNL     1     -17.972   2.028  -1.122  0.00  0.00    +0.000 OA
ATOM     36  C   UNL     1     -14.712   4.369  -2.734  0.00  0.00    +0.000 C 
ATOM     37  C   UNL     1     -15.097   2.983  -2.943  0.00  0.00    +0.000 C 
ATOM     38  C   UNL     1     -15.757   4.935  -1.738  0.00  0.00    +0.000 C 
ATOM     39  C   UNL     1     -16.088   2.108  -2.509  0.00  0.00    +0.000 C 
ATOM     40  C   UNL     1     -14.804   5.154  -4.064  0.00  0.00    +0.000 C 
ATOM     41  C   UNL     1     -13.305   4.442  -2.102  0.00  0.00    +0.000 C 
ATOM     42  C   UNL     1     -16.783   4.187  -1.237  0.00  0.00    +0.000 C 
ATOM     43  C   UNL     1     -17.055   2.709  -1.564  0.00  0.00    +0.000 C 
ATOM     44  C   UNL     1     -17.772   4.848  -0.268  0.00  0.00    +0.000 C 
BRANCH  39  45
ATOM     45  O   UNL     1     -16.167   0.806  -2.921  0.00  0.00    +0.000 OA
ATOM     46  H   UNL     1     -16.657   0.264  -2.268  0.00  0.00    +0.000 HD
ENDBRANCH  39  45
ENDBRANCH  33  38
ENDBRANCH  31  34
ENDBRANCH  30  31
ENDBRANCH  28  30
ENDBRANCH  26  29
ENDBRANCH  25  26
ENDBRANCH   1  25
TORSDOF 16
ENDMDL
MODEL 6
REMARK VINA RESULT:      -6.0      4.325      6.774
REMARK  Name = 5281224_Astaxanthin.pdbqt.pdb
REMARK  16 active torsions:
REMARK  status: ('A' for Active; 'I' for Inactive)
REMARK    1  A    between atoms: C_1  and  C_5
REMARK    2  A    between atoms: C_2  and  C_27
REMARK    3  A    between atoms: C_3  and  C_5
REMARK    4  A    between atoms: C_3  and  C_7
REMARK    5  A    between atoms: C_6  and  C_10
REMARK    6  A    between atoms: C_8  and  C_10
REMARK    7  A    between atoms: C_8  and  C_12
REMARK    8  A    between atoms: C_11  and  C_16
REMARK    9  A    between atoms: C_17  and  O_23
REMARK   10  A    between atoms: C_25  and  C_27
REMARK   11  A    between atoms: C_25  and  C_29
REMARK   12  A    between atoms: C_28  and  C_32
REMARK   13  A    between atoms: C_30  and  C_32
REMARK   14  A    between atoms: C_30  and  C_34
REMARK   15  A    between atoms: C_33  and  C_38
REMARK   16  A    between atoms: C_39  and  O_45
REMARK                            x       y       z     vdW  Elec       q    Type
REMARK                         _______ _______ _______ _____ _____    ______ ____
ROOT
ATOM      1  C   UNL     1      -7.327  13.092  -3.785  0.00  0.00    +0.000 C 
ATOM      2  C   UNL     1      -6.424  12.876  -3.024  0.00  0.00    +0.000 C 
ENDROOT
BRANCH   2   3
ATOM      3  C   UNL     1      -5.273  12.592  -2.051  0.00  0.00    +0.000 C 
BRANCH   3   4
ATOM      4  C   UNL     1      -4.301  12.358  -1.226  0.00  0.00    +0.000 C 
ATOM      5  C   UNL     1      -3.949  13.371  -0.179  0.00  0.00    +0.000 C 
BRANCH   4   7
ATOM      6  C   UNL     1      -2.860  10.189  -1.480  0.00  0.00    +0.000 C 
ATOM      7  C   UNL     1      -3.523  11.183  -1.364  0.00  0.00    +0.000 C 
BRANCH   6   8
ATOM      8  C   UNL     1      -2.011   8.921  -1.626  0.00  0.00    +0.000 C 
BRANCH   8   9
ATOM      9  C   UNL     1      -1.299   7.844  -1.753  0.00  0.00    +0.000 C 
ATOM     10  C   UNL     1      -0.572   7.576  -3.036  0.00  0.00    +0.000 C 
BRANCH   9  12
ATOM     11  C   UNL     1      -0.890   6.300   0.323  0.00  0.00    +0.000 C 
ATOM     12  C   UNL     1      -1.089   7.004  -0.632  0.00  0.00    +0.000 C 
BRANCH  11  16
ATOM     13  O   UNL     1       2.139   3.518   2.989  0.00  0.00    +0.000 OA
ATOM     14  C   UNL     1      -1.803   5.215   2.462  0.00  0.00    +0.000 C 
ATOM     15  C   UNL     1      -1.259   4.351   3.496  0.00  0.00    +0.000 C 
ATOM     16  C   UNL     1      -0.633   5.457   1.474  0.00  0.00    +0.000 C 
ATOM     17  C   UNL     1      -0.048   3.735   3.796  0.00  0.00    +0.000 C 
ATOM     18  C   UNL     1      -2.237   6.569   3.072  0.00  0.00    +0.000 C 
ATOM     19  C   UNL     1      -2.960   4.504   1.726  0.00  0.00    +0.000 C 
ATOM     20  C   UNL     1       0.608   4.916   1.652  0.00  0.00    +0.000 C 
ATOM     21  C   UNL     1       1.030   4.007   2.818  0.00  0.00    +0.000 C 
ATOM     22  C   UNL     1       1.703   5.229   0.623  0.00  0.00    +0.000 C 
BRANCH  17  23
ATOM     23  O   UNL     1       0.137   2.950   4.902  0.00  0.00    +0.000 OA
ATOM     24  H   UNL     1       0.538   3.467   5.631  0.00  0.00    +0.000 HD
ENDBRANCH  17  23
ENDBRANCH  11  16
ENDBRANCH   9  12
ENDBRANCH   8   9
ENDBRANCH   6   8
ENDBRANCH   4   7
ENDBRANCH   3   4
ENDBRANCH   2   3
BRANCH   1  25
ATOM     25  C   UNL     1      -8.483  13.358  -4.755  0.00  0.00    +0.000 C 
BRANCH  25  26
ATOM     26  C   UNL     1      -9.458  13.586  -5.579  0.00  0.00    +0.000 C 
ATOM     27  C   UNL     1      -9.190  14.287  -6.877  0.00  0.00    +0.000 C 
BRANCH  26  29
ATOM     28  C   UNL     1     -11.909  12.967  -4.911  0.00  0.00    +0.000 C 
ATOM     29  C   UNL     1     -10.783  13.252  -5.216  0.00  0.00    +0.000 C 
BRANCH  28  30
ATOM     30  C   UNL     1     -13.348  12.602  -4.524  0.00  0.00    +0.000 C 
BRANCH  30  31
ATOM     31  C   UNL     1     -14.565  12.302  -4.196  0.00  0.00    +0.000 C 
ATOM     32  C   UNL     1     -15.678  13.262  -4.490  0.00  0.00    +0.000 C 
BRANCH  31  34
ATOM     33  C   UNL     1     -15.095   9.903  -3.285  0.00  0.00    +0.000 C 
ATOM     34  C   UNL     1     -14.863  11.005  -3.707  0.00  0.00    +0.000 C 
BRANCH  33  38
ATOM     35  O   UNL     1     -14.948   5.030  -3.796  0.00  0.00    +0.000 OA
ATOM     36  C   UNL     1     -16.000   8.453  -1.371  0.00  0.00    +0.000 C 
ATOM     37  C   UNL     1     -16.137   7.026  -1.132  0.00  0.00    +0.000 C 
ATOM     38  C   UNL     1     -15.355   8.570  -2.776  0.00  0.00    +0.000 C 
ATOM     39  C   UNL     1     -15.857   5.835  -1.795  0.00  0.00    +0.000 C 
ATOM     40  C   UNL     1     -15.049   9.079  -0.324  0.00  0.00    +0.000 C 
ATOM     41  C   UNL     1     -17.389   9.127  -1.384  0.00  0.00    +0.000 C 
ATOM     42  C   UNL     1     -15.025   7.482  -3.532  0.00  0.00    +0.000 C 
ATOM     43  C   UNL     1     -15.239   6.014  -3.127  0.00  0.00    +0.000 C 
ATOM     44  C   UNL     1     -14.376   7.707  -4.904  0.00  0.00    +0.000 C 
BRANCH  39  45
ATOM     45  O   UNL     1     -16.124   4.603  -1.262  0.00  0.00    +0.000 OA
ATOM     46  H   UNL     1     -15.329   4.031  -1.296  0.00  0.00    +0.000 HD
ENDBRANCH  39  45
ENDBRANCH  33  38
ENDBRANCH  31  34
ENDBRANCH  30  31
ENDBRANCH  28  30
ENDBRANCH  26  29
ENDBRANCH  25  26
ENDBRANCH   1  25
TORSDOF 16
ENDMDL
MODEL 7
REMARK VINA RESULT:      -6.0     17.565     21.092
REMARK  Name = 5281224_Astaxanthin.pdbqt.pdb
REMARK  16 active torsions:
REMARK  status: ('A' for Active; 'I' for Inactive)
REMARK    1  A    between atoms: C_1  and  C_5
REMARK    2  A    between atoms: C_2  and  C_27
REMARK    3  A    between atoms: C_3  and  C_5
REMARK    4  A    between atoms: C_3  and  C_7
REMARK    5  A    between atoms: C_6  and  C_10
REMARK    6  A    between atoms: C_8  and  C_10
REMARK    7  A    between atoms: C_8  and  C_12
REMARK    8  A    between atoms: C_11  and  C_16
REMARK    9  A    between atoms: C_17  and  O_23
REMARK   10  A    between atoms: C_25  and  C_27
REMARK   11  A    between atoms: C_25  and  C_29
REMARK   12  A    between atoms: C_28  and  C_32
REMARK   13  A    between atoms: C_30  and  C_32
REMARK   14  A    between atoms: C_30  and  C_34
REMARK   15  A    between atoms: C_33  and  C_38
REMARK   16  A    between atoms: C_39  and  O_45
REMARK                            x       y       z     vdW  Elec       q    Type
REMARK                         _______ _______ _______ _____ _____    ______ ____
ROOT
ATOM      1  C   UNL     1      -0.057   8.695  14.222  0.00  0.00    +0.000 C 
ATOM      2  C   UNL     1       0.055   9.868  13.993  0.00  0.00    +0.000 C 
ENDROOT
BRANCH   2   3
ATOM      3  C   UNL     1       0.205  11.366  13.699  0.00  0.00    +0.000 C 
BRANCH   3   4
ATOM      4  C   UNL     1       0.331  12.632  13.456  0.00  0.00    +0.000 C 
ATOM      5  C   UNL     1       1.690  13.265  13.470  0.00  0.00    +0.000 C 
BRANCH   4   7
ATOM      6  C   UNL     1      -1.794  14.113  13.086  0.00  0.00    +0.000 C 
ATOM      7  C   UNL     1      -0.820  13.432  13.257  0.00  0.00    +0.000 C 
BRANCH   6   8
ATOM      8  C   UNL     1      -3.037  14.982  12.864  0.00  0.00    +0.000 C 
BRANCH   8   9
ATOM      9  C   UNL     1      -4.093  15.712  12.679  0.00  0.00    +0.000 C 
ATOM     10  C   UNL     1      -4.392  16.262  11.317  0.00  0.00    +0.000 C 
BRANCH   9  12
ATOM     11  C   UNL     1      -5.850  15.967  14.605  0.00  0.00    +0.000 C 
ATOM     12  C   UNL     1      -5.037  15.860  13.724  0.00  0.00    +0.000 C 
BRANCH  11  16
ATOM     13  O   UNL     1      -9.248  18.556  17.007  0.00  0.00    +0.000 OA
ATOM     14  C   UNL     1      -7.056  14.854  16.579  0.00  0.00    +0.000 C 
ATOM     15  C   UNL     1      -8.086  15.258  17.520  0.00  0.00    +0.000 C 
ATOM     16  C   UNL     1      -6.839  16.083  15.659  0.00  0.00    +0.000 C 
ATOM     17  C   UNL     1      -8.864  16.381  17.782  0.00  0.00    +0.000 C 
ATOM     18  C   UNL     1      -7.551  13.664  15.723  0.00  0.00    +0.000 C 
ATOM     19  C   UNL     1      -5.744  14.534  17.328  0.00  0.00    +0.000 C 
ATOM     20  C   UNL     1      -7.539  17.247  15.804  0.00  0.00    +0.000 C 
ATOM     21  C   UNL     1      -8.614  17.519  16.869  0.00  0.00    +0.000 C 
ATOM     22  C   UNL     1      -7.259  18.400  14.830  0.00  0.00    +0.000 C 
BRANCH  17  23
ATOM     23  O   UNL     1      -9.787  16.432  18.792  0.00  0.00    +0.000 OA
ATOM     24  H   UNL     1      -9.693  15.661  19.387  0.00  0.00    +0.000 HD
ENDBRANCH  17  23
ENDBRANCH  11  16
ENDBRANCH   9  12
ENDBRANCH   8   9
ENDBRANCH   6   8
ENDBRANCH   4   7
ENDBRANCH   3   4
ENDBRANCH   2   3
BRANCH   1  25
ATOM     25  C   UNL     1      -0.189   7.196  14.512  0.00  0.00    +0.000 C 
BRANCH  25  26
ATOM     26  C   UNL     1      -0.296   5.928  14.757  0.00  0.00    +0.000 C 
ATOM     27  C   UNL     1       0.936   5.076  14.838  0.00  0.00    +0.000 C 
BRANCH  26  29
ATOM     28  C   UNL     1      -2.660   4.826  14.955  0.00  0.00    +0.000 C 
ATOM     29  C   UNL     1      -1.575   5.332  14.863  0.00  0.00    +0.000 C 
BRANCH  28  30
ATOM     30  C   UNL     1      -4.044   4.176  15.074  0.00  0.00    +0.000 C 
BRANCH  30  31
ATOM     31  C   UNL     1      -5.210   3.620  15.177  0.00  0.00    +0.000 C 
ATOM     32  C   UNL     1      -5.428   2.235  14.648  0.00  0.00    +0.000 C 
BRANCH  31  34
ATOM     33  C   UNL     1      -7.082   4.796  16.583  0.00  0.00    +0.000 C 
ATOM     34  C   UNL     1      -6.229   4.257  15.928  0.00  0.00    +0.000 C 
BRANCH  33  38
ATOM     35  O   UNL     1      -8.440   8.237  19.799  0.00  0.00    +0.000 OA
ATOM     36  C   UNL     1      -9.545   4.884  17.301  0.00  0.00    +0.000 C 
ATOM     37  C   UNL     1     -10.330   5.714  18.199  0.00  0.00    +0.000 C 
ATOM     38  C   UNL     1      -8.101   5.442  17.389  0.00  0.00    +0.000 C 
ATOM     39  C   UNL     1     -10.126   6.797  19.050  0.00  0.00    +0.000 C 
ATOM     40  C   UNL     1     -10.058   5.036  15.850  0.00  0.00    +0.000 C 
ATOM     41  C   UNL     1      -9.560   3.416  17.781  0.00  0.00    +0.000 C 
ATOM     42  C   UNL     1      -7.764   6.502  18.181  0.00  0.00    +0.000 C 
ATOM     43  C   UNL     1      -8.730   7.284  19.086  0.00  0.00    +0.000 C 
ATOM     44  C   UNL     1      -6.308   6.986  18.184  0.00  0.00    +0.000 C 
BRANCH  39  45
ATOM     45  O   UNL     1     -11.129   7.367  19.786  0.00  0.00    +0.000 OA
ATOM     46  H   UNL     1     -11.839   7.705  19.201  0.00  0.00    +0.000 HD
ENDBRANCH  39  45
ENDBRANCH  33  38
ENDBRANCH  31  34
ENDBRANCH  30  31
ENDBRANCH  28  30
ENDBRANCH  26  29
ENDBRANCH  25  26
ENDBRANCH   1  25
TORSDOF 16
ENDMDL
MODEL 8
REMARK VINA RESULT:      -5.9     17.591     19.911
REMARK  Name = 5281224_Astaxanthin.pdbqt.pdb
REMARK  16 active torsions:
REMARK  status: ('A' for Active; 'I' for Inactive)
REMARK    1  A    between atoms: C_1  and  C_5
REMARK    2  A    between atoms: C_2  and  C_27
REMARK    3  A    between atoms: C_3  and  C_5
REMARK    4  A    between atoms: C_3  and  C_7
REMARK    5  A    between atoms: C_6  and  C_10
REMARK    6  A    between atoms: C_8  and  C_10
REMARK    7  A    between atoms: C_8  and  C_12
REMARK    8  A    between atoms: C_11  and  C_16
REMARK    9  A    between atoms: C_17  and  O_23
REMARK   10  A    between atoms: C_25  and  C_27
REMARK   11  A    between atoms: C_25  and  C_29
REMARK   12  A    between atoms: C_28  and  C_32
REMARK   13  A    between atoms: C_30  and  C_32
REMARK   14  A    between atoms: C_30  and  C_34
REMARK   15  A    between atoms: C_33  and  C_38
REMARK   16  A    between atoms: C_39  and  O_45
REMARK                            x       y       z     vdW  Elec       q    Type
REMARK                         _______ _______ _______ _____ _____    ______ ____
ROOT
ATOM      1  C   UNL     1       0.233  11.721  13.100  0.00  0.00    +0.000 C 
ATOM      2  C   UNL     1       0.403  10.650  13.614  0.00  0.00    +0.000 C 
ENDROOT
BRANCH   2   3
ATOM      3  C   UNL     1       0.622   9.285  14.278  0.00  0.00    +0.000 C 
BRANCH   3   4
ATOM      4  C   UNL     1       0.813   8.133  14.839  0.00  0.00    +0.000 C 
ATOM      5  C   UNL     1       2.197   7.713  15.232  0.00  0.00    +0.000 C 
BRANCH   4   7
ATOM      6  C   UNL     1      -1.193   6.482  15.146  0.00  0.00    +0.000 C 
ATOM      7  C   UNL     1      -0.272   7.240  15.008  0.00  0.00    +0.000 C 
BRANCH   6   8
ATOM      8  C   UNL     1      -2.368   5.513  15.320  0.00  0.00    +0.000 C 
BRANCH   8   9
ATOM      9  C   UNL     1      -3.366   4.698  15.473  0.00  0.00    +0.000 C 
ATOM     10  C   UNL     1      -3.144   3.219  15.380  0.00  0.00    +0.000 C 
BRANCH   9  12
ATOM     11  C   UNL     1      -5.708   5.606  16.217  0.00  0.00    +0.000 C 
ATOM     12  C   UNL     1      -4.628   5.200  15.877  0.00  0.00    +0.000 C 
BRANCH  11  16
ATOM     13  O   UNL     1     -10.558   4.987  16.556  0.00  0.00    +0.000 OA
ATOM     14  C   UNL     1      -7.096   7.463  17.319  0.00  0.00    +0.000 C 
ATOM     15  C   UNL     1      -8.506   7.667  17.605  0.00  0.00    +0.000 C 
ATOM     16  C   UNL     1      -7.017   6.080  16.623  0.00  0.00    +0.000 C 
ATOM     17  C   UNL     1      -9.706   6.987  17.425  0.00  0.00    +0.000 C 
ATOM     18  C   UNL     1      -6.286   7.414  18.635  0.00  0.00    +0.000 C 
ATOM     19  C   UNL     1      -6.584   8.555  16.353  0.00  0.00    +0.000 C 
ATOM     20  C   UNL     1      -8.118   5.307  16.389  0.00  0.00    +0.000 C 
ATOM     21  C   UNL     1      -9.565   5.673  16.760  0.00  0.00    +0.000 C 
ATOM     22  C   UNL     1      -7.929   3.945  15.707  0.00  0.00    +0.000 C 
BRANCH  17  23
ATOM     23  O   UNL     1     -10.915   7.484  17.833  0.00  0.00    +0.000 OA
ATOM     24  H   UNL     1     -10.803   8.085  18.597  0.00  0.00    +0.000 HD
ENDBRANCH  17  23
ENDBRANCH  11  16
ENDBRANCH   9  12
ENDBRANCH   8   9
ENDBRANCH   6   8
ENDBRANCH   4   7
ENDBRANCH   3   4
ENDBRANCH   2   3
BRANCH   1  25
ATOM     25  C   UNL     1       0.015  13.094  12.453  0.00  0.00    +0.000 C 
BRANCH  25  26
ATOM     26  C   UNL     1      -0.173  14.254  11.906  0.00  0.00    +0.000 C 
ATOM     27  C   UNL     1       0.982  14.988  11.293  0.00  0.00    +0.000 C 
BRANCH  26  29
ATOM     28  C   UNL     1      -2.530  15.383  12.010  0.00  0.00    +0.000 C 
ATOM     29  C   UNL     1      -1.448  14.865  11.964  0.00  0.00    +0.000 C 
BRANCH  28  30
ATOM     30  C   UNL     1      -3.912  16.047  12.066  0.00  0.00    +0.000 C 
BRANCH  30  31
ATOM     31  C   UNL     1      -5.083  16.600  12.118  0.00  0.00    +0.000 C 
ATOM     32  C   UNL     1      -5.735  17.091  10.861  0.00  0.00    +0.000 C 
BRANCH  31  34
ATOM     33  C   UNL     1      -6.415  16.577  14.374  0.00  0.00    +0.000 C 
ATOM     34  C   UNL     1      -5.808  16.598  13.336  0.00  0.00    +0.000 C 
BRANCH  33  38
ATOM     35  O   UNL     1      -8.298  14.058  18.133  0.00  0.00    +0.000 OA
ATOM     36  C   UNL     1      -7.640  17.878  16.216  0.00  0.00    +0.000 C 
ATOM     37  C   UNL     1      -8.319  17.526  17.452  0.00  0.00    +0.000 C 
ATOM     38  C   UNL     1      -7.141  16.533  15.629  0.00  0.00    +0.000 C 
ATOM     39  C   UNL     1      -8.608  16.377  18.182  0.00  0.00    +0.000 C 
ATOM     40  C   UNL     1      -6.422  18.783  16.515  0.00  0.00    +0.000 C 
ATOM     41  C   UNL     1      -8.633  18.533  15.231  0.00  0.00    +0.000 C 
ATOM     42  C   UNL     1      -7.353  15.332  16.244  0.00  0.00    +0.000 C 
ATOM     43  C   UNL     1      -8.102  15.128  17.572  0.00  0.00    +0.000 C 
ATOM     44  C   UNL     1      -6.803  14.060  15.587  0.00  0.00    +0.000 C 
BRANCH  39  45
ATOM     45  O   UNL     1      -9.297  16.398  19.364  0.00  0.00    +0.000 OA
ATOM     46  H   UNL     1     -10.073  15.801  19.323  0.00  0.00    +0.000 HD
ENDBRANCH  39  45
ENDBRANCH  33  38
ENDBRANCH  31  34
ENDBRANCH  30  31
ENDBRANCH  28  30
ENDBRANCH  26  29
ENDBRANCH  25  26
ENDBRANCH   1  25
TORSDOF 16
ENDMDL
MODEL 9
REMARK VINA RESULT:      -5.8     13.339     18.382
REMARK  Name = 5281224_Astaxanthin.pdbqt.pdb
REMARK  16 active torsions:
REMARK  status: ('A' for Active; 'I' for Inactive)
REMARK    1  A    between atoms: C_1  and  C_5
REMARK    2  A    between atoms: C_2  and  C_27
REMARK    3  A    between atoms: C_3  and  C_5
REMARK    4  A    between atoms: C_3  and  C_7
REMARK    5  A    between atoms: C_6  and  C_10
REMARK    6  A    between atoms: C_8  and  C_10
REMARK    7  A    between atoms: C_8  and  C_12
REMARK    8  A    between atoms: C_11  and  C_16
REMARK    9  A    between atoms: C_17  and  O_23
REMARK   10  A    between atoms: C_25  and  C_27
REMARK   11  A    between atoms: C_25  and  C_29
REMARK   12  A    between atoms: C_28  and  C_32
REMARK   13  A    between atoms: C_30  and  C_32
REMARK   14  A    between atoms: C_30  and  C_34
REMARK   15  A    between atoms: C_33  and  C_38
REMARK   16  A    between atoms: C_39  and  O_45
REMARK                            x       y       z     vdW  Elec       q    Type
REMARK                         _______ _______ _______ _____ _____    ______ ____
ROOT
ATOM      1  C   UNL     1       0.402  12.426  12.968  0.00  0.00    +0.000 C 
ATOM      2  C   UNL     1       0.336  11.328  13.448  0.00  0.00    +0.000 C 
ENDROOT
BRANCH   2   3
ATOM      3  C   UNL     1       0.259   9.926  14.067  0.00  0.00    +0.000 C 
BRANCH   3   4
ATOM      4  C   UNL     1       0.200   8.742  14.590  0.00  0.00    +0.000 C 
ATOM      5  C   UNL     1       1.099   7.655  14.083  0.00  0.00    +0.000 C 
BRANCH   4   7
ATOM      6  C   UNL     1      -1.587   8.207  16.424  0.00  0.00    +0.000 C 
ATOM      7  C   UNL     1      -0.766   8.455  15.583  0.00  0.00    +0.000 C 
BRANCH   6   8
ATOM      8  C   UNL     1      -2.633   7.887  17.498  0.00  0.00    +0.000 C 
BRANCH   8   9
ATOM      9  C   UNL     1      -3.524   7.613  18.400  0.00  0.00    +0.000 C 
ATOM     10  C   UNL     1      -3.283   7.998  19.829  0.00  0.00    +0.000 C 
BRANCH   9  12
ATOM     11  C   UNL     1      -5.858   6.653  17.699  0.00  0.00    +0.000 C 
ATOM     12  C   UNL     1      -4.781   7.090  18.011  0.00  0.00    +0.000 C 
BRANCH  11  16
ATOM     13  O   UNL     1     -10.741   7.063  17.588  0.00  0.00    +0.000 OA
ATOM     14  C   UNL     1      -7.212   4.763  16.612  0.00  0.00    +0.000 C 
ATOM     15  C   UNL     1      -8.623   4.503  16.383  0.00  0.00    +0.000 C 
ATOM     16  C   UNL     1      -7.162   6.132  17.339  0.00  0.00    +0.000 C 
ATOM     17  C   UNL     1      -9.842   5.125  16.632  0.00  0.00    +0.000 C 
ATOM     18  C   UNL     1      -6.464   4.879  15.263  0.00  0.00    +0.000 C 
ATOM     19  C   UNL     1      -6.610   3.673  17.527  0.00  0.00    +0.000 C 
ATOM     20  C   UNL     1      -8.284   6.849  17.641  0.00  0.00    +0.000 C 
ATOM     21  C   UNL     1      -9.729   6.428  17.324  0.00  0.00    +0.000 C 
ATOM     22  C   UNL     1      -8.125   8.202  18.348  0.00  0.00    +0.000 C 
BRANCH  17  23
ATOM     23  O   UNL     1     -11.046   4.584  16.265  0.00  0.00    +0.000 OA
ATOM     24  H   UNL     1     -11.576   4.352  17.054  0.00  0.00    +0.000 HD
ENDBRANCH  17  23
ENDBRANCH  11  16
ENDBRANCH   9  12
ENDBRANCH   8   9
ENDBRANCH   6   8
ENDBRANCH   4   7
ENDBRANCH   3   4
ENDBRANCH   2   3
BRANCH   1  25
ATOM     25  C   UNL     1       0.496  13.830  12.359  0.00  0.00    +0.000 C 
BRANCH  25  26
ATOM     26  C   UNL     1       0.578  15.018  11.848  0.00  0.00    +0.000 C 
ATOM     27  C   UNL     1       1.757  15.888  12.167  0.00  0.00    +0.000 C 
BRANCH  26  29
ATOM     28  C   UNL     1      -1.386  15.954  10.397  0.00  0.00    +0.000 C 
ATOM     29  C   UNL     1      -0.483  15.525  11.063  0.00  0.00    +0.000 C 
BRANCH  28  30
ATOM     30  C   UNL     1      -2.541  16.500   9.547  0.00  0.00    +0.000 C 
BRANCH  30  31
ATOM     31  C   UNL     1      -3.523  16.956   8.835  0.00  0.00    +0.000 C 
ATOM     32  C   UNL     1      -4.673  17.649   9.502  0.00  0.00    +0.000 C 
BRANCH  31  34
ATOM     33  C   UNL     1      -3.370  16.913   6.220  0.00  0.00    +0.000 C 
ATOM     34  C   UNL     1      -3.432  16.941   7.421  0.00  0.00    +0.000 C 
BRANCH  33  38
ATOM     35  O   UNL     1      -2.893  14.384   2.049  0.00  0.00    +0.000 OA
ATOM     36  C   UNL     1      -3.450  18.202   4.002  0.00  0.00    +0.000 C 
ATOM     37  C   UNL     1      -3.350  17.846   2.596  0.00  0.00    +0.000 C 
ATOM     38  C   UNL     1      -3.308  16.864   4.772  0.00  0.00    +0.000 C 
ATOM     39  C   UNL     1      -3.174  16.698   1.831  0.00  0.00    +0.000 C 
ATOM     40  C   UNL     1      -4.841  18.812   4.300  0.00  0.00    +0.000 C 
ATOM     41  C   UNL     1      -2.295  19.149   4.395  0.00  0.00    +0.000 C 
ATOM     42  C   UNL     1      -3.134  15.664   4.144  0.00  0.00    +0.000 C 
ATOM     43  C   UNL     1      -3.048  15.455   2.623  0.00  0.00    +0.000 C 
ATOM     44  C   UNL     1      -3.019  14.395   4.999  0.00  0.00    +0.000 C 
BRANCH  39  45
ATOM     45  O   UNL     1      -3.124  16.712   0.463  0.00  0.00    +0.000 OA
ATOM     46  H   UNL     1      -2.197  16.765   0.151  0.00  0.00    +0.000 HD
ENDBRANCH  39  45
ENDBRANCH  33  38
ENDBRANCH  31  34
ENDBRANCH  30  31
ENDBRANCH  28  30
ENDBRANCH  26  29
ENDBRANCH  25  26
ENDBRANCH   1  25
TORSDOF 16
ENDMDL
