REMARK  Name = 5281698_sexangularetin.pdbqt.pdb
REMARK  6 active torsions:
REMARK  status: ('A' for Active; 'I' for Inactive)
REMARK    1  A    between atoms: C_5  and  C_12
REMARK    2  A    between atoms: C_6  and  O_20
REMARK    3  A    between atoms: C_8  and  O_22
REMARK    4  A    between atoms: C_9  and  O_24
REMARK    5  A    between atoms: C_10  and  O_26
REMARK    6  A    between atoms: C_17  and  O_18
REMARK                            x       y       z     vdW  Elec       q    Type
REMARK                         _______ _______ _______ _____ _____    ______ ____
ROOT
ATOM      1  O   UNL     1       0.016   0.511  -0.182  0.00  0.00    +0.000 OA
ATOM      2  O   UNL     1      -1.573  -3.175   0.369  0.00  0.00    +0.000 OA
ATOM      3  C   UNL     1      -1.957  -0.873   0.062  0.00  0.00    +0.000 A 
ATOM      4  C   UNL     1      -1.347   0.368  -0.114  0.00  0.00    +0.000 A 
ATOM      5  C   UNL     1       0.835  -0.600  -0.014  0.00  0.00    +0.000 A 
ATOM      6  C   UNL     1      -2.142   1.515  -0.248  0.00  0.00    +0.000 A 
ATOM      7  C   UNL     1      -1.101  -2.051   0.214  0.00  0.00    +0.000 A 
ATOM      8  C   UNL     1       0.364  -1.848   0.169  0.00  0.00    +0.000 A 
ATOM      9  C   UNL     1      -3.352  -0.980   0.081  0.00  0.00    +0.000 A 
ATOM     10  C   UNL     1      -3.536   1.393  -0.268  0.00  0.00    +0.000 A 
ATOM     11  C   UNL     1      -4.142   0.152  -0.092  0.00  0.00    +0.000 A 
ENDROOT
BRANCH   5  12
ATOM     12  C   UNL     1       2.273  -0.268  -0.078  0.00  0.00    +0.000 A 
ATOM     13  C   UNL     1       2.696   0.839  -0.824  0.00  0.00    +0.000 A 
ATOM     14  C   UNL     1       3.233  -0.986   0.642  0.00  0.00    +0.000 A 
ATOM     15  C   UNL     1       4.039   1.206  -0.871  0.00  0.00    +0.000 A 
ATOM     16  C   UNL     1       4.580  -0.631   0.602  0.00  0.00    +0.000 A 
ATOM     17  C   UNL     1       4.972   0.465  -0.156  0.00  0.00    +0.000 A 
BRANCH  17  18
ATOM     18  O   UNL     1       6.295   0.798  -0.181  0.00  0.00    +0.000 OA
ATOM     19  H   UNL     1       6.398   1.589  -0.739  0.00  0.00    +0.000 HD
ENDBRANCH  17  18
ENDBRANCH   5  12
BRANCH   6  20
ATOM     20  O   UNL     1      -1.581   2.752  -0.454  0.00  0.00    +0.000 OA
ATOM     21  C   UNL     1      -1.118   3.307   0.755  0.00  0.00    +0.000 C 
ENDBRANCH   6  20
BRANCH   8  22
ATOM     22  O   UNL     1       1.157  -2.972   0.299  0.00  0.00    +0.000 OA
ATOM     23  H   UNL     1       0.537  -3.722   0.419  0.00  0.00    +0.000 HD
ENDBRANCH   8  22
BRANCH   9  24
ATOM     24  O   UNL     1      -4.011  -2.167   0.247  0.00  0.00    +0.000 OA
ATOM     25  H   UNL     1      -3.349  -2.887   0.355  0.00  0.00    +0.000 HD
ENDBRANCH   9  24
BRANCH  10  26
ATOM     26  O   UNL     1      -4.313   2.497  -0.479  0.00  0.00    +0.000 OA
ATOM     27  H   UNL     1      -5.250   2.240  -0.393  0.00  0.00    +0.000 HD
ENDBRANCH  10  26
TORSDOF 6
