MODEL 1
REMARK VINA RESULT:      -5.5      0.000      0.000
REMARK  Name = 5281698_sexangularetin.pdbqt.pdb
REMARK  6 active torsions:
REMARK  status: ('A' for Active; 'I' for Inactive)
REMARK    1  A    between atoms: C_5  and  C_12
REMARK    2  A    between atoms: C_6  and  O_20
REMARK    3  A    between atoms: C_8  and  O_22
REMARK    4  A    between atoms: C_9  and  O_24
REMARK    5  A    between atoms: C_10  and  O_26
REMARK    6  A    between atoms: C_17  and  O_18
REMARK                            x       y       z     vdW  Elec       q    Type
REMARK                         _______ _______ _______ _____ _____    ______ ____
ROOT
ATOM      1  O   UNL     1     -24.444   6.714  15.670  0.00  0.00    +0.000 OA
ATOM      2  O   UNL     1     -20.802   5.215  16.622  0.00  0.00    +0.000 OA
ATOM      3  C   UNL     1     -22.292   7.034  16.737  0.00  0.00    +0.000 A 
ATOM      4  C   UNL     1     -23.556   7.493  16.368  0.00  0.00    +0.000 A 
ATOM      5  C   UNL     1     -24.067   5.441  15.257  0.00  0.00    +0.000 A 
ATOM      6  C   UNL     1     -23.953   8.787  16.734  0.00  0.00    +0.000 A 
ATOM      7  C   UNL     1     -21.899   5.684  16.327  0.00  0.00    +0.000 A 
ATOM      8  C   UNL     1     -22.873   4.890  15.546  0.00  0.00    +0.000 A 
ATOM      9  C   UNL     1     -21.435   7.845  17.487  0.00  0.00    +0.000 A 
ATOM     10  C   UNL     1     -23.105   9.576  17.518  0.00  0.00    +0.000 A 
ATOM     11  C   UNL     1     -21.844   9.114  17.885  0.00  0.00    +0.000 A 
ENDROOT
BRANCH   5  12
ATOM     12  C   UNL     1     -25.123   4.752  14.487  0.00  0.00    +0.000 A 
ATOM     13  C   UNL     1     -25.340   5.096  13.148  0.00  0.00    +0.000 A 
ATOM     14  C   UNL     1     -25.877   3.708  15.032  0.00  0.00    +0.000 A 
ATOM     15  C   UNL     1     -26.298   4.437  12.380  0.00  0.00    +0.000 A 
ATOM     16  C   UNL     1     -26.839   3.041  14.276  0.00  0.00    +0.000 A 
ATOM     17  C   UNL     1     -27.042   3.413  12.953  0.00  0.00    +0.000 A 
BRANCH  17  18
ATOM     18  O   UNL     1     -27.987   2.747  12.228  0.00  0.00    +0.000 OA
ATOM     19  H   UNL     1     -28.706   2.491  12.832  0.00  0.00    +0.000 HD
ENDBRANCH  17  18
ENDBRANCH   5  12
BRANCH   6  20
ATOM     20  O   UNL     1     -25.201   9.266  16.417  0.00  0.00    +0.000 OA
ATOM     21  C   UNL     1     -26.142   8.927  17.409  0.00  0.00    +0.000 C 
ENDBRANCH   6  20
BRANCH   8  22
ATOM     22  O   UNL     1     -22.492   3.613  15.181  0.00  0.00    +0.000 OA
ATOM     23  H   UNL     1     -22.675   3.546  14.220  0.00  0.00    +0.000 HD
ENDBRANCH   8  22
BRANCH   9  24
ATOM     24  O   UNL     1     -20.185   7.453  17.882  0.00  0.00    +0.000 OA
ATOM     25  H   UNL     1     -19.515   7.974  17.384  0.00  0.00    +0.000 HD
ENDBRANCH   9  24
BRANCH  10  26
ATOM     26  O   UNL     1     -23.520  10.806  17.945  0.00  0.00    +0.000 OA
ATOM     27  H   UNL     1     -24.166  11.157  17.304  0.00  0.00    +0.000 HD
ENDBRANCH  10  26
TORSDOF 6
ENDMDL
MODEL 2
REMARK VINA RESULT:      -5.5     16.499     18.158
REMARK  Name = 5281698_sexangularetin.pdbqt.pdb
REMARK  6 active torsions:
REMARK  status: ('A' for Active; 'I' for Inactive)
REMARK    1  A    between atoms: C_5  and  C_12
REMARK    2  A    between atoms: C_6  and  O_20
REMARK    3  A    between atoms: C_8  and  O_22
REMARK    4  A    between atoms: C_9  and  O_24
REMARK    5  A    between atoms: C_10  and  O_26
REMARK    6  A    between atoms: C_17  and  O_18
REMARK                            x       y       z     vdW  Elec       q    Type
REMARK                         _______ _______ _______ _____ _____    ______ ____
ROOT
ATOM      1  O   UNL     1     -13.458  16.916  24.188  0.00  0.00    +0.000 OA
ATOM      2  O   UNL     1     -13.973  17.678  28.134  0.00  0.00    +0.000 OA
ATOM      3  C   UNL     1     -12.889  16.395  26.484  0.00  0.00    +0.000 A 
ATOM      4  C   UNL     1     -12.766  16.176  25.113  0.00  0.00    +0.000 A 
ATOM      5  C   UNL     1     -14.360  17.884  24.615  0.00  0.00    +0.000 A 
ATOM      6  C   UNL     1     -11.894  15.181  24.649  0.00  0.00    +0.000 A 
ATOM      7  C   UNL     1     -13.819  17.430  26.940  0.00  0.00    +0.000 A 
ATOM      8  C   UNL     1     -14.570  18.182  25.911  0.00  0.00    +0.000 A 
ATOM      9  C   UNL     1     -12.132  15.647  27.392  0.00  0.00    +0.000 A 
ATOM     10  C   UNL     1     -11.111  14.465  25.562  0.00  0.00    +0.000 A 
ATOM     11  C   UNL     1     -11.237  14.687  26.931  0.00  0.00    +0.000 A 
ENDROOT
BRANCH   5  12
ATOM     12  C   UNL     1     -15.046  18.562  23.496  0.00  0.00    +0.000 A 
ATOM     13  C   UNL     1     -14.299  19.041  22.413  0.00  0.00    +0.000 A 
ATOM     14  C   UNL     1     -16.438  18.686  23.445  0.00  0.00    +0.000 A 
ATOM     15  C   UNL     1     -14.918  19.647  21.322  0.00  0.00    +0.000 A 
ATOM     16  C   UNL     1     -17.070  19.291  22.361  0.00  0.00    +0.000 A 
ATOM     17  C   UNL     1     -16.302  19.768  21.306  0.00  0.00    +0.000 A 
BRANCH  17  18
ATOM     18  O   UNL     1     -16.939  20.356  20.252  0.00  0.00    +0.000 OA
ATOM     19  H   UNL     1     -16.283  20.873  19.752  0.00  0.00    +0.000 HD
ENDBRANCH  17  18
ENDBRANCH   5  12
BRANCH   6  20
ATOM     20  O   UNL     1     -11.721  14.954  23.305  0.00  0.00    +0.000 OA
ATOM     21  C   UNL     1     -10.732  15.804  22.771  0.00  0.00    +0.000 C 
ENDBRANCH   6  20
BRANCH   8  22
ATOM     22  O   UNL     1     -15.432  19.166  26.357  0.00  0.00    +0.000 OA
ATOM     23  H   UNL     1     -15.918  18.771  27.112  0.00  0.00    +0.000 HD
ENDBRANCH   8  22
BRANCH   9  24
ATOM     24  O   UNL     1     -12.204  15.815  28.748  0.00  0.00    +0.000 OA
ATOM     25  H   UNL     1     -12.333  16.771  28.944  0.00  0.00    +0.000 HD
ENDBRANCH   9  24
BRANCH  10  26
ATOM     26  O   UNL     1     -10.201  13.552  25.109  0.00  0.00    +0.000 OA
ATOM     27  H   UNL     1     -10.673  12.870  24.596  0.00  0.00    +0.000 HD
ENDBRANCH  10  26
TORSDOF 6
ENDMDL
MODEL 3
REMARK VINA RESULT:      -5.4     11.040     12.475
REMARK  Name = 5281698_sexangularetin.pdbqt.pdb
REMARK  6 active torsions:
REMARK  status: ('A' for Active; 'I' for Inactive)
REMARK    1  A    between atoms: C_5  and  C_12
REMARK    2  A    between atoms: C_6  and  O_20
REMARK    3  A    between atoms: C_8  and  O_22
REMARK    4  A    between atoms: C_9  and  O_24
REMARK    5  A    between atoms: C_10  and  O_26
REMARK    6  A    between atoms: C_17  and  O_18
REMARK                            x       y       z     vdW  Elec       q    Type
REMARK                         _______ _______ _______ _____ _____    ______ ____
ROOT
ATOM      1  O   UNL     1     -23.499  12.675   6.457  0.00  0.00    +0.000 OA
ATOM      2  O   UNL     1     -27.041  14.642   6.422  0.00  0.00    +0.000 OA
ATOM      3  C   UNL     1     -25.328  13.660   7.704  0.00  0.00    +0.000 A 
ATOM      4  C   UNL     1     -24.115  12.975   7.646  0.00  0.00    +0.000 A 
ATOM      5  C   UNL     1     -24.118  13.006   5.257  0.00  0.00    +0.000 A 
ATOM      6  C   UNL     1     -23.482  12.591   8.837  0.00  0.00    +0.000 A 
ATOM      7  C   UNL     1     -25.973  14.034   6.444  0.00  0.00    +0.000 A 
ATOM      8  C   UNL     1     -25.292  13.662   5.184  0.00  0.00    +0.000 A 
ATOM      9  C   UNL     1     -25.900  13.985   8.939  0.00  0.00    +0.000 A 
ATOM     10  C   UNL     1     -24.041  12.956  10.067  0.00  0.00    +0.000 A 
ATOM     11  C   UNL     1     -25.252  13.640  10.121  0.00  0.00    +0.000 A 
ENDROOT
BRANCH   5  12
ATOM     12  C   UNL     1     -23.342  12.581   4.074  0.00  0.00    +0.000 A 
ATOM     13  C   UNL     1     -23.502  11.285   3.570  0.00  0.00    +0.000 A 
ATOM     14  C   UNL     1     -22.493  13.457   3.390  0.00  0.00    +0.000 A 
ATOM     15  C   UNL     1     -22.818  10.865   2.431  0.00  0.00    +0.000 A 
ATOM     16  C   UNL     1     -21.801  13.049   2.251  0.00  0.00    +0.000 A 
ATOM     17  C   UNL     1     -21.971  11.753   1.780  0.00  0.00    +0.000 A 
BRANCH  17  18
ATOM     18  O   UNL     1     -21.287  11.373   0.662  0.00  0.00    +0.000 OA
ATOM     19  H   UNL     1     -21.934  11.195  -0.043  0.00  0.00    +0.000 HD
ENDBRANCH  17  18
ENDBRANCH   5  12
BRANCH   6  20
ATOM     20  O   UNL     1     -22.271  11.943   8.824  0.00  0.00    +0.000 OA
ATOM     21  C   UNL     1     -22.419  10.598   8.431  0.00  0.00    +0.000 C 
ENDBRANCH   6  20
BRANCH   8  22
ATOM     22  O   UNL     1     -25.907  14.036   4.005  0.00  0.00    +0.000 OA
ATOM     23  H   UNL     1     -26.766  13.564   3.992  0.00  0.00    +0.000 HD
ENDBRANCH   8  22
BRANCH   9  24
ATOM     24  O   UNL     1     -27.084  14.657   9.063  0.00  0.00    +0.000 OA
ATOM     25  H   UNL     1     -27.133  15.054   9.962  0.00  0.00    +0.000 HD
ENDBRANCH   9  24
BRANCH  10  26
ATOM     26  O   UNL     1     -23.386  12.655  11.228  0.00  0.00    +0.000 OA
ATOM     27  H   UNL     1     -23.621  13.321  11.900  0.00  0.00    +0.000 HD
ENDBRANCH  10  26
TORSDOF 6
ENDMDL
MODEL 4
REMARK VINA RESULT:      -5.3     20.026     21.228
REMARK  Name = 5281698_sexangularetin.pdbqt.pdb
REMARK  6 active torsions:
REMARK  status: ('A' for Active; 'I' for Inactive)
REMARK    1  A    between atoms: C_5  and  C_12
REMARK    2  A    between atoms: C_6  and  O_20
REMARK    3  A    between atoms: C_8  and  O_22
REMARK    4  A    between atoms: C_9  and  O_24
REMARK    5  A    between atoms: C_10  and  O_26
REMARK    6  A    between atoms: C_17  and  O_18
REMARK                            x       y       z     vdW  Elec       q    Type
REMARK                         _______ _______ _______ _____ _____    ______ ____
ROOT
ATOM      1  O   UNL     1     -15.147   9.139  -3.330  0.00  0.00    +0.000 OA
ATOM      2  O   UNL     1     -14.785  11.994  -0.478  0.00  0.00    +0.000 OA
ATOM      3  C   UNL     1     -14.755  11.463  -2.771  0.00  0.00    +0.000 A 
ATOM      4  C   UNL     1     -14.880  10.432  -3.701  0.00  0.00    +0.000 A 
ATOM      5  C   UNL     1     -15.244   8.815  -1.981  0.00  0.00    +0.000 A 
ATOM      6  C   UNL     1     -14.749  10.716  -5.068  0.00  0.00    +0.000 A 
ATOM      7  C   UNL     1     -14.881  11.134  -1.350  0.00  0.00    +0.000 A 
ATOM      8  C   UNL     1     -15.135   9.721  -0.991  0.00  0.00    +0.000 A 
ATOM      9  C   UNL     1     -14.526  12.776  -3.196  0.00  0.00    +0.000 A 
ATOM     10  C   UNL     1     -14.561  12.039  -5.486  0.00  0.00    +0.000 A 
ATOM     11  C   UNL     1     -14.437  13.066  -4.554  0.00  0.00    +0.000 A 
ENDROOT
BRANCH   5  12
ATOM     12  C   UNL     1     -15.497   7.378  -1.752  0.00  0.00    +0.000 A 
ATOM     13  C   UNL     1     -16.666   6.977  -1.094  0.00  0.00    +0.000 A 
ATOM     14  C   UNL     1     -14.637   6.387  -2.234  0.00  0.00    +0.000 A 
ATOM     15  C   UNL     1     -16.958   5.628  -0.900  0.00  0.00    +0.000 A 
ATOM     16  C   UNL     1     -14.915   5.034  -2.045  0.00  0.00    +0.000 A 
ATOM     17  C   UNL     1     -16.077   4.666  -1.378  0.00  0.00    +0.000 A 
BRANCH  17  18
ATOM     18  O   UNL     1     -16.333   3.337  -1.205  0.00  0.00    +0.000 OA
ATOM     19  H   UNL     1     -17.247   3.244  -0.885  0.00  0.00    +0.000 HD
ENDBRANCH  17  18
ENDBRANCH   5  12
BRANCH   6  20
ATOM     20  O   UNL     1     -14.896   9.735  -6.018  0.00  0.00    +0.000 OA
ATOM     21  C   UNL     1     -13.656   9.147  -6.336  0.00  0.00    +0.000 C 
ENDBRANCH   6  20
BRANCH   8  22
ATOM     22  O   UNL     1     -15.266   9.430   0.353  0.00  0.00    +0.000 OA
ATOM     23  H   UNL     1     -14.431   9.727   0.772  0.00  0.00    +0.000 HD
ENDBRANCH   8  22
BRANCH   9  24
ATOM     24  O   UNL     1     -14.397  13.831  -2.335  0.00  0.00    +0.000 OA
ATOM     25  H   UNL     1     -14.013  13.508  -1.489  0.00  0.00    +0.000 HD
ENDBRANCH   9  24
BRANCH  10  26
ATOM     26  O   UNL     1     -14.514  12.331  -6.819  0.00  0.00    +0.000 OA
ATOM     27  H   UNL     1     -14.052  13.183  -6.936  0.00  0.00    +0.000 HD
ENDBRANCH  10  26
TORSDOF 6
ENDMDL
MODEL 5
REMARK VINA RESULT:      -5.3     12.926     15.040
REMARK  Name = 5281698_sexangularetin.pdbqt.pdb
REMARK  6 active torsions:
REMARK  status: ('A' for Active; 'I' for Inactive)
REMARK    1  A    between atoms: C_5  and  C_12
REMARK    2  A    between atoms: C_6  and  O_20
REMARK    3  A    between atoms: C_8  and  O_22
REMARK    4  A    between atoms: C_9  and  O_24
REMARK    5  A    between atoms: C_10  and  O_26
REMARK    6  A    between atoms: C_17  and  O_18
REMARK                            x       y       z     vdW  Elec       q    Type
REMARK                         _______ _______ _______ _____ _____    ______ ____
ROOT
ATOM      1  O   UNL     1     -10.617   3.827  18.726  0.00  0.00    +0.000 OA
ATOM      2  O   UNL     1     -11.325   7.183  20.882  0.00  0.00    +0.000 OA
ATOM      3  C   UNL     1     -11.835   4.914  20.515  0.00  0.00    +0.000 A 
ATOM      4  C   UNL     1     -11.553   3.798  19.728  0.00  0.00    +0.000 A 
ATOM      5  C   UNL     1      -9.959   5.015  18.430  0.00  0.00    +0.000 A 
ATOM      6  C   UNL     1     -12.227   2.593  19.973  0.00  0.00    +0.000 A 
ATOM      7  C   UNL     1     -11.127   6.163  20.226  0.00  0.00    +0.000 A 
ATOM      8  C   UNL     1     -10.151   6.159  19.114  0.00  0.00    +0.000 A 
ATOM      9  C   UNL     1     -12.765   4.829  21.557  0.00  0.00    +0.000 A 
ATOM     10  C   UNL     1     -13.125   2.507  21.043  0.00  0.00    +0.000 A 
ATOM     11  C   UNL     1     -13.405   3.624  21.826  0.00  0.00    +0.000 A 
ENDROOT
BRANCH   5  12
ATOM     12  C   UNL     1      -9.014   4.884  17.303  0.00  0.00    +0.000 A 
ATOM     13  C   UNL     1      -7.677   4.551  17.554  0.00  0.00    +0.000 A 
ATOM     14  C   UNL     1      -9.423   5.013  15.972  0.00  0.00    +0.000 A 
ATOM     15  C   UNL     1      -6.769   4.376  16.512  0.00  0.00    +0.000 A 
ATOM     16  C   UNL     1      -8.525   4.844  14.920  0.00  0.00    +0.000 A 
ATOM     17  C   UNL     1      -7.203   4.525  15.200  0.00  0.00    +0.000 A 
BRANCH  17  18
ATOM     18  O   UNL     1      -6.339   4.361  14.157  0.00  0.00    +0.000 OA
ATOM     19  H   UNL     1      -5.464   4.687  14.433  0.00  0.00    +0.000 HD
ENDBRANCH  17  18
ENDBRANCH   5  12
BRANCH   6  20
ATOM     20  O   UNL     1     -11.955   1.463  19.242  0.00  0.00    +0.000 OA
ATOM     21  C   UNL     1     -10.882   0.742  19.801  0.00  0.00    +0.000 C 
ENDBRANCH   6  20
BRANCH   8  22
ATOM     22  O   UNL     1      -9.480   7.341  18.865  0.00  0.00    +0.000 OA
ATOM     23  H   UNL     1      -9.446   7.814  19.723  0.00  0.00    +0.000 HD
ENDBRANCH   8  22
BRANCH   9  24
ATOM     24  O   UNL     1     -13.084   5.886  22.365  0.00  0.00    +0.000 OA
ATOM     25  H   UNL     1     -12.732   5.714  23.268  0.00  0.00    +0.000 HD
ENDBRANCH   9  24
BRANCH  10  26
ATOM     26  O   UNL     1     -13.723   1.314  21.335  0.00  0.00    +0.000 OA
ATOM     27  H   UNL     1     -13.091   0.594  21.148  0.00  0.00    +0.000 HD
ENDBRANCH  10  26
TORSDOF 6
ENDMDL
MODEL 6
REMARK VINA RESULT:      -5.3     10.814     13.018
REMARK  Name = 5281698_sexangularetin.pdbqt.pdb
REMARK  6 active torsions:
REMARK  status: ('A' for Active; 'I' for Inactive)
REMARK    1  A    between atoms: C_5  and  C_12
REMARK    2  A    between atoms: C_6  and  O_20
REMARK    3  A    between atoms: C_8  and  O_22
REMARK    4  A    between atoms: C_9  and  O_24
REMARK    5  A    between atoms: C_10  and  O_26
REMARK    6  A    between atoms: C_17  and  O_18
REMARK                            x       y       z     vdW  Elec       q    Type
REMARK                         _______ _______ _______ _____ _____    ______ ____
ROOT
ATOM      1  O   UNL     1     -23.119  14.437   7.089  0.00  0.00    +0.000 OA
ATOM      2  O   UNL     1     -23.142  10.410   7.540  0.00  0.00    +0.000 OA
ATOM      3  C   UNL     1     -23.562  12.254   6.137  0.00  0.00    +0.000 A 
ATOM      4  C   UNL     1     -23.541  13.645   6.051  0.00  0.00    +0.000 A 
ATOM      5  C   UNL     1     -22.750  13.853   8.296  0.00  0.00    +0.000 A 
ATOM      6  C   UNL     1     -23.943  14.269   4.862  0.00  0.00    +0.000 A 
ATOM      7  C   UNL     1     -23.151  11.631   7.397  0.00  0.00    +0.000 A 
ATOM      8  C   UNL     1     -22.736  12.522   8.503  0.00  0.00    +0.000 A 
ATOM      9  C   UNL     1     -23.957  11.482   5.039  0.00  0.00    +0.000 A 
ATOM     10  C   UNL     1     -24.298  13.488   3.756  0.00  0.00    +0.000 A 
ATOM     11  C   UNL     1     -24.318  12.099   3.845  0.00  0.00    +0.000 A 
ENDROOT
BRANCH   5  12
ATOM     12  C   UNL     1     -22.359  14.845   9.318  0.00  0.00    +0.000 A 
ATOM     13  C   UNL     1     -21.002  15.102   9.550  0.00  0.00    +0.000 A 
ATOM     14  C   UNL     1     -23.304  15.596  10.024  0.00  0.00    +0.000 A 
ATOM     15  C   UNL     1     -20.598  16.062  10.476  0.00  0.00    +0.000 A 
ATOM     16  C   UNL     1     -22.914  16.557  10.954  0.00  0.00    +0.000 A 
ATOM     17  C   UNL     1     -21.561  16.782  11.172  0.00  0.00    +0.000 A 
BRANCH  17  18
ATOM     18  O   UNL     1     -21.198  17.729  12.085  0.00  0.00    +0.000 OA
ATOM     19  H   UNL     1     -21.259  17.334  12.972  0.00  0.00    +0.000 HD
ENDBRANCH  17  18
ENDBRANCH   5  12
BRANCH   6  20
ATOM     20  O   UNL     1     -23.907  15.635   4.726  0.00  0.00    +0.000 OA
ATOM     21  C   UNL     1     -22.652  16.066   4.255  0.00  0.00    +0.000 C 
ENDBRANCH   6  20
BRANCH   8  22
ATOM     22  O   UNL     1     -22.336  11.918   9.679  0.00  0.00    +0.000 OA
ATOM     23  H   UNL     1     -22.677  12.489  10.400  0.00  0.00    +0.000 HD
ENDBRANCH   8  22
BRANCH   9  24
ATOM     24  O   UNL     1     -23.997  10.115   5.058  0.00  0.00    +0.000 OA
ATOM     25  H   UNL     1     -24.347   9.818   5.929  0.00  0.00    +0.000 HD
ENDBRANCH   9  24
BRANCH  10  26
ATOM     26  O   UNL     1     -24.613  14.090   2.570  0.00  0.00    +0.000 OA
ATOM     27  H   UNL     1     -23.961  14.794   2.395  0.00  0.00    +0.000 HD
ENDBRANCH  10  26
TORSDOF 6
ENDMDL
MODEL 7
REMARK VINA RESULT:      -5.0     21.730     24.772
REMARK  Name = 5281698_sexangularetin.pdbqt.pdb
REMARK  6 active torsions:
REMARK  status: ('A' for Active; 'I' for Inactive)
REMARK    1  A    between atoms: C_5  and  C_12
REMARK    2  A    between atoms: C_6  and  O_20
REMARK    3  A    between atoms: C_8  and  O_22
REMARK    4  A    between atoms: C_9  and  O_24
REMARK    5  A    between atoms: C_10  and  O_26
REMARK    6  A    between atoms: C_17  and  O_18
REMARK                            x       y       z     vdW  Elec       q    Type
REMARK                         _______ _______ _______ _____ _____    ______ ____
ROOT
ATOM      1  O   UNL     1      -2.149  14.535  11.979  0.00  0.00    +0.000 OA
ATOM      2  O   UNL     1      -0.612  17.291   9.438  0.00  0.00    +0.000 OA
ATOM      3  C   UNL     1      -2.531  16.358  10.431  0.00  0.00    +0.000 A 
ATOM      4  C   UNL     1      -2.996  15.381  11.310  0.00  0.00    +0.000 A 
ATOM      5  C   UNL     1      -0.780  14.600  11.742  0.00  0.00    +0.000 A 
ATOM      6  C   UNL     1      -4.374  15.261  11.542  0.00  0.00    +0.000 A 
ATOM      7  C   UNL     1      -1.089  16.450  10.197  0.00  0.00    +0.000 A 
ATOM      8  C   UNL     1      -0.213  15.496  10.912  0.00  0.00    +0.000 A 
ATOM      9  C   UNL     1      -3.428  17.230   9.803  0.00  0.00    +0.000 A 
ATOM     10  C   UNL     1      -5.259  16.163  10.941  0.00  0.00    +0.000 A 
ATOM     11  C   UNL     1      -4.791  17.138  10.064  0.00  0.00    +0.000 A 
ENDROOT
BRANCH   5  12
ATOM     12  C   UNL     1      -0.016  13.598  12.512  0.00  0.00    +0.000 A 
ATOM     13  C   UNL     1      -0.301  12.237  12.353  0.00  0.00    +0.000 A 
ATOM     14  C   UNL     1       1.041  13.958  13.354  0.00  0.00    +0.000 A 
ATOM     15  C   UNL     1       0.429  11.263  13.031  0.00  0.00    +0.000 A 
ATOM     16  C   UNL     1       1.778  12.994  14.040  0.00  0.00    +0.000 A 
ATOM     17  C   UNL     1       1.465  11.652  13.871  0.00  0.00    +0.000 A 
BRANCH  17  18
ATOM     18  O   UNL     1       2.199  10.723  14.550  0.00  0.00    +0.000 OA
ATOM     19  H   UNL     1       2.039  10.847  15.502  0.00  0.00    +0.000 HD
ENDBRANCH  17  18
ENDBRANCH   5  12
BRANCH   6  20
ATOM     20  O   UNL     1      -4.870  14.332  12.423  0.00  0.00    +0.000 OA
ATOM     21  C   UNL     1      -4.907  14.844  13.735  0.00  0.00    +0.000 C 
ENDBRANCH   6  20
BRANCH   8  22
ATOM     22  O   UNL     1       1.146  15.606  10.691  0.00  0.00    +0.000 OA
ATOM     23  H   UNL     1       1.576  15.138  11.438  0.00  0.00    +0.000 HD
ENDBRANCH   8  22
BRANCH   9  24
ATOM     24  O   UNL     1      -3.035  18.211   8.934  0.00  0.00    +0.000 OA
ATOM     25  H   UNL     1      -2.592  18.929   9.442  0.00  0.00    +0.000 HD
ENDBRANCH   9  24
BRANCH  10  26
ATOM     26  O   UNL     1      -6.593  16.101  11.228  0.00  0.00    +0.000 OA
ATOM     27  H   UNL     1      -6.846  16.908  11.714  0.00  0.00    +0.000 HD
ENDBRANCH  10  26
TORSDOF 6
ENDMDL
MODEL 8
REMARK VINA RESULT:      -5.0      2.721      3.780
REMARK  Name = 5281698_sexangularetin.pdbqt.pdb
REMARK  6 active torsions:
REMARK  status: ('A' for Active; 'I' for Inactive)
REMARK    1  A    between atoms: C_5  and  C_12
REMARK    2  A    between atoms: C_6  and  O_20
REMARK    3  A    between atoms: C_8  and  O_22
REMARK    4  A    between atoms: C_9  and  O_24
REMARK    5  A    between atoms: C_10  and  O_26
REMARK    6  A    between atoms: C_17  and  O_18
REMARK                            x       y       z     vdW  Elec       q    Type
REMARK                         _______ _______ _______ _____ _____    ______ ____
ROOT
ATOM      1  O   UNL     1     -23.305   4.848  16.843  0.00  0.00    +0.000 OA
ATOM      2  O   UNL     1     -19.671   5.844  18.332  0.00  0.00    +0.000 OA
ATOM      3  C   UNL     1     -21.647   6.561  17.272  0.00  0.00    +0.000 A 
ATOM      4  C   UNL     1     -22.880   6.151  16.768  0.00  0.00    +0.000 A 
ATOM      5  C   UNL     1     -22.467   3.880  17.383  0.00  0.00    +0.000 A 
ATOM      6  C   UNL     1     -23.734   7.095  16.181  0.00  0.00    +0.000 A 
ATOM      7  C   UNL     1     -20.770   5.550  17.866  0.00  0.00    +0.000 A 
ATOM      8  C   UNL     1     -21.252   4.152  17.895  0.00  0.00    +0.000 A 
ATOM      9  C   UNL     1     -21.271   7.908  17.216  0.00  0.00    +0.000 A 
ATOM     10  C   UNL     1     -23.367   8.446  16.166  0.00  0.00    +0.000 A 
ATOM     11  C   UNL     1     -22.135   8.852  16.670  0.00  0.00    +0.000 A 
ENDROOT
BRANCH   5  12
ATOM     12  C   UNL     1     -23.060   2.527  17.354  0.00  0.00    +0.000 A 
ATOM     13  C   UNL     1     -23.625   1.993  18.518  0.00  0.00    +0.000 A 
ATOM     14  C   UNL     1     -23.140   1.777  16.176  0.00  0.00    +0.000 A 
ATOM     15  C   UNL     1     -24.231   0.738  18.516  0.00  0.00    +0.000 A 
ATOM     16  C   UNL     1     -23.741   0.520  16.160  0.00  0.00    +0.000 A 
ATOM     17  C   UNL     1     -24.283   0.010  17.333  0.00  0.00    +0.000 A 
BRANCH  17  18
ATOM     18  O   UNL     1     -24.869  -1.221  17.297  0.00  0.00    +0.000 OA
ATOM     19  H   UNL     1     -25.820  -1.109  17.469  0.00  0.00    +0.000 HD
ENDBRANCH  17  18
ENDBRANCH   5  12
BRANCH   6  20
ATOM     20  O   UNL     1     -24.970   6.738  15.701  0.00  0.00    +0.000 OA
ATOM     21  C   UNL     1     -24.894   6.335  14.353  0.00  0.00    +0.000 C 
ENDBRANCH   6  20
BRANCH   8  22
ATOM     22  O   UNL     1     -20.418   3.213  18.472  0.00  0.00    +0.000 OA
ATOM     23  H   UNL     1     -20.954   2.773  19.166  0.00  0.00    +0.000 HD
ENDBRANCH   8  22
BRANCH   9  24
ATOM     24  O   UNL     1     -20.078   8.374  17.695  0.00  0.00    +0.000 OA
ATOM     25  H   UNL     1     -19.429   8.409  16.955  0.00  0.00    +0.000 HD
ENDBRANCH   9  24
BRANCH  10  26
ATOM     26  O   UNL     1     -24.231   9.380  15.668  0.00  0.00    +0.000 OA
ATOM     27  H   UNL     1     -23.868  10.267  15.848  0.00  0.00    +0.000 HD
ENDBRANCH  10  26
TORSDOF 6
ENDMDL
MODEL 9
REMARK VINA RESULT:      -4.9     21.069     22.612
REMARK  Name = 5281698_sexangularetin.pdbqt.pdb
REMARK  6 active torsions:
REMARK  status: ('A' for Active; 'I' for Inactive)
REMARK    1  A    between atoms: C_5  and  C_12
REMARK    2  A    between atoms: C_6  and  O_20
REMARK    3  A    between atoms: C_8  and  O_22
REMARK    4  A    between atoms: C_9  and  O_24
REMARK    5  A    between atoms: C_10  and  O_26
REMARK    6  A    between atoms: C_17  and  O_18
REMARK                            x       y       z     vdW  Elec       q    Type
REMARK                         _______ _______ _______ _____ _____    ______ ____
ROOT
ATOM      1  O   UNL     1     -14.395  10.734  -3.812  0.00  0.00    +0.000 OA
ATOM      2  O   UNL     1     -15.325  10.539   0.127  0.00  0.00    +0.000 OA
ATOM      3  C   UNL     1     -15.101   9.397  -1.919  0.00  0.00    +0.000 A 
ATOM      4  C   UNL     1     -14.780   9.534  -3.269  0.00  0.00    +0.000 A 
ATOM      5  C   UNL     1     -14.375  11.875  -3.018  0.00  0.00    +0.000 A 
ATOM      6  C   UNL     1     -14.827   8.411  -4.107  0.00  0.00    +0.000 A 
ATOM      7  C   UNL     1     -15.057  10.590  -1.072  0.00  0.00    +0.000 A 
ATOM      8  C   UNL     1     -14.671  11.870  -1.704  0.00  0.00    +0.000 A 
ATOM      9  C   UNL     1     -15.445   8.145  -1.397  0.00  0.00    +0.000 A 
ATOM     10  C   UNL     1     -15.134   7.157  -3.568  0.00  0.00    +0.000 A 
ATOM     11  C   UNL     1     -15.454   7.023  -2.219  0.00  0.00    +0.000 A 
ENDROOT
BRANCH   5  12
ATOM     12  C   UNL     1     -13.976  13.086  -3.763  0.00  0.00    +0.000 A 
ATOM     13  C   UNL     1     -12.617  13.383  -3.927  0.00  0.00    +0.000 A 
ATOM     14  C   UNL     1     -14.913  13.922  -4.378  0.00  0.00    +0.000 A 
ATOM     15  C   UNL     1     -12.205  14.493  -4.660  0.00  0.00    +0.000 A 
ATOM     16  C   UNL     1     -14.515  15.037  -5.113  0.00  0.00    +0.000 A 
ATOM     17  C   UNL     1     -13.160  15.313  -5.248  0.00  0.00    +0.000 A 
BRANCH  17  18
ATOM     18  O   UNL     1     -12.789  16.408  -5.973  0.00  0.00    +0.000 OA
ATOM     19  H   UNL     1     -12.187  16.943  -5.427  0.00  0.00    +0.000 HD
ENDBRANCH  17  18
ENDBRANCH   5  12
BRANCH   6  20
ATOM     20  O   UNL     1     -14.489   8.498  -5.436  0.00  0.00    +0.000 OA
ATOM     21  C   UNL     1     -15.618   8.775  -6.231  0.00  0.00    +0.000 C 
ENDBRANCH   6  20
BRANCH   8  22
ATOM     22  O   UNL     1     -14.620  12.983  -0.887  0.00  0.00    +0.000 OA
ATOM     23  H   UNL     1     -15.516  13.069  -0.499  0.00  0.00    +0.000 HD
ENDBRANCH   8  22
BRANCH   9  24
ATOM     24  O   UNL     1     -15.768   7.944  -0.083  0.00  0.00    +0.000 OA
ATOM     25  H   UNL     1     -15.539   7.019   0.163  0.00  0.00    +0.000 HD
ENDBRANCH   9  24
BRANCH  10  26
ATOM     26  O   UNL     1     -15.102   6.047  -4.365  0.00  0.00    +0.000 OA
ATOM     27  H   UNL     1     -14.177   5.870  -4.616  0.00  0.00    +0.000 HD
ENDBRANCH  10  26
TORSDOF 6
ENDMDL
