MODEL 1
REMARK VINA RESULT:      -6.1      0.000      0.000
REMARK  Name = 5281239_Fucoxanthin.pdbqt.pdb
REMARK  19 active torsions:
REMARK  status: ('A' for Active; 'I' for Inactive)
REMARK    1  A    between atoms: C_1  and  C_5
REMARK    2  A    between atoms: C_2  and  C_26
REMARK    3  A    between atoms: C_3  and  C_5
REMARK    4  A    between atoms: C_3  and  C_7
REMARK    5  A    between atoms: C_6  and  C_10
REMARK    6  A    between atoms: C_8  and  C_10
REMARK    7  A    between atoms: C_8  and  C_12
REMARK    8  A    between atoms: C_12  and  C_13
REMARK    9  A    between atoms: C_13  and  C_15
REMARK   10  A    between atoms: C_20  and  O_24
REMARK   11  A    between atoms: C_26  and  C_27
REMARK   12  A    between atoms: C_27  and  C_30
REMARK   13  A    between atoms: C_29  and  C_33
REMARK   14  A    between atoms: C_31  and  C_33
REMARK   15  A    between atoms: C_31  and  C_44
REMARK   16  A    between atoms: C_35  and  O_45
REMARK   17  A    between atoms: C_37  and  O_47
REMARK   18  A    between atoms: C_39  and  C_43
REMARK   19  A    between atoms: O_47  and  C_49
REMARK                            x       y       z     vdW  Elec       q    Type
REMARK                         _______ _______ _______ _____ _____    ______ ____
ROOT
ATOM      1  C   UNL     1      -7.012  12.745  16.893  0.00  0.00    +0.000 C 
ATOM      2  C   UNL     1      -7.425  13.870  16.852  0.00  0.00    +0.000 C 
ENDROOT
BRANCH   2   3
ATOM      3  C   UNL     1      -7.947  15.311  16.796  0.00  0.00    +0.000 C 
BRANCH   3   4
ATOM      4  C   UNL     1      -8.390  16.528  16.752  0.00  0.00    +0.000 C 
ATOM      5  C   UNL     1      -7.925  17.454  15.670  0.00  0.00    +0.000 C 
BRANCH   4   7
ATOM      6  C   UNL     1     -10.163  17.333  18.500  0.00  0.00    +0.000 C 
ATOM      7  C   UNL     1      -9.349  16.965  17.696  0.00  0.00    +0.000 C 
BRANCH   6   8
ATOM      8  C   UNL     1     -11.197  17.802  19.529  0.00  0.00    +0.000 C 
BRANCH   8   9
ATOM      9  C   UNL     1     -12.067  18.194  20.406  0.00  0.00    +0.000 C 
ATOM     10  C   UNL     1     -12.970  19.352  20.108  0.00  0.00    +0.000 C 
BRANCH   9  12
ATOM     11  C   UNL     1     -12.102  17.104  22.789  0.00  0.00    +0.000 C 
ATOM     12  C   UNL     1     -12.085  17.602  21.694  0.00  0.00    +0.000 C 
BRANCH  11  18
ATOM     13  C   UNL     1     -12.940  17.149  25.150  0.00  0.00    +0.000 C 
ATOM     14  C   UNL     1     -11.265  15.343  24.312  0.00  0.00    +0.000 C 
ATOM     15  C   UNL     1     -13.023  16.206  26.274  0.00  0.00    +0.000 C 
ATOM     16  C   UNL     1     -12.501  14.957  26.661  0.00  0.00    +0.000 C 
ATOM     17  C   UNL     1     -11.663  14.697  25.557  0.00  0.00    +0.000 C 
ATOM     18  C   UNL     1     -12.116  16.561  23.990  0.00  0.00    +0.000 C 
ATOM     19  C   UNL     1     -12.268  18.469  25.613  0.00  0.00    +0.000 C 
ATOM     20  C   UNL     1     -14.388  17.437  24.651  0.00  0.00    +0.000 C 
ATOM     21  C   UNL     1      -9.776  15.704  24.321  0.00  0.00    +0.000 C 
BRANCH  14  22
ATOM     22  O   UNL     1     -11.403  14.396  23.276  0.00  0.00    +0.000 OA
ATOM     23  H   UNL     1     -12.370  14.378  23.157  0.00  0.00    +0.000 HD
ENDBRANCH  14  22
BRANCH  16  24
ATOM     24  O   UNL     1     -12.029  14.793  27.957  0.00  0.00    +0.000 OA
BRANCH  24  26
ATOM     25  O   UNL     1     -12.354  12.616  28.769  0.00  0.00    +0.000 OA
ATOM     26  C   UNL     1     -12.682  13.770  28.562  0.00  0.00    +0.000 C 
ATOM     27  C   UNL     1     -14.044  14.120  29.047  0.00  0.00    +0.000 C 
ENDBRANCH  24  26
ENDBRANCH  16  24
ENDBRANCH  11  18
ENDBRANCH   9  12
ENDBRANCH   8   9
ENDBRANCH   6   8
ENDBRANCH   4   7
ENDBRANCH   3   4
ENDBRANCH   2   3
BRANCH   1  28
ATOM     28  C   UNL     1      -6.476  11.309  16.940  0.00  0.00    +0.000 C 
BRANCH  28  29
ATOM     29  C   UNL     1      -6.022  10.096  16.968  0.00  0.00    +0.000 C 
ATOM     30  C   UNL     1      -4.549   9.849  17.093  0.00  0.00    +0.000 C 
BRANCH  29  32
ATOM     31  C   UNL     1      -7.686   8.089  16.746  0.00  0.00    +0.000 C 
ATOM     32  C   UNL     1      -6.917   9.007  16.843  0.00  0.00    +0.000 C 
BRANCH  31  33
ATOM     33  C   UNL     1      -8.676   6.924  16.633  0.00  0.00    +0.000 C 
BRANCH  33  34
ATOM     34  C   UNL     1      -9.518   5.937  16.546  0.00  0.00    +0.000 C 
ATOM     35  C   UNL     1      -9.933   5.515  15.152  0.00  0.00    +0.000 C 
BRANCH  34  37
ATOM     36  O   UNL     1     -10.516   4.158  17.791  0.00  0.00    +0.000 OA
ATOM     37  C   UNL     1     -10.067   5.300  17.783  0.00  0.00    +0.000 C 
BRANCH  37  38
ATOM     38  C   UNL     1     -10.088   6.012  19.038  0.00  0.00    +0.000 C 
BRANCH  38  40
ATOM     39  O   UNL     1     -11.261   7.572  20.392  0.00  0.00    +0.000 OA
ATOM     40  C   UNL     1     -10.101   6.697  20.316  0.00  0.00    +0.000 C 
ATOM     41  C   UNL     1     -11.278   6.461  21.286  0.00  0.00    +0.000 C 
ATOM     42  C   UNL     1      -8.759   7.260  20.906  0.00  0.00    +0.000 C 
ATOM     43  C   UNL     1     -11.095   6.860  22.645  0.00  0.00    +0.000 C 
ATOM     44  C   UNL     1      -9.023   7.619  22.302  0.00  0.00    +0.000 C 
ATOM     45  C   UNL     1     -10.016   7.489  23.291  0.00  0.00    +0.000 C 
ATOM     46  C   UNL     1     -12.408   5.468  20.999  0.00  0.00    +0.000 C 
ATOM     47  C   UNL     1      -7.745   6.093  20.813  0.00  0.00    +0.000 C 
ATOM     48  C   UNL     1      -8.369   8.456  20.010  0.00  0.00    +0.000 C 
BRANCH  45  49
ATOM     49  O   UNL     1      -9.696   7.249  24.593  0.00  0.00    +0.000 OA
ATOM     50  H   UNL     1      -8.742   7.342  24.764  0.00  0.00    +0.000 HD
ENDBRANCH  45  49
ENDBRANCH  38  40
ENDBRANCH  37  38
ENDBRANCH  34  37
ENDBRANCH  33  34
ENDBRANCH  31  33
ENDBRANCH  29  32
ENDBRANCH  28  29
ENDBRANCH   1  28
TORSDOF 19
ENDMDL
MODEL 2
REMARK VINA RESULT:      -5.6      2.820      4.178
REMARK  Name = 5281239_Fucoxanthin.pdbqt.pdb
REMARK  19 active torsions:
REMARK  status: ('A' for Active; 'I' for Inactive)
REMARK    1  A    between atoms: C_1  and  C_5
REMARK    2  A    between atoms: C_2  and  C_26
REMARK    3  A    between atoms: C_3  and  C_5
REMARK    4  A    between atoms: C_3  and  C_7
REMARK    5  A    between atoms: C_6  and  C_10
REMARK    6  A    between atoms: C_8  and  C_10
REMARK    7  A    between atoms: C_8  and  C_12
REMARK    8  A    between atoms: C_12  and  C_13
REMARK    9  A    between atoms: C_13  and  C_15
REMARK   10  A    between atoms: C_20  and  O_24
REMARK   11  A    between atoms: C_26  and  C_27
REMARK   12  A    between atoms: C_27  and  C_30
REMARK   13  A    between atoms: C_29  and  C_33
REMARK   14  A    between atoms: C_31  and  C_33
REMARK   15  A    between atoms: C_31  and  C_44
REMARK   16  A    between atoms: C_35  and  O_45
REMARK   17  A    between atoms: C_37  and  O_47
REMARK   18  A    between atoms: C_39  and  C_43
REMARK   19  A    between atoms: O_47  and  C_49
REMARK                            x       y       z     vdW  Elec       q    Type
REMARK                         _______ _______ _______ _____ _____    ______ ____
ROOT
ATOM      1  C   UNL     1      -7.202  13.604  16.912  0.00  0.00    +0.000 C 
ATOM      2  C   UNL     1      -7.729  14.680  16.973  0.00  0.00    +0.000 C 
ENDROOT
BRANCH   2   3
ATOM      3  C   UNL     1      -8.399  16.057  17.045  0.00  0.00    +0.000 C 
BRANCH   3   4
ATOM      4  C   UNL     1      -8.965  17.221  17.110  0.00  0.00    +0.000 C 
ATOM      5  C   UNL     1      -8.652  18.264  16.080  0.00  0.00    +0.000 C 
BRANCH   4   7
ATOM      6  C   UNL     1     -10.723  17.712  18.985  0.00  0.00    +0.000 C 
ATOM      7  C   UNL     1      -9.917  17.488  18.123  0.00  0.00    +0.000 C 
BRANCH   6   8
ATOM      8  C   UNL     1     -11.747  17.999  20.089  0.00  0.00    +0.000 C 
BRANCH   8   9
ATOM      9  C   UNL     1     -12.606  18.241  21.029  0.00  0.00    +0.000 C 
ATOM     10  C   UNL     1     -13.767  19.153  20.774  0.00  0.00    +0.000 C 
BRANCH   9  12
ATOM     11  C   UNL     1     -12.192  17.311  23.443  0.00  0.00    +0.000 C 
ATOM     12  C   UNL     1     -12.383  17.735  22.334  0.00  0.00    +0.000 C 
BRANCH  11  18
ATOM     13  C   UNL     1     -11.552  17.756  25.825  0.00  0.00    +0.000 C 
ATOM     14  C   UNL     1     -12.087  15.360  24.962  0.00  0.00    +0.000 C 
ATOM     15  C   UNL     1     -11.671  17.060  27.113  0.00  0.00    +0.000 C 
ATOM     16  C   UNL     1     -11.969  15.776  27.609  0.00  0.00    +0.000 C 
ATOM     17  C   UNL     1     -12.150  15.087  26.393  0.00  0.00    +0.000 C 
ATOM     18  C   UNL     1     -11.978  16.846  24.658  0.00  0.00    +0.000 C 
ATOM     19  C   UNL     1     -10.082  18.198  25.595  0.00  0.00    +0.000 C 
ATOM     20  C   UNL     1     -12.482  19.006  25.862  0.00  0.00    +0.000 C 
ATOM     21  C   UNL     1     -10.950  14.582  24.294  0.00  0.00    +0.000 C 
BRANCH  14  22
ATOM     22  O   UNL     1     -13.267  14.855  24.377  0.00  0.00    +0.000 OA
ATOM     23  H   UNL     1     -13.220  13.914  24.631  0.00  0.00    +0.000 HD
ENDBRANCH  14  22
BRANCH  16  24
ATOM     24  O   UNL     1     -11.173  15.237  28.612  0.00  0.00    +0.000 OA
BRANCH  24  26
ATOM     25  O   UNL     1     -12.879  14.558  30.073  0.00  0.00    +0.000 OA
ATOM     26  C   UNL     1     -11.901  14.380  29.371  0.00  0.00    +0.000 C 
ATOM     27  C   UNL     1     -11.407  12.977  29.347  0.00  0.00    +0.000 C 
ENDBRANCH  24  26
ENDBRANCH  16  24
ENDBRANCH  11  18
ENDBRANCH   9  12
ENDBRANCH   8   9
ENDBRANCH   6   8
ENDBRANCH   4   7
ENDBRANCH   3   4
ENDBRANCH   2   3
BRANCH   1  28
ATOM     28  C   UNL     1      -6.524  12.232  16.825  0.00  0.00    +0.000 C 
BRANCH  28  29
ATOM     29  C   UNL     1      -5.943  11.077  16.746  0.00  0.00    +0.000 C 
ATOM     30  C   UNL     1      -4.451  10.994  16.635  0.00  0.00    +0.000 C 
BRANCH  29  32
ATOM     31  C   UNL     1      -7.393   8.899  16.718  0.00  0.00    +0.000 C 
ATOM     32  C   UNL     1      -6.724   9.896  16.724  0.00  0.00    +0.000 C 
BRANCH  31  33
ATOM     33  C   UNL     1      -8.254   7.630  16.725  0.00  0.00    +0.000 C 
BRANCH  33  34
ATOM     34  C   UNL     1      -8.977   6.550  16.727  0.00  0.00    +0.000 C 
ATOM     35  C   UNL     1     -10.332   6.636  17.399  0.00  0.00    +0.000 C 
BRANCH  34  37
ATOM     36  O   UNL     1      -9.101   4.610  15.337  0.00  0.00    +0.000 OA
ATOM     37  C   UNL     1      -8.449   5.285  16.127  0.00  0.00    +0.000 C 
BRANCH  37  38
ATOM     38  C   UNL     1      -7.130   4.801  16.456  0.00  0.00    +0.000 C 
BRANCH  38  40
ATOM     39  O   UNL     1      -5.167   5.179  17.740  0.00  0.00    +0.000 OA
ATOM     40  C   UNL     1      -5.796   4.315  16.753  0.00  0.00    +0.000 C 
ATOM     41  C   UNL     1      -5.462   3.858  18.189  0.00  0.00    +0.000 C 
ATOM     42  C   UNL     1      -4.880   3.805  15.583  0.00  0.00    +0.000 C 
ATOM     43  C   UNL     1      -4.283   3.073  18.366  0.00  0.00    +0.000 C 
ATOM     44  C   UNL     1      -3.745   3.115  16.200  0.00  0.00    +0.000 C 
ATOM     45  C   UNL     1      -3.302   2.649  17.453  0.00  0.00    +0.000 C 
ATOM     46  C   UNL     1      -6.502   3.817  19.313  0.00  0.00    +0.000 C 
ATOM     47  C   UNL     1      -5.758   2.821  14.772  0.00  0.00    +0.000 C 
ATOM     48  C   UNL     1      -4.491   5.059  14.770  0.00  0.00    +0.000 C 
BRANCH  45  49
ATOM     49  O   UNL     1      -2.641   1.465  17.578  0.00  0.00    +0.000 OA
ATOM     50  H   UNL     1      -2.383   1.091  16.718  0.00  0.00    +0.000 HD
ENDBRANCH  45  49
ENDBRANCH  38  40
ENDBRANCH  37  38
ENDBRANCH  34  37
ENDBRANCH  33  34
ENDBRANCH  31  33
ENDBRANCH  29  32
ENDBRANCH  28  29
ENDBRANCH   1  28
TORSDOF 19
ENDMDL
MODEL 3
REMARK VINA RESULT:      -5.3      4.865      9.307
REMARK  Name = 5281239_Fucoxanthin.pdbqt.pdb
REMARK  19 active torsions:
REMARK  status: ('A' for Active; 'I' for Inactive)
REMARK    1  A    between atoms: C_1  and  C_5
REMARK    2  A    between atoms: C_2  and  C_26
REMARK    3  A    between atoms: C_3  and  C_5
REMARK    4  A    between atoms: C_3  and  C_7
REMARK    5  A    between atoms: C_6  and  C_10
REMARK    6  A    between atoms: C_8  and  C_10
REMARK    7  A    between atoms: C_8  and  C_12
REMARK    8  A    between atoms: C_12  and  C_13
REMARK    9  A    between atoms: C_13  and  C_15
REMARK   10  A    between atoms: C_20  and  O_24
REMARK   11  A    between atoms: C_26  and  C_27
REMARK   12  A    between atoms: C_27  and  C_30
REMARK   13  A    between atoms: C_29  and  C_33
REMARK   14  A    between atoms: C_31  and  C_33
REMARK   15  A    between atoms: C_31  and  C_44
REMARK   16  A    between atoms: C_35  and  O_45
REMARK   17  A    between atoms: C_37  and  O_47
REMARK   18  A    between atoms: C_39  and  C_43
REMARK   19  A    between atoms: O_47  and  C_49
REMARK                            x       y       z     vdW  Elec       q    Type
REMARK                         _______ _______ _______ _____ _____    ______ ____
ROOT
ATOM      1  C   UNL     1      -2.342   4.885  15.140  0.00  0.00    +0.000 C 
ATOM      2  C   UNL     1      -1.506   5.727  14.969  0.00  0.00    +0.000 C 
ENDROOT
BRANCH   2   3
ATOM      3  C   UNL     1      -0.433   6.803  14.758  0.00  0.00    +0.000 C 
BRANCH   3   4
ATOM      4  C   UNL     1       0.470   7.715  14.578  0.00  0.00    +0.000 C 
ATOM      5  C   UNL     1       1.892   7.318  14.324  0.00  0.00    +0.000 C 
BRANCH   4   7
ATOM      6  C   UNL     1      -0.208  10.242  14.564  0.00  0.00    +0.000 C 
ATOM      7  C   UNL     1       0.102   9.081  14.570  0.00  0.00    +0.000 C 
BRANCH   6   8
ATOM      8  C   UNL     1      -0.599  11.724  14.551  0.00  0.00    +0.000 C 
BRANCH   8   9
ATOM      9  C   UNL     1      -0.933  12.977  14.551  0.00  0.00    +0.000 C 
ATOM     10  C   UNL     1       0.088  14.029  14.246  0.00  0.00    +0.000 C 
BRANCH   9  12
ATOM     11  C   UNL     1      -3.346  13.678  15.293  0.00  0.00    +0.000 C 
ATOM     12  C   UNL     1      -2.237  13.358  14.954  0.00  0.00    +0.000 C 
BRANCH  11  18
ATOM     13  C   UNL     1      -5.081  15.471  15.521  0.00  0.00    +0.000 C 
ATOM     14  C   UNL     1      -5.511  13.026  16.299  0.00  0.00    +0.000 C 
ATOM     15  C   UNL     1      -6.537  15.535  15.713  0.00  0.00    +0.000 C 
ATOM     16  C   UNL     1      -7.603  14.691  16.080  0.00  0.00    +0.000 C 
ATOM     17  C   UNL     1      -6.890  13.498  16.322  0.00  0.00    +0.000 C 
ATOM     18  C   UNL     1      -4.563  14.029  15.659  0.00  0.00    +0.000 C 
ATOM     19  C   UNL     1      -4.368  16.356  16.578  0.00  0.00    +0.000 C 
ATOM     20  C   UNL     1      -4.759  15.993  14.088  0.00  0.00    +0.000 C 
ATOM     21  C   UNL     1      -5.030  12.638  17.700  0.00  0.00    +0.000 C 
BRANCH  14  22
ATOM     22  O   UNL     1      -5.482  11.826  15.559  0.00  0.00    +0.000 OA
ATOM     23  H   UNL     1      -4.647  11.923  15.065  0.00  0.00    +0.000 HD
ENDBRANCH  14  22
BRANCH  16  24
ATOM     24  O   UNL     1      -8.542  15.147  16.995  0.00  0.00    +0.000 OA
BRANCH  24  26
ATOM     25  O   UNL     1      -8.964  17.315  16.203  0.00  0.00    +0.000 OA
ATOM     26  C   UNL     1      -8.553  16.503  17.012  0.00  0.00    +0.000 C 
ATOM     27  C   UNL     1      -7.943  17.102  18.230  0.00  0.00    +0.000 C 
ENDBRANCH  24  26
ENDBRANCH  16  24
ENDBRANCH  11  18
ENDBRANCH   9  12
ENDBRANCH   8   9
ENDBRANCH   6   8
ENDBRANCH   4   7
ENDBRANCH   3   4
ENDBRANCH   2   3
BRANCH   1  28
ATOM     28  C   UNL     1      -3.408   3.806  15.368  0.00  0.00    +0.000 C 
BRANCH  28  29
ATOM     29  C   UNL     1      -4.316   2.903  15.560  0.00  0.00    +0.000 C 
ATOM     30  C   UNL     1      -3.951   1.451  15.514  0.00  0.00    +0.000 C 
BRANCH  29  32
ATOM     31  C   UNL     1      -6.798   3.620  15.972  0.00  0.00    +0.000 C 
ATOM     32  C   UNL     1      -5.660   3.291  15.775  0.00  0.00    +0.000 C 
BRANCH  31  33
ATOM     33  C   UNL     1      -8.249   4.040  16.239  0.00  0.00    +0.000 C 
BRANCH  33  34
ATOM     34  C   UNL     1      -9.476   4.402  16.471  0.00  0.00    +0.000 C 
ATOM     35  C   UNL     1     -10.197   5.124  15.351  0.00  0.00    +0.000 C 
BRANCH  34  37
ATOM     36  O   UNL     1     -10.588   3.061  18.106  0.00  0.00    +0.000 OA
ATOM     37  C   UNL     1     -10.102   4.146  17.805  0.00  0.00    +0.000 C 
BRANCH  37  38
ATOM     38  C   UNL     1     -10.156   5.181  18.810  0.00  0.00    +0.000 C 
BRANCH  38  40
ATOM     39  O   UNL     1     -11.401   7.068  19.541  0.00  0.00    +0.000 OA
ATOM     40  C   UNL     1     -10.237   6.236  19.802  0.00  0.00    +0.000 C 
ATOM     41  C   UNL     1     -11.461   6.297  20.740  0.00  0.00    +0.000 C 
ATOM     42  C   UNL     1      -8.928   6.981  20.247  0.00  0.00    +0.000 C 
ATOM     43  C   UNL     1     -11.348   7.109  21.908  0.00  0.00    +0.000 C 
ATOM     44  C   UNL     1      -9.264   7.759  21.441  0.00  0.00    +0.000 C 
ATOM     45  C   UNL     1     -10.306   7.931  22.372  0.00  0.00    +0.000 C 
ATOM     46  C   UNL     1     -12.572   5.244  20.729  0.00  0.00    +0.000 C 
ATOM     47  C   UNL     1      -7.908   5.864  20.576  0.00  0.00    +0.000 C 
ATOM     48  C   UNL     1      -8.495   7.838  19.036  0.00  0.00    +0.000 C 
BRANCH  45  49
ATOM     49  O   UNL     1     -10.053   8.122  23.697  0.00  0.00    +0.000 OA
ATOM     50  H   UNL     1      -9.762   9.030  23.892  0.00  0.00    +0.000 HD
ENDBRANCH  45  49
ENDBRANCH  38  40
ENDBRANCH  37  38
ENDBRANCH  34  37
ENDBRANCH  33  34
ENDBRANCH  31  33
ENDBRANCH  29  32
ENDBRANCH  28  29
ENDBRANCH   1  28
TORSDOF 19
ENDMDL
MODEL 4
REMARK VINA RESULT:      -5.1      5.325      9.989
REMARK  Name = 5281239_Fucoxanthin.pdbqt.pdb
REMARK  19 active torsions:
REMARK  status: ('A' for Active; 'I' for Inactive)
REMARK    1  A    between atoms: C_1  and  C_5
REMARK    2  A    between atoms: C_2  and  C_26
REMARK    3  A    between atoms: C_3  and  C_5
REMARK    4  A    between atoms: C_3  and  C_7
REMARK    5  A    between atoms: C_6  and  C_10
REMARK    6  A    between atoms: C_8  and  C_10
REMARK    7  A    between atoms: C_8  and  C_12
REMARK    8  A    between atoms: C_12  and  C_13
REMARK    9  A    between atoms: C_13  and  C_15
REMARK   10  A    between atoms: C_20  and  O_24
REMARK   11  A    between atoms: C_26  and  C_27
REMARK   12  A    between atoms: C_27  and  C_30
REMARK   13  A    between atoms: C_29  and  C_33
REMARK   14  A    between atoms: C_31  and  C_33
REMARK   15  A    between atoms: C_31  and  C_44
REMARK   16  A    between atoms: C_35  and  O_45
REMARK   17  A    between atoms: C_37  and  O_47
REMARK   18  A    between atoms: C_39  and  C_43
REMARK   19  A    between atoms: O_47  and  C_49
REMARK                            x       y       z     vdW  Elec       q    Type
REMARK                         _______ _______ _______ _____ _____    ______ ____
ROOT
ATOM      1  C   UNL     1      -3.100   5.068  14.984  0.00  0.00    +0.000 C 
ATOM      2  C   UNL     1      -2.116   5.744  14.870  0.00  0.00    +0.000 C 
ENDROOT
BRANCH   2   3
ATOM      3  C   UNL     1      -0.855   6.606  14.731  0.00  0.00    +0.000 C 
BRANCH   3   4
ATOM      4  C   UNL     1       0.207   7.338  14.612  0.00  0.00    +0.000 C 
ATOM      5  C   UNL     1       1.563   6.717  14.758  0.00  0.00    +0.000 C 
BRANCH   4   7
ATOM      6  C   UNL     1      -0.013   9.878  14.024  0.00  0.00    +0.000 C 
ATOM      7  C   UNL     1       0.087   8.712  14.294  0.00  0.00    +0.000 C 
BRANCH   6   8
ATOM      8  C   UNL     1      -0.136  11.366  13.675  0.00  0.00    +0.000 C 
BRANCH   8   9
ATOM      9  C   UNL     1      -0.242  12.626  13.391  0.00  0.00    +0.000 C 
ATOM     10  C   UNL     1       0.815  13.306  12.576  0.00  0.00    +0.000 C 
BRANCH   9  12
ATOM     11  C   UNL     1      -2.200  14.032  14.419  0.00  0.00    +0.000 C 
ATOM     12  C   UNL     1      -1.299  13.388  13.948  0.00  0.00    +0.000 C 
BRANCH  11  18
ATOM     13  C   UNL     1      -3.713  16.023  14.263  0.00  0.00    +0.000 C 
ATOM     14  C   UNL     1      -3.833  14.348  16.250  0.00  0.00    +0.000 C 
ATOM     15  C   UNL     1      -4.989  16.447  14.855  0.00  0.00    +0.000 C 
ATOM     16  C   UNL     1      -5.844  16.091  15.915  0.00  0.00    +0.000 C 
ATOM     17  C   UNL     1      -5.100  15.033  16.477  0.00  0.00    +0.000 C 
ATOM     18  C   UNL     1      -3.188  14.739  14.929  0.00  0.00    +0.000 C 
ATOM     19  C   UNL     1      -2.650  17.141  14.440  0.00  0.00    +0.000 C 
ATOM     20  C   UNL     1      -3.948  15.751  12.746  0.00  0.00    +0.000 C 
ATOM     21  C   UNL     1      -2.864  14.568  17.416  0.00  0.00    +0.000 C 
BRANCH  14  22
ATOM     22  O   UNL     1      -4.090  12.962  16.247  0.00  0.00    +0.000 OA
ATOM     23  H   UNL     1      -3.500  12.657  15.533  0.00  0.00    +0.000 HD
ENDBRANCH  14  22
BRANCH  16  24
ATOM     24  O   UNL     1      -6.369  17.089  16.725  0.00  0.00    +0.000 OA
BRANCH  24  26
ATOM     25  O   UNL     1      -7.509  16.322  18.627  0.00  0.00    +0.000 OA
ATOM     26  C   UNL     1      -7.409  16.602  17.447  0.00  0.00    +0.000 C 
ATOM     27  C   UNL     1      -8.641  16.355  16.649  0.00  0.00    +0.000 C 
ENDBRANCH  24  26
ENDBRANCH  16  24
ENDBRANCH  11  18
ENDBRANCH   9  12
ENDBRANCH   8   9
ENDBRANCH   6   8
ENDBRANCH   4   7
ENDBRANCH   3   4
ENDBRANCH   2   3
BRANCH   1  28
ATOM     28  C   UNL     1      -4.355   4.200  15.138  0.00  0.00    +0.000 C 
BRANCH  28  29
ATOM     29  C   UNL     1      -5.421   3.477  15.271  0.00  0.00    +0.000 C 
ATOM     30  C   UNL     1      -5.435   2.064  14.773  0.00  0.00    +0.000 C 
BRANCH  29  32
ATOM     31  C   UNL     1      -7.569   4.506  16.354  0.00  0.00    +0.000 C 
ATOM     32  C   UNL     1      -6.585   4.038  15.850  0.00  0.00    +0.000 C 
BRANCH  31  33
ATOM     33  C   UNL     1      -8.823   5.096  17.011  0.00  0.00    +0.000 C 
BRANCH  33  34
ATOM     34  C   UNL     1      -9.881   5.597  17.576  0.00  0.00    +0.000 C 
ATOM     35  C   UNL     1     -10.111   7.084  17.397  0.00  0.00    +0.000 C 
BRANCH  34  37
ATOM     36  O   UNL     1     -11.305   3.714  17.947  0.00  0.00    +0.000 OA
ATOM     37  C   UNL     1     -10.784   4.731  18.395  0.00  0.00    +0.000 C 
BRANCH  37  38
ATOM     38  C   UNL     1     -11.082   5.059  19.769  0.00  0.00    +0.000 C 
BRANCH  38  40
ATOM     39  O   UNL     1     -10.100   5.516  21.883  0.00  0.00    +0.000 OA
ATOM     40  C   UNL     1     -11.353   5.372  21.159  0.00  0.00    +0.000 C 
ATOM     41  C   UNL     1     -10.859   6.714  21.739  0.00  0.00    +0.000 C 
ATOM     42  C   UNL     1     -12.514   4.626  21.908  0.00  0.00    +0.000 C 
ATOM     43  C   UNL     1     -11.431   7.141  22.975  0.00  0.00    +0.000 C 
ATOM     44  C   UNL     1     -12.743   5.344  23.164  0.00  0.00    +0.000 C 
ATOM     45  C   UNL     1     -12.371   6.531  23.824  0.00  0.00    +0.000 C 
ATOM     46  C   UNL     1     -10.157   7.780  20.892  0.00  0.00    +0.000 C 
ATOM     47  C   UNL     1     -13.744   4.731  20.974  0.00  0.00    +0.000 C 
ATOM     48  C   UNL     1     -12.034   3.169  22.092  0.00  0.00    +0.000 C 
BRANCH  45  49
ATOM     49  O   UNL     1     -13.266   7.243  24.565  0.00  0.00    +0.000 OA
ATOM     50  H   UNL     1     -13.430   6.840  25.436  0.00  0.00    +0.000 HD
ENDBRANCH  45  49
ENDBRANCH  38  40
ENDBRANCH  37  38
ENDBRANCH  34  37
ENDBRANCH  33  34
ENDBRANCH  31  33
ENDBRANCH  29  32
ENDBRANCH  28  29
ENDBRANCH   1  28
TORSDOF 19
ENDMDL
MODEL 5
REMARK VINA RESULT:      -5.1     17.742     22.731
REMARK  Name = 5281239_Fucoxanthin.pdbqt.pdb
REMARK  19 active torsions:
REMARK  status: ('A' for Active; 'I' for Inactive)
REMARK    1  A    between atoms: C_1  and  C_5
REMARK    2  A    between atoms: C_2  and  C_26
REMARK    3  A    between atoms: C_3  and  C_5
REMARK    4  A    between atoms: C_3  and  C_7
REMARK    5  A    between atoms: C_6  and  C_10
REMARK    6  A    between atoms: C_8  and  C_10
REMARK    7  A    between atoms: C_8  and  C_12
REMARK    8  A    between atoms: C_12  and  C_13
REMARK    9  A    between atoms: C_13  and  C_15
REMARK   10  A    between atoms: C_20  and  O_24
REMARK   11  A    between atoms: C_26  and  C_27
REMARK   12  A    between atoms: C_27  and  C_30
REMARK   13  A    between atoms: C_29  and  C_33
REMARK   14  A    between atoms: C_31  and  C_33
REMARK   15  A    between atoms: C_31  and  C_44
REMARK   16  A    between atoms: C_35  and  O_45
REMARK   17  A    between atoms: C_37  and  O_47
REMARK   18  A    between atoms: C_39  and  C_43
REMARK   19  A    between atoms: O_47  and  C_49
REMARK                            x       y       z     vdW  Elec       q    Type
REMARK                         _______ _______ _______ _____ _____    ______ ____
ROOT
ATOM      1  C   UNL     1     -10.263  13.246  -4.460  0.00  0.00    +0.000 C 
ATOM      2  C   UNL     1      -9.165  13.459  -4.025  0.00  0.00    +0.000 C 
ENDROOT
BRANCH   2   3
ATOM      3  C   UNL     1      -7.764  13.739  -3.469  0.00  0.00    +0.000 C 
BRANCH   3   4
ATOM      4  C   UNL     1      -6.581  13.979  -2.998  0.00  0.00    +0.000 C 
ATOM      5  C   UNL     1      -5.420  13.135  -3.427  0.00  0.00    +0.000 C 
BRANCH   4   7
ATOM      6  C   UNL     1      -6.211  15.994  -1.370  0.00  0.00    +0.000 C 
ATOM      7  C   UNL     1      -6.379  15.070  -2.118  0.00  0.00    +0.000 C 
BRANCH   6   8
ATOM      8  C   UNL     1      -5.996  17.171  -0.411  0.00  0.00    +0.000 C 
BRANCH   8   9
ATOM      9  C   UNL     1      -5.805  18.167   0.396  0.00  0.00    +0.000 C 
ATOM     10  C   UNL     1      -6.083  19.568  -0.055  0.00  0.00    +0.000 C 
BRANCH   9  12
ATOM     11  C   UNL     1      -4.721  17.751   2.745  0.00  0.00    +0.000 C 
ATOM     12  C   UNL     1      -5.221  17.940   1.668  0.00  0.00    +0.000 C 
BRANCH  11  18
ATOM     13  C   UNL     1      -3.837  18.688   4.895  0.00  0.00    +0.000 C 
ATOM     14  C   UNL     1      -3.777  16.140   4.369  0.00  0.00    +0.000 C 
ATOM     15  C   UNL     1      -3.517  18.176   6.234  0.00  0.00    +0.000 C 
ATOM     16  C   UNL     1      -3.327  16.944   6.889  0.00  0.00    +0.000 C 
ATOM     17  C   UNL     1      -3.505  16.066   5.800  0.00  0.00    +0.000 C 
ATOM     18  C   UNL     1      -4.170  17.540   3.924  0.00  0.00    +0.000 C 
ATOM     19  C   UNL     1      -2.629  19.480   4.327  0.00  0.00    +0.000 C 
ATOM     20  C   UNL     1      -5.076  19.626   5.018  0.00  0.00    +0.000 C 
ATOM     21  C   UNL     1      -2.595  15.618   3.548  0.00  0.00    +0.000 C 
BRANCH  14  22
ATOM     22  O   UNL     1      -4.836  15.252   4.088  0.00  0.00    +0.000 OA
ATOM     23  H   UNL     1      -5.526  15.575   4.696  0.00  0.00    +0.000 HD
ENDBRANCH  14  22
BRANCH  16  24
ATOM     24  O   UNL     1      -2.245  16.792   7.746  0.00  0.00    +0.000 OA
BRANCH  24  26
ATOM     25  O   UNL     1      -0.532  16.847   6.144  0.00  0.00    +0.000 OA
ATOM     26  C   UNL     1      -1.112  17.230   7.143  0.00  0.00    +0.000 C 
ATOM     27  C   UNL     1      -0.458  18.374   7.834  0.00  0.00    +0.000 C 
ENDBRANCH  24  26
ENDBRANCH  16  24
ENDBRANCH  11  18
ENDBRANCH   9  12
ENDBRANCH   8   9
ENDBRANCH   6   8
ENDBRANCH   4   7
ENDBRANCH   3   4
ENDBRANCH   2   3
BRANCH   1  28
ATOM     28  C   UNL     1     -11.668  12.984  -5.016  0.00  0.00    +0.000 C 
BRANCH  28  29
ATOM     29  C   UNL     1     -12.855  12.753  -5.480  0.00  0.00    +0.000 C 
ATOM     30  C   UNL     1     -13.365  13.530  -6.655  0.00  0.00    +0.000 C 
BRANCH  29  32
ATOM     31  C   UNL     1     -14.387  10.973  -4.328  0.00  0.00    +0.000 C 
ATOM     32  C   UNL     1     -13.682  11.792  -4.850  0.00  0.00    +0.000 C 
BRANCH  31  33
ATOM     33  C   UNL     1     -15.293   9.921  -3.676  0.00  0.00    +0.000 C 
BRANCH  33  34
ATOM     34  C   UNL     1     -16.060   9.023  -3.131  0.00  0.00    +0.000 C 
ATOM     35  C   UNL     1     -17.498   8.976  -3.605  0.00  0.00    +0.000 C 
BRANCH  34  37
ATOM     36  O   UNL     1     -15.038   8.562  -1.021  0.00  0.00    +0.000 OA
ATOM     37  C   UNL     1     -15.531   8.127  -2.057  0.00  0.00    +0.000 C 
BRANCH  37  38
ATOM     38  C   UNL     1     -15.583   6.691  -2.196  0.00  0.00    +0.000 C 
BRANCH  38  40
ATOM     39  O   UNL     1     -16.138   4.682  -1.057  0.00  0.00    +0.000 OA
ATOM     40  C   UNL     1     -15.653   5.247  -2.306  0.00  0.00    +0.000 C 
ATOM     41  C   UNL     1     -17.021   4.546  -2.168  0.00  0.00    +0.000 C 
ATOM     42  C   UNL     1     -14.493   4.468  -3.025  0.00  0.00    +0.000 C 
ATOM     43  C   UNL     1     -17.112   3.196  -2.622  0.00  0.00    +0.000 C 
ATOM     44  C   UNL     1     -14.970   3.101  -3.246  0.00  0.00    +0.000 C 
ATOM     45  C   UNL     1     -16.145   2.329  -3.160  0.00  0.00    +0.000 C 
ATOM     46  C   UNL     1     -18.336   5.312  -1.996  0.00  0.00    +0.000 C 
ATOM     47  C   UNL     1     -14.270   5.206  -4.367  0.00  0.00    +0.000 C 
ATOM     48  C   UNL     1     -13.271   4.566  -2.086  0.00  0.00    +0.000 C 
BRANCH  45  49
ATOM     49  O   UNL     1     -16.442   1.380  -4.090  0.00  0.00    +0.000 OA
ATOM     50  H   UNL     1     -16.067   0.510  -3.865  0.00  0.00    +0.000 HD
ENDBRANCH  45  49
ENDBRANCH  38  40
ENDBRANCH  37  38
ENDBRANCH  34  37
ENDBRANCH  33  34
ENDBRANCH  31  33
ENDBRANCH  29  32
ENDBRANCH  28  29
ENDBRANCH   1  28
TORSDOF 19
ENDMDL
MODEL 6
REMARK VINA RESULT:      -4.9      5.894     10.120
REMARK  Name = 5281239_Fucoxanthin.pdbqt.pdb
REMARK  19 active torsions:
REMARK  status: ('A' for Active; 'I' for Inactive)
REMARK    1  A    between atoms: C_1  and  C_5
REMARK    2  A    between atoms: C_2  and  C_26
REMARK    3  A    between atoms: C_3  and  C_5
REMARK    4  A    between atoms: C_3  and  C_7
REMARK    5  A    between atoms: C_6  and  C_10
REMARK    6  A    between atoms: C_8  and  C_10
REMARK    7  A    between atoms: C_8  and  C_12
REMARK    8  A    between atoms: C_12  and  C_13
REMARK    9  A    between atoms: C_13  and  C_15
REMARK   10  A    between atoms: C_20  and  O_24
REMARK   11  A    between atoms: C_26  and  C_27
REMARK   12  A    between atoms: C_27  and  C_30
REMARK   13  A    between atoms: C_29  and  C_33
REMARK   14  A    between atoms: C_31  and  C_33
REMARK   15  A    between atoms: C_31  and  C_44
REMARK   16  A    between atoms: C_35  and  O_45
REMARK   17  A    between atoms: C_37  and  O_47
REMARK   18  A    between atoms: C_39  and  C_43
REMARK   19  A    between atoms: O_47  and  C_49
REMARK                            x       y       z     vdW  Elec       q    Type
REMARK                         _______ _______ _______ _____ _____    ______ ____
ROOT
ATOM      1  C   UNL     1      -3.106   5.087  14.965  0.00  0.00    +0.000 C 
ATOM      2  C   UNL     1      -2.140   5.796  14.912  0.00  0.00    +0.000 C 
ENDROOT
BRANCH   2   3
ATOM      3  C   UNL     1      -0.903   6.700  14.851  0.00  0.00    +0.000 C 
BRANCH   3   4
ATOM      4  C   UNL     1       0.141   7.467  14.798  0.00  0.00    +0.000 C 
ATOM      5  C   UNL     1       1.500   6.900  15.070  0.00  0.00    +0.000 C 
BRANCH   4   7
ATOM      6  C   UNL     1      -0.118   9.982  14.123  0.00  0.00    +0.000 C 
ATOM      7  C   UNL     1      -0.001   8.827  14.433  0.00  0.00    +0.000 C 
BRANCH   6   8
ATOM      8  C   UNL     1      -0.264  11.455  13.724  0.00  0.00    +0.000 C 
BRANCH   8   9
ATOM      9  C   UNL     1      -0.389  12.703  13.397  0.00  0.00    +0.000 C 
ATOM     10  C   UNL     1       0.667  13.376  12.574  0.00  0.00    +0.000 C 
BRANCH   9  12
ATOM     11  C   UNL     1      -2.379  14.109  14.360  0.00  0.00    +0.000 C 
ATOM     12  C   UNL     1      -1.467  13.463  13.915  0.00  0.00    +0.000 C 
BRANCH  11  18
ATOM     13  C   UNL     1      -4.504  14.179  15.685  0.00  0.00    +0.000 C 
ATOM     14  C   UNL     1      -3.502  16.304  14.568  0.00  0.00    +0.000 C 
ATOM     15  C   UNL     1      -5.315  15.205  16.355  0.00  0.00    +0.000 C 
ATOM     16  C   UNL     1      -5.440  16.607  16.397  0.00  0.00    +0.000 C 
ATOM     17  C   UNL     1      -4.456  16.962  15.453  0.00  0.00    +0.000 C 
ATOM     18  C   UNL     1      -3.378  14.815  14.851  0.00  0.00    +0.000 C 
ATOM     19  C   UNL     1      -5.398  13.329  14.742  0.00  0.00    +0.000 C 
ATOM     20  C   UNL     1      -3.874  13.267  16.782  0.00  0.00    +0.000 C 
ATOM     21  C   UNL     1      -3.842  16.553  13.095  0.00  0.00    +0.000 C 
BRANCH  14  22
ATOM     22  O   UNL     1      -2.247  16.917  14.759  0.00  0.00    +0.000 OA
ATOM     23  H   UNL     1      -2.510  17.810  15.049  0.00  0.00    +0.000 HD
ENDBRANCH  14  22
BRANCH  16  24
ATOM     24  O   UNL     1      -6.706  17.175  16.341  0.00  0.00    +0.000 OA
BRANCH  24  26
ATOM     25  O   UNL     1      -6.740  19.492  15.977  0.00  0.00    +0.000 OA
ATOM     26  C   UNL     1      -6.638  18.491  16.662  0.00  0.00    +0.000 C 
ATOM     27  C   UNL     1      -6.383  18.754  18.104  0.00  0.00    +0.000 C 
ENDBRANCH  24  26
ENDBRANCH  16  24
ENDBRANCH  11  18
ENDBRANCH   9  12
ENDBRANCH   8   9
ENDBRANCH   6   8
ENDBRANCH   4   7
ENDBRANCH   3   4
ENDBRANCH   2   3
BRANCH   1  28
ATOM     28  C   UNL     1      -4.338   4.178  15.042  0.00  0.00    +0.000 C 
BRANCH  28  29
ATOM     29  C   UNL     1      -5.386   3.419  15.109  0.00  0.00    +0.000 C 
ATOM     30  C   UNL     1      -5.391   2.087  14.422  0.00  0.00    +0.000 C 
BRANCH  29  32
ATOM     31  C   UNL     1      -7.510   4.240  16.396  0.00  0.00    +0.000 C 
ATOM     32  C   UNL     1      -6.537   3.867  15.799  0.00  0.00    +0.000 C 
BRANCH  31  33
ATOM     33  C   UNL     1      -8.749   4.705  17.170  0.00  0.00    +0.000 C 
BRANCH  33  34
ATOM     34  C   UNL     1      -9.795   5.101  17.834  0.00  0.00    +0.000 C 
ATOM     35  C   UNL     1     -10.090   6.587  17.822  0.00  0.00    +0.000 C 
BRANCH  34  37
ATOM     36  O   UNL     1     -10.696   2.934  18.287  0.00  0.00    +0.000 OA
ATOM     37  C   UNL     1     -10.620   4.118  18.602  0.00  0.00    +0.000 C 
BRANCH  37  38
ATOM     38  C   UNL     1     -11.370   4.527  19.766  0.00  0.00    +0.000 C 
BRANCH  38  40
ATOM     39  O   UNL     1     -13.430   5.476  20.472  0.00  0.00    +0.000 OA
ATOM     40  C   UNL     1     -12.147   4.954  20.914  0.00  0.00    +0.000 C 
ATOM     41  C   UNL     1     -13.492   4.260  21.214  0.00  0.00    +0.000 C 
ATOM     42  C   UNL     1     -11.439   5.730  22.082  0.00  0.00    +0.000 C 
ATOM     43  C   UNL     1     -14.049   4.450  22.515  0.00  0.00    +0.000 C 
ATOM     44  C   UNL     1     -12.378   5.762  23.205  0.00  0.00    +0.000 C 
ATOM     45  C   UNL     1     -13.610   5.212  23.611  0.00  0.00    +0.000 C 
ATOM     46  C   UNL     1     -14.020   3.077  20.397  0.00  0.00    +0.000 C 
ATOM     47  C   UNL     1     -10.182   4.896  22.429  0.00  0.00    +0.000 C 
ATOM     48  C   UNL     1     -11.086   7.122  21.514  0.00  0.00    +0.000 C 
BRANCH  45  49
ATOM     49  O   UNL     1     -13.830   4.839  24.903  0.00  0.00    +0.000 OA
ATOM     50  H   UNL     1     -14.006   5.600  25.484  0.00  0.00    +0.000 HD
ENDBRANCH  45  49
ENDBRANCH  38  40
ENDBRANCH  37  38
ENDBRANCH  34  37
ENDBRANCH  33  34
ENDBRANCH  31  33
ENDBRANCH  29  32
ENDBRANCH  28  29
ENDBRANCH   1  28
TORSDOF 19
ENDMDL
MODEL 7
REMARK VINA RESULT:      -4.9      8.019     14.616
REMARK  Name = 5281239_Fucoxanthin.pdbqt.pdb
REMARK  19 active torsions:
REMARK  status: ('A' for Active; 'I' for Inactive)
REMARK    1  A    between atoms: C_1  and  C_5
REMARK    2  A    between atoms: C_2  and  C_26
REMARK    3  A    between atoms: C_3  and  C_5
REMARK    4  A    between atoms: C_3  and  C_7
REMARK    5  A    between atoms: C_6  and  C_10
REMARK    6  A    between atoms: C_8  and  C_10
REMARK    7  A    between atoms: C_8  and  C_12
REMARK    8  A    between atoms: C_12  and  C_13
REMARK    9  A    between atoms: C_13  and  C_15
REMARK   10  A    between atoms: C_20  and  O_24
REMARK   11  A    between atoms: C_26  and  C_27
REMARK   12  A    between atoms: C_27  and  C_30
REMARK   13  A    between atoms: C_29  and  C_33
REMARK   14  A    between atoms: C_31  and  C_33
REMARK   15  A    between atoms: C_31  and  C_44
REMARK   16  A    between atoms: C_35  and  O_45
REMARK   17  A    between atoms: C_37  and  O_47
REMARK   18  A    between atoms: C_39  and  C_43
REMARK   19  A    between atoms: O_47  and  C_49
REMARK                            x       y       z     vdW  Elec       q    Type
REMARK                         _______ _______ _______ _____ _____    ______ ____
ROOT
ATOM      1  C   UNL     1     -10.414  -4.456  19.334  0.00  0.00    +0.000 C 
ATOM      2  C   UNL     1     -11.402  -3.776  19.355  0.00  0.00    +0.000 C 
ENDROOT
BRANCH   2   3
ATOM      3  C   UNL     1     -12.668  -2.912  19.378  0.00  0.00    +0.000 C 
BRANCH   3   4
ATOM      4  C   UNL     1     -13.737  -2.179  19.395  0.00  0.00    +0.000 C 
ATOM      5  C   UNL     1     -15.081  -2.812  19.206  0.00  0.00    +0.000 C 
BRANCH   4   7
ATOM      6  C   UNL     1     -13.548   0.390  19.856  0.00  0.00    +0.000 C 
ATOM      7  C   UNL     1     -13.635  -0.789  19.643  0.00  0.00    +0.000 C 
BRANCH   6   8
ATOM      8  C   UNL     1     -13.432   1.894  20.130  0.00  0.00    +0.000 C 
BRANCH   8   9
ATOM      9  C   UNL     1     -13.332   3.164  20.372  0.00  0.00    +0.000 C 
ATOM     10  C   UNL     1     -14.339   3.846  21.246  0.00  0.00    +0.000 C 
BRANCH   9  12
ATOM     11  C   UNL     1     -11.495   4.580  19.153  0.00  0.00    +0.000 C 
ATOM     12  C   UNL     1     -12.336   3.930  19.715  0.00  0.00    +0.000 C 
BRANCH  11  18
ATOM     13  C   UNL     1     -10.258   6.746  18.917  0.00  0.00    +0.000 C 
ATOM     14  C   UNL     1      -9.800   4.716  17.356  0.00  0.00    +0.000 C 
ATOM     15  C   UNL     1      -9.009   7.204  18.293  0.00  0.00    +0.000 C 
ATOM     16  C   UNL     1      -8.049   6.749  17.369  0.00  0.00    +0.000 C 
ATOM     17  C   UNL     1      -8.616   5.503  17.029  0.00  0.00    +0.000 C 
ATOM     18  C   UNL     1     -10.572   5.289  18.534  0.00  0.00    +0.000 C 
ATOM     19  C   UNL     1     -11.440   7.644  18.460  0.00  0.00    +0.000 C 
ATOM     20  C   UNL     1     -10.089   6.841  20.464  0.00  0.00    +0.000 C 
ATOM     21  C   UNL     1     -10.711   4.545  16.137  0.00  0.00    +0.000 C 
BRANCH  14  22
ATOM     22  O   UNL     1      -9.371   3.411  17.675  0.00  0.00    +0.000 OA
ATOM     23  H   UNL     1      -8.484   3.583  18.041  0.00  0.00    +0.000 HD
ENDBRANCH  14  22
BRANCH  16  24
ATOM     24  O   UNL     1      -7.602   7.612  16.377  0.00  0.00    +0.000 OA
BRANCH  24  26
ATOM     25  O   UNL     1      -5.386   7.805  17.122  0.00  0.00    +0.000 OA
ATOM     26  C   UNL     1      -6.471   8.240  16.784  0.00  0.00    +0.000 C 
ATOM     27  C   UNL     1      -6.584   9.723  16.836  0.00  0.00    +0.000 C 
ENDBRANCH  24  26
ENDBRANCH  16  24
ENDBRANCH  11  18
ENDBRANCH   9  12
ENDBRANCH   8   9
ENDBRANCH   6   8
ENDBRANCH   4   7
ENDBRANCH   3   4
ENDBRANCH   2   3
BRANCH   1  28
ATOM     28  C   UNL     1      -9.157  -5.334  19.305  0.00  0.00    +0.000 C 
BRANCH  28  29
ATOM     29  C   UNL     1      -8.090  -6.068  19.285  0.00  0.00    +0.000 C 
ATOM     30  C   UNL     1      -7.544  -6.630  20.562  0.00  0.00    +0.000 C 
BRANCH  29  32
ATOM     31  C   UNL     1      -6.853  -6.490  17.019  0.00  0.00    +0.000 C 
ATOM     32  C   UNL     1      -7.420  -6.304  18.061  0.00  0.00    +0.000 C 
BRANCH  31  33
ATOM     33  C   UNL     1      -6.130  -6.712  15.685  0.00  0.00    +0.000 C 
BRANCH  33  34
ATOM     34  C   UNL     1      -5.512  -6.894  14.555  0.00  0.00    +0.000 C 
ATOM     35  C   UNL     1      -4.450  -7.974  14.524  0.00  0.00    +0.000 C 
BRANCH  34  37
ATOM     36  O   UNL     1      -5.839  -6.465  12.228  0.00  0.00    +0.000 OA
ATOM     37  C   UNL     1      -5.823  -6.030  13.375  0.00  0.00    +0.000 C 
BRANCH  37  38
ATOM     38  C   UNL     1      -6.127  -4.628  13.540  0.00  0.00    +0.000 C 
BRANCH  38  40
ATOM     39  O   UNL     1      -7.415  -3.031  14.737  0.00  0.00    +0.000 OA
ATOM     40  C   UNL     1      -6.443  -3.219  13.672  0.00  0.00    +0.000 C 
ATOM     41  C   UNL     1      -6.119  -2.495  14.996  0.00  0.00    +0.000 C 
ATOM     42  C   UNL     1      -6.639  -2.346  12.381  0.00  0.00    +0.000 C 
ATOM     43  C   UNL     1      -6.113  -1.068  14.975  0.00  0.00    +0.000 C 
ATOM     44  C   UNL     1      -6.646  -0.945  12.810  0.00  0.00    +0.000 C 
ATOM     45  C   UNL     1      -6.394  -0.152  13.946  0.00  0.00    +0.000 C 
ATOM     46  C   UNL     1      -5.403  -3.178  16.165  0.00  0.00    +0.000 C 
ATOM     47  C   UNL     1      -5.413  -2.649  11.487  0.00  0.00    +0.000 C 
ATOM     48  C   UNL     1      -7.965  -2.818  11.746  0.00  0.00    +0.000 C 
BRANCH  45  49
ATOM     49  O   UNL     1      -5.774   1.056  13.846  0.00  0.00    +0.000 OA
ATOM     50  H   UNL     1      -6.080   1.688  14.521  0.00  0.00    +0.000 HD
ENDBRANCH  45  49
ENDBRANCH  38  40
ENDBRANCH  37  38
ENDBRANCH  34  37
ENDBRANCH  33  34
ENDBRANCH  31  33
ENDBRANCH  29  32
ENDBRANCH  28  29
ENDBRANCH   1  28
TORSDOF 19
ENDMDL
MODEL 8
REMARK VINA RESULT:      -4.9     21.317     26.209
REMARK  Name = 5281239_Fucoxanthin.pdbqt.pdb
REMARK  19 active torsions:
REMARK  status: ('A' for Active; 'I' for Inactive)
REMARK    1  A    between atoms: C_1  and  C_5
REMARK    2  A    between atoms: C_2  and  C_26
REMARK    3  A    between atoms: C_3  and  C_5
REMARK    4  A    between atoms: C_3  and  C_7
REMARK    5  A    between atoms: C_6  and  C_10
REMARK    6  A    between atoms: C_8  and  C_10
REMARK    7  A    between atoms: C_8  and  C_12
REMARK    8  A    between atoms: C_12  and  C_13
REMARK    9  A    between atoms: C_13  and  C_15
REMARK   10  A    between atoms: C_20  and  O_24
REMARK   11  A    between atoms: C_26  and  C_27
REMARK   12  A    between atoms: C_27  and  C_30
REMARK   13  A    between atoms: C_29  and  C_33
REMARK   14  A    between atoms: C_31  and  C_33
REMARK   15  A    between atoms: C_31  and  C_44
REMARK   16  A    between atoms: C_35  and  O_45
REMARK   17  A    between atoms: C_37  and  O_47
REMARK   18  A    between atoms: C_39  and  C_43
REMARK   19  A    between atoms: O_47  and  C_49
REMARK                            x       y       z     vdW  Elec       q    Type
REMARK                         _______ _______ _______ _____ _____    ______ ____
ROOT
ATOM      1  C   UNL     1     -20.410  18.183  -3.934  0.00  0.00    +0.000 C 
ATOM      2  C   UNL     1     -19.835  17.395  -4.632  0.00  0.00    +0.000 C 
ENDROOT
BRANCH   2   3
ATOM      3  C   UNL     1     -19.100  16.383  -5.519  0.00  0.00    +0.000 C 
BRANCH   3   4
ATOM      4  C   UNL     1     -18.479  15.524  -6.265  0.00  0.00    +0.000 C 
ATOM      5  C   UNL     1     -18.725  15.503  -7.743  0.00  0.00    +0.000 C 
BRANCH   4   7
ATOM      6  C   UNL     1     -16.728  13.895  -5.204  0.00  0.00    +0.000 C 
ATOM      7  C   UNL     1     -17.533  14.643  -5.690  0.00  0.00    +0.000 C 
BRANCH   6   8
ATOM      8  C   UNL     1     -15.697  12.943  -4.586  0.00  0.00    +0.000 C 
BRANCH   8   9
ATOM      9  C   UNL     1     -14.819  12.141  -4.071  0.00  0.00    +0.000 C 
ATOM     10  C   UNL     1     -13.357  12.376  -4.301  0.00  0.00    +0.000 C 
BRANCH   9  12
ATOM     11  C   UNL     1     -15.612   9.987  -2.808  0.00  0.00    +0.000 C 
ATOM     12  C   UNL     1     -15.245  10.975  -3.387  0.00  0.00    +0.000 C 
BRANCH  11  18
ATOM     13  C   UNL     1     -16.342   8.910  -0.667  0.00  0.00    +0.000 C 
ATOM     14  C   UNL     1     -16.133   7.570  -2.886  0.00  0.00    +0.000 C 
ATOM     15  C   UNL     1     -17.048   7.684  -0.271  0.00  0.00    +0.000 C 
ATOM     16  C   UNL     1     -17.441   6.452  -0.828  0.00  0.00    +0.000 C 
ATOM     17  C   UNL     1     -16.903   6.593  -2.124  0.00  0.00    +0.000 C 
ATOM     18  C   UNL     1     -16.018   8.907  -2.171  0.00  0.00    +0.000 C 
ATOM     19  C   UNL     1     -15.013   9.036   0.125  0.00  0.00    +0.000 C 
ATOM     20  C   UNL     1     -17.266  10.125  -0.347  0.00  0.00    +0.000 C 
ATOM     21  C   UNL     1     -14.749   7.025  -3.253  0.00  0.00    +0.000 C 
BRANCH  14  22
ATOM     22  O   UNL     1     -16.787   7.761  -4.121  0.00  0.00    +0.000 OA
ATOM     23  H   UNL     1     -16.665   6.890  -4.541  0.00  0.00    +0.000 HD
ENDBRANCH  14  22
BRANCH  16  24
ATOM     24  O   UNL     1     -17.235   5.285  -0.104  0.00  0.00    +0.000 OA
BRANCH  24  26
ATOM     25  O   UNL     1     -17.039   3.295  -1.332  0.00  0.00    +0.000 OA
ATOM     26  C   UNL     1     -17.654   4.214  -0.823  0.00  0.00    +0.000 C 
ATOM     27  C   UNL     1     -19.126   4.160  -1.033  0.00  0.00    +0.000 C 
ENDBRANCH  24  26
ENDBRANCH  16  24
ENDBRANCH  11  18
ENDBRANCH   9  12
ENDBRANCH   8   9
ENDBRANCH   6   8
ENDBRANCH   4   7
ENDBRANCH   3   4
ENDBRANCH   2   3
BRANCH   1  28
ATOM     28  C   UNL     1     -21.146  19.183  -3.035  0.00  0.00    +0.000 C 
BRANCH  28  29
ATOM     29  C   UNL     1     -21.758  20.030  -2.269  0.00  0.00    +0.000 C 
ATOM     30  C   UNL     1     -22.233  21.337  -2.825  0.00  0.00    +0.000 C 
BRANCH  29  32
ATOM     31  C   UNL     1     -22.089  19.489   0.270  0.00  0.00    +0.000 C 
ATOM     32  C   UNL     1     -21.942  19.732  -0.897  0.00  0.00    +0.000 C 
BRANCH  31  33
ATOM     33  C   UNL     1     -22.265  19.190   1.763  0.00  0.00    +0.000 C 
BRANCH  33  34
ATOM     34  C   UNL     1     -22.412  18.928   3.028  0.00  0.00    +0.000 C 
ATOM     35  C   UNL     1     -23.066  20.000   3.876  0.00  0.00    +0.000 C 
BRANCH  34  37
ATOM     36  O   UNL     1     -21.167  17.599   4.576  0.00  0.00    +0.000 OA
ATOM     37  C   UNL     1     -21.908  17.641   3.598  0.00  0.00    +0.000 C 
BRANCH  37  38
ATOM     38  C   UNL     1     -22.280  16.374   3.014  0.00  0.00    +0.000 C 
BRANCH  38  40
ATOM     39  O   UNL     1     -24.118  15.120   2.183  0.00  0.00    +0.000 OA
ATOM     40  C   UNL     1     -22.683  15.116   2.416  0.00  0.00    +0.000 C 
ATOM     41  C   UNL     1     -23.312  15.119   1.006  0.00  0.00    +0.000 C 
ATOM     42  C   UNL     1     -22.062  13.774   2.945  0.00  0.00    +0.000 C 
ATOM     43  C   UNL     1     -23.371  13.871   0.315  0.00  0.00    +0.000 C 
ATOM     44  C   UNL     1     -22.415  12.730   1.980  0.00  0.00    +0.000 C 
ATOM     45  C   UNL     1     -22.984  12.576   0.700  0.00  0.00    +0.000 C 
ATOM     46  C   UNL     1     -23.465  16.389   0.165  0.00  0.00    +0.000 C 
ATOM     47  C   UNL     1     -20.533  14.010   2.977  0.00  0.00    +0.000 C 
ATOM     48  C   UNL     1     -22.657  13.557   4.354  0.00  0.00    +0.000 C 
BRANCH  45  49
ATOM     49  O   UNL     1     -22.507  11.656  -0.183  0.00  0.00    +0.000 OA
ATOM     50  H   UNL     1     -21.803  12.016  -0.751  0.00  0.00    +0.000 HD
ENDBRANCH  45  49
ENDBRANCH  38  40
ENDBRANCH  37  38
ENDBRANCH  34  37
ENDBRANCH  33  34
ENDBRANCH  31  33
ENDBRANCH  29  32
ENDBRANCH  28  29
ENDBRANCH   1  28
TORSDOF 19
ENDMDL
MODEL 9
REMARK VINA RESULT:      -4.8     17.920     22.830
REMARK  Name = 5281239_Fucoxanthin.pdbqt.pdb
REMARK  19 active torsions:
REMARK  status: ('A' for Active; 'I' for Inactive)
REMARK    1  A    between atoms: C_1  and  C_5
REMARK    2  A    between atoms: C_2  and  C_26
REMARK    3  A    between atoms: C_3  and  C_5
REMARK    4  A    between atoms: C_3  and  C_7
REMARK    5  A    between atoms: C_6  and  C_10
REMARK    6  A    between atoms: C_8  and  C_10
REMARK    7  A    between atoms: C_8  and  C_12
REMARK    8  A    between atoms: C_12  and  C_13
REMARK    9  A    between atoms: C_13  and  C_15
REMARK   10  A    between atoms: C_20  and  O_24
REMARK   11  A    between atoms: C_26  and  C_27
REMARK   12  A    between atoms: C_27  and  C_30
REMARK   13  A    between atoms: C_29  and  C_33
REMARK   14  A    between atoms: C_31  and  C_33
REMARK   15  A    between atoms: C_31  and  C_44
REMARK   16  A    between atoms: C_35  and  O_45
REMARK   17  A    between atoms: C_37  and  O_47
REMARK   18  A    between atoms: C_39  and  C_43
REMARK   19  A    between atoms: O_47  and  C_49
REMARK                            x       y       z     vdW  Elec       q    Type
REMARK                         _______ _______ _______ _____ _____    ______ ____
ROOT
ATOM      1  C   UNL     1      -9.863  13.307  -4.569  0.00  0.00    +0.000 C 
ATOM      2  C   UNL     1      -8.839  13.438  -3.957  0.00  0.00    +0.000 C 
ENDROOT
BRANCH   2   3
ATOM      3  C   UNL     1      -7.533  13.612  -3.173  0.00  0.00    +0.000 C 
BRANCH   3   4
ATOM      4  C   UNL     1      -6.430  13.764  -2.510  0.00  0.00    +0.000 C 
ATOM      5  C   UNL     1      -5.320  12.770  -2.668  0.00  0.00    +0.000 C 
BRANCH   4   7
ATOM      6  C   UNL     1      -6.111  15.856  -0.970  0.00  0.00    +0.000 C 
ATOM      7  C   UNL     1      -6.256  14.896  -1.678  0.00  0.00    +0.000 C 
BRANCH   6   8
ATOM      8  C   UNL     1      -5.928  17.078  -0.063  0.00  0.00    +0.000 C 
BRANCH   8   9
ATOM      9  C   UNL     1      -5.763  18.112   0.701  0.00  0.00    +0.000 C 
ATOM     10  C   UNL     1      -6.086  19.484   0.194  0.00  0.00    +0.000 C 
BRANCH   9  12
ATOM     11  C   UNL     1      -4.656  17.826   3.059  0.00  0.00    +0.000 C 
ATOM     12  C   UNL     1      -5.167  17.956   1.978  0.00  0.00    +0.000 C 
BRANCH  11  18
ATOM     13  C   UNL     1      -3.743  18.881   5.140  0.00  0.00    +0.000 C 
ATOM     14  C   UNL     1      -3.703  16.308   4.764  0.00  0.00    +0.000 C 
ATOM     15  C   UNL     1      -3.410  18.447   6.503  0.00  0.00    +0.000 C 
ATOM     16  C   UNL     1      -3.221  17.254   7.227  0.00  0.00    +0.000 C 
ATOM     17  C   UNL     1      -3.415  16.315   6.193  0.00  0.00    +0.000 C 
ATOM     18  C   UNL     1      -4.093  17.682   4.242  0.00  0.00    +0.000 C 
ATOM     19  C   UNL     1      -2.537  19.632   4.514  0.00  0.00    +0.000 C 
ATOM     20  C   UNL     1      -4.974  19.834   5.222  0.00  0.00    +0.000 C 
ATOM     21  C   UNL     1      -2.533  15.730   3.962  0.00  0.00    +0.000 C 
BRANCH  14  22
ATOM     22  O   UNL     1      -4.770  15.411   4.547  0.00  0.00    +0.000 OA
ATOM     23  H   UNL     1      -4.824  15.406   3.573  0.00  0.00    +0.000 HD
ENDBRANCH  14  22
BRANCH  16  24
ATOM     24  O   UNL     1      -2.130  17.145   8.080  0.00  0.00    +0.000 OA
BRANCH  24  26
ATOM     25  O   UNL     1      -0.393  16.968   6.513  0.00  0.00    +0.000 OA
ATOM     26  C   UNL     1      -0.995  17.499   7.427  0.00  0.00    +0.000 C 
ATOM     27  C   UNL     1      -0.371  18.754   7.929  0.00  0.00    +0.000 C 
ENDBRANCH  24  26
ENDBRANCH  16  24
ENDBRANCH  11  18
ENDBRANCH   9  12
ENDBRANCH   8   9
ENDBRANCH   6   8
ENDBRANCH   4   7
ENDBRANCH   3   4
ENDBRANCH   2   3
BRANCH   1  28
ATOM     28  C   UNL     1     -11.172  13.149  -5.350  0.00  0.00    +0.000 C 
BRANCH  28  29
ATOM     29  C   UNL     1     -12.279  13.005  -6.008  0.00  0.00    +0.000 C 
ATOM     30  C   UNL     1     -12.871  14.169  -6.743  0.00  0.00    +0.000 C 
BRANCH  29  32
ATOM     31  C   UNL     1     -13.514  10.699  -6.004  0.00  0.00    +0.000 C 
ATOM     32  C   UNL     1     -12.946  11.757  -5.998  0.00  0.00    +0.000 C 
BRANCH  31  33
ATOM     33  C   UNL     1     -14.243   9.350  -6.027  0.00  0.00    +0.000 C 
BRANCH  33  34
ATOM     34  C   UNL     1     -14.859   8.206  -6.056  0.00  0.00    +0.000 C 
ATOM     35  C   UNL     1     -16.211   8.174  -6.739  0.00  0.00    +0.000 C 
BRANCH  34  37
ATOM     36  O   UNL     1     -13.222   6.484  -5.797  0.00  0.00    +0.000 OA
ATOM     37  C   UNL     1     -14.257   7.006  -5.396  0.00  0.00    +0.000 C 
BRANCH  37  38
ATOM     38  C   UNL     1     -14.878   6.405  -4.239  0.00  0.00    +0.000 C 
BRANCH  38  40
ATOM     39  O   UNL     1     -14.548   5.904  -1.941  0.00  0.00    +0.000 OA
ATOM     40  C   UNL     1     -15.474   5.811  -3.058  0.00  0.00    +0.000 C 
ATOM     41  C   UNL     1     -15.730   6.693  -1.818  0.00  0.00    +0.000 C 
ATOM     42  C   UNL     1     -16.281   4.470  -3.190  0.00  0.00    +0.000 C 
ATOM     43  C   UNL     1     -16.619   6.182  -0.825  0.00  0.00    +0.000 C 
ATOM     44  C   UNL     1     -17.000   4.278  -1.928  0.00  0.00    +0.000 C 
ATOM     45  C   UNL     1     -17.307   4.960  -0.735  0.00  0.00    +0.000 C 
ATOM     46  C   UNL     1     -15.455   8.200  -1.796  0.00  0.00    +0.000 C 
ATOM     47  C   UNL     1     -17.265   4.693  -4.364  0.00  0.00    +0.000 C 
ATOM     48  C   UNL     1     -15.236   3.374  -3.494  0.00  0.00    +0.000 C 
BRANCH  45  49
ATOM     49  O   UNL     1     -18.529   4.844  -0.144  0.00  0.00    +0.000 OA
ATOM     50  H   UNL     1     -19.260   4.990  -0.771  0.00  0.00    +0.000 HD
ENDBRANCH  45  49
ENDBRANCH  38  40
ENDBRANCH  37  38
ENDBRANCH  34  37
ENDBRANCH  33  34
ENDBRANCH  31  33
ENDBRANCH  29  32
ENDBRANCH  28  29
ENDBRANCH   1  28
TORSDOF 19
ENDMDL
