MODEL 1
REMARK VINA RESULT:      -5.4      0.000      0.000
REMARK  Name = 5281416_Esculetin.pdbqt.pdb
REMARK  2 active torsions:
REMARK  status: ('A' for Active; 'I' for Inactive)
REMARK    1  A    between atoms: C_7  and  O_12
REMARK    2  A    between atoms: C_8  and  O_14
REMARK                            x       y       z     vdW  Elec       q    Type
REMARK                         _______ _______ _______ _____ _____    ______ ____
ROOT
ATOM      1  O   UNL     1     -14.570  12.338  -0.634  0.00  0.00    +0.000 OA
ATOM      2  O   UNL     1     -13.709  14.402  -1.344  0.00  0.00    +0.000 OA
ATOM      3  C   UNL     1     -14.883  10.606  -2.400  0.00  0.00    +0.000 A 
ATOM      4  C   UNL     1     -14.975  11.010  -1.040  0.00  0.00    +0.000 A 
ATOM      5  C   UNL     1     -15.269   9.335  -2.795  0.00  0.00    +0.000 A 
ATOM      6  C   UNL     1     -15.453  10.150  -0.060  0.00  0.00    +0.000 A 
ATOM      7  C   UNL     1     -15.748   8.475  -1.810  0.00  0.00    +0.000 A 
ATOM      8  C   UNL     1     -15.837   8.877  -0.468  0.00  0.00    +0.000 A 
ATOM      9  C   UNL     1     -14.375  11.605  -3.267  0.00  0.00    +0.000 A 
ATOM     10  C   UNL     1     -14.047  12.696  -2.912  0.00  0.00    +0.000 A 
ATOM     11  C   UNL     1     -14.073  13.264  -1.592  0.00  0.00    +0.000 A 
ENDROOT
BRANCH   7  12
ATOM     12  O   UNL     1     -16.149   7.202  -2.120  0.00  0.00    +0.000 OA
ATOM     13  H   UNL     1     -15.786   6.980  -2.998  0.00  0.00    +0.000 HD
ENDBRANCH   7  12
BRANCH   8  14
ATOM     14  O   UNL     1     -16.313   8.000   0.466  0.00  0.00    +0.000 OA
ATOM     15  H   UNL     1     -15.711   7.230   0.428  0.00  0.00    +0.000 HD
ENDBRANCH   8  14
TORSDOF 2
ENDMDL
MODEL 2
REMARK VINA RESULT:      -4.9      1.341      5.062
REMARK  Name = 5281416_Esculetin.pdbqt.pdb
REMARK  2 active torsions:
REMARK  status: ('A' for Active; 'I' for Inactive)
REMARK    1  A    between atoms: C_7  and  O_12
REMARK    2  A    between atoms: C_8  and  O_14
REMARK                            x       y       z     vdW  Elec       q    Type
REMARK                         _______ _______ _______ _____ _____    ______ ____
ROOT
ATOM      1  O   UNL     1     -15.106   8.534  -2.922  0.00  0.00    +0.000 OA
ATOM      2  O   UNL     1     -15.513   6.414  -2.003  0.00  0.00    +0.000 OA
ATOM      3  C   UNL     1     -14.895  10.419  -1.303  0.00  0.00    +0.000 A 
ATOM      4  C   UNL     1     -14.892   9.937  -2.641  0.00  0.00    +0.000 A 
ATOM      5  C   UNL     1     -14.690  11.761  -1.026  0.00  0.00    +0.000 A 
ATOM      6  C   UNL     1     -14.685  10.790  -3.716  0.00  0.00    +0.000 A 
ATOM      7  C   UNL     1     -14.482  12.613  -2.107  0.00  0.00    +0.000 A 
ATOM      8  C   UNL     1     -14.480  12.135  -3.427  0.00  0.00    +0.000 A 
ATOM      9  C   UNL     1     -15.120   9.415  -0.328  0.00  0.00    +0.000 A 
ATOM     10  C   UNL     1     -15.295   8.262  -0.582  0.00  0.00    +0.000 A 
ATOM     11  C   UNL     1     -15.324   7.611  -1.862  0.00  0.00    +0.000 A 
ENDROOT
BRANCH   7  12
ATOM     12  O   UNL     1     -14.273  13.954  -1.917  0.00  0.00    +0.000 OA
ATOM     13  H   UNL     1     -13.814  14.300  -2.705  0.00  0.00    +0.000 HD
ENDBRANCH   7  12
BRANCH   8  14
ATOM     14  O   UNL     1     -14.272  13.008  -4.459  0.00  0.00    +0.000 OA
ATOM     15  H   UNL     1     -15.129  13.464  -4.588  0.00  0.00    +0.000 HD
ENDBRANCH   8  14
TORSDOF 2
ENDMDL
MODEL 3
REMARK VINA RESULT:      -4.6     24.326     25.627
REMARK  Name = 5281416_Esculetin.pdbqt.pdb
REMARK  2 active torsions:
REMARK  status: ('A' for Active; 'I' for Inactive)
REMARK    1  A    between atoms: C_7  and  O_12
REMARK    2  A    between atoms: C_8  and  O_14
REMARK                            x       y       z     vdW  Elec       q    Type
REMARK                         _______ _______ _______ _____ _____    ______ ____
ROOT
ATOM      1  O   UNL     1     -12.300  17.979  22.722  0.00  0.00    +0.000 OA
ATOM      2  O   UNL     1     -10.487  17.704  21.257  0.00  0.00    +0.000 OA
ATOM      3  C   UNL     1     -14.337  19.055  21.768  0.00  0.00    +0.000 A 
ATOM      4  C   UNL     1     -13.655  18.465  22.867  0.00  0.00    +0.000 A 
ATOM      5  C   UNL     1     -15.635  19.522  21.900  0.00  0.00    +0.000 A 
ATOM      6  C   UNL     1     -14.260  18.335  24.109  0.00  0.00    +0.000 A 
ATOM      7  C   UNL     1     -16.239  19.391  23.148  0.00  0.00    +0.000 A 
ATOM      8  C   UNL     1     -15.563  18.807  24.231  0.00  0.00    +0.000 A 
ATOM      9  C   UNL     1     -13.574  19.109  20.576  0.00  0.00    +0.000 A 
ATOM     10  C   UNL     1     -12.456  18.702  20.476  0.00  0.00    +0.000 A 
ATOM     11  C   UNL     1     -11.626  18.084  21.473  0.00  0.00    +0.000 A 
ENDROOT
BRANCH   7  12
ATOM     12  O   UNL     1     -17.520  19.828  23.360  0.00  0.00    +0.000 OA
ATOM     13  H   UNL     1     -17.710  19.746  24.313  0.00  0.00    +0.000 HD
ENDBRANCH   7  12
BRANCH   8  14
ATOM     14  O   UNL     1     -16.195  18.698  25.439  0.00  0.00    +0.000 OA
ATOM     15  H   UNL     1     -15.671  19.249  26.055  0.00  0.00    +0.000 HD
ENDBRANCH   8  14
TORSDOF 2
ENDMDL
MODEL 4
REMARK VINA RESULT:      -4.5      1.904      2.779
REMARK  Name = 5281416_Esculetin.pdbqt.pdb
REMARK  2 active torsions:
REMARK  status: ('A' for Active; 'I' for Inactive)
REMARK    1  A    between atoms: C_7  and  O_12
REMARK    2  A    between atoms: C_8  and  O_14
REMARK                            x       y       z     vdW  Elec       q    Type
REMARK                         _______ _______ _______ _____ _____    ______ ____
ROOT
ATOM      1  O   UNL     1     -15.084   9.834  -3.083  0.00  0.00    +0.000 OA
ATOM      2  O   UNL     1     -14.067  11.507  -4.378  0.00  0.00    +0.000 OA
ATOM      3  C   UNL     1     -15.384  10.342  -0.661  0.00  0.00    +0.000 A 
ATOM      4  C   UNL     1     -15.536   9.456  -1.763  0.00  0.00    +0.000 A 
ATOM      5  C   UNL     1     -15.815   9.986   0.607  0.00  0.00    +0.000 A 
ATOM      6  C   UNL     1     -16.120   8.206  -1.611  0.00  0.00    +0.000 A 
ATOM      7  C   UNL     1     -16.400   8.731   0.756  0.00  0.00    +0.000 A 
ATOM      8  C   UNL     1     -16.549   7.859  -0.334  0.00  0.00    +0.000 A 
ATOM      9  C   UNL     1     -14.770  11.575  -0.992  0.00  0.00    +0.000 A 
ATOM     10  C   UNL     1     -14.403  11.868  -2.089  0.00  0.00    +0.000 A 
ATOM     11  C   UNL     1     -14.478  11.102  -3.303  0.00  0.00    +0.000 A 
ENDROOT
BRANCH   7  12
ATOM     12  O   UNL     1     -16.852   8.305   1.977  0.00  0.00    +0.000 OA
ATOM     13  H   UNL     1     -17.222   9.077   2.445  0.00  0.00    +0.000 HD
ENDBRANCH   7  12
BRANCH   8  14
ATOM     14  O   UNL     1     -17.129   6.635  -0.142  0.00  0.00    +0.000 OA
ATOM     15  H   UNL     1     -18.085   6.776  -0.294  0.00  0.00    +0.000 HD
ENDBRANCH   8  14
TORSDOF 2
ENDMDL
MODEL 5
REMARK VINA RESULT:      -4.5     16.362     17.042
REMARK  Name = 5281416_Esculetin.pdbqt.pdb
REMARK  2 active torsions:
REMARK  status: ('A' for Active; 'I' for Inactive)
REMARK    1  A    between atoms: C_7  and  O_12
REMARK    2  A    between atoms: C_8  and  O_14
REMARK                            x       y       z     vdW  Elec       q    Type
REMARK                         _______ _______ _______ _____ _____    ______ ____
ROOT
ATOM      1  O   UNL     1      -1.391   5.814   1.660  0.00  0.00    +0.000 OA
ATOM      2  O   UNL     1      -3.239   4.391   1.925  0.00  0.00    +0.000 OA
ATOM      3  C   UNL     1       0.155   5.991   3.608  0.00  0.00    +0.000 A 
ATOM      4  C   UNL     1      -0.204   6.358   2.282  0.00  0.00    +0.000 A 
ATOM      5  C   UNL     1       1.290   6.509   4.210  0.00  0.00    +0.000 A 
ATOM      6  C   UNL     1       0.566   7.245   1.543  0.00  0.00    +0.000 A 
ATOM      7  C   UNL     1       2.061   7.398   3.465  0.00  0.00    +0.000 A 
ATOM      8  C   UNL     1       1.704   7.758   2.157  0.00  0.00    +0.000 A 
ATOM      9  C   UNL     1      -0.741   5.077   4.217  0.00  0.00    +0.000 A 
ATOM     10  C   UNL     1      -1.716   4.639   3.686  0.00  0.00    +0.000 A 
ATOM     11  C   UNL     1      -2.222   4.900   2.366  0.00  0.00    +0.000 A 
ENDROOT
BRANCH   7  12
ATOM     12  O   UNL     1       3.199   7.953   3.990  0.00  0.00    +0.000 OA
ATOM     13  H   UNL     1       3.357   8.800   3.531  0.00  0.00    +0.000 HD
ENDBRANCH   7  12
BRANCH   8  14
ATOM     14  O   UNL     1       2.490   8.635   1.462  0.00  0.00    +0.000 OA
ATOM     15  H   UNL     1       3.164   8.082   1.018  0.00  0.00    +0.000 HD
ENDBRANCH   8  14
TORSDOF 2
ENDMDL
MODEL 6
REMARK VINA RESULT:      -4.4     24.558     25.782
REMARK  Name = 5281416_Esculetin.pdbqt.pdb
REMARK  2 active torsions:
REMARK  status: ('A' for Active; 'I' for Inactive)
REMARK    1  A    between atoms: C_7  and  O_12
REMARK    2  A    between atoms: C_8  and  O_14
REMARK                            x       y       z     vdW  Elec       q    Type
REMARK                         _______ _______ _______ _____ _____    ______ ____
ROOT
ATOM      1  O   UNL     1     -13.693  17.408  24.105  0.00  0.00    +0.000 OA
ATOM      2  O   UNL     1     -11.918  15.912  24.451  0.00  0.00    +0.000 OA
ATOM      3  C   UNL     1     -13.672  18.667  21.952  0.00  0.00    +0.000 A 
ATOM      4  C   UNL     1     -14.283  18.372  23.202  0.00  0.00    +0.000 A 
ATOM      5  C   UNL     1     -14.232  19.589  21.083  0.00  0.00    +0.000 A 
ATOM      6  C   UNL     1     -15.459  18.994  23.597  0.00  0.00    +0.000 A 
ATOM      7  C   UNL     1     -15.412  20.211  21.482  0.00  0.00    +0.000 A 
ATOM      8  C   UNL     1     -16.013  19.918  22.716  0.00  0.00    +0.000 A 
ATOM      9  C   UNL     1     -12.479  17.943  21.708  0.00  0.00    +0.000 A 
ATOM     10  C   UNL     1     -12.007  17.151  22.467  0.00  0.00    +0.000 A 
ATOM     11  C   UNL     1     -12.488  16.737  23.756  0.00  0.00    +0.000 A 
ENDROOT
BRANCH   7  12
ATOM     12  O   UNL     1     -16.028  21.134  20.679  0.00  0.00    +0.000 OA
ATOM     13  H   UNL     1     -15.495  21.227  19.868  0.00  0.00    +0.000 HD
ENDBRANCH   7  12
BRANCH   8  14
ATOM     14  O   UNL     1     -17.172  20.553  23.068  0.00  0.00    +0.000 OA
ATOM     15  H   UNL     1     -17.217  20.486  24.043  0.00  0.00    +0.000 HD
ENDBRANCH   8  14
TORSDOF 2
ENDMDL
MODEL 7
REMARK VINA RESULT:      -4.1      2.498      6.024
REMARK  Name = 5281416_Esculetin.pdbqt.pdb
REMARK  2 active torsions:
REMARK  status: ('A' for Active; 'I' for Inactive)
REMARK    1  A    between atoms: C_7  and  O_12
REMARK    2  A    between atoms: C_8  and  O_14
REMARK                            x       y       z     vdW  Elec       q    Type
REMARK                         _______ _______ _______ _____ _____    ______ ____
ROOT
ATOM      1  O   UNL     1     -15.807   5.616  -2.080  0.00  0.00    +0.000 OA
ATOM      2  O   UNL     1     -16.522   3.442  -1.565  0.00  0.00    +0.000 OA
ATOM      3  C   UNL     1     -16.650   7.436  -0.599  0.00  0.00    +0.000 A 
ATOM      4  C   UNL     1     -15.874   7.014  -1.713  0.00  0.00    +0.000 A 
ATOM      5  C   UNL     1     -16.719   8.773  -0.241  0.00  0.00    +0.000 A 
ATOM      6  C   UNL     1     -15.158   7.921  -2.481  0.00  0.00    +0.000 A 
ATOM      7  C   UNL     1     -15.999   9.681  -1.015  0.00  0.00    +0.000 A 
ATOM      8  C   UNL     1     -15.234   9.260  -2.114  0.00  0.00    +0.000 A 
ATOM      9  C   UNL     1     -17.316   6.382   0.075  0.00  0.00    +0.000 A 
ATOM     10  C   UNL     1     -17.248   5.234  -0.245  0.00  0.00    +0.000 A 
ATOM     11  C   UNL     1     -16.519   4.639  -1.331  0.00  0.00    +0.000 A 
ENDROOT
BRANCH   7  12
ATOM     12  O   UNL     1     -16.015  11.020  -0.727  0.00  0.00    +0.000 OA
ATOM     13  H   UNL     1     -16.945  11.316  -0.732  0.00  0.00    +0.000 HD
ENDBRANCH   7  12
BRANCH   8  14
ATOM     14  O   UNL     1     -14.543  10.186  -2.846  0.00  0.00    +0.000 OA
ATOM     15  H   UNL     1     -14.634   9.899  -3.777  0.00  0.00    +0.000 HD
ENDBRANCH   8  14
TORSDOF 2
ENDMDL
MODEL 8
REMARK VINA RESULT:      -4.0      9.998     11.488
REMARK  Name = 5281416_Esculetin.pdbqt.pdb
REMARK  2 active torsions:
REMARK  status: ('A' for Active; 'I' for Inactive)
REMARK    1  A    between atoms: C_7  and  O_12
REMARK    2  A    between atoms: C_8  and  O_14
REMARK                            x       y       z     vdW  Elec       q    Type
REMARK                         _______ _______ _______ _____ _____    ______ ____
ROOT
ATOM      1  O   UNL     1     -10.322   1.686  -0.676  0.00  0.00    +0.000 OA
ATOM      2  O   UNL     1     -11.903   1.707  -2.409  0.00  0.00    +0.000 OA
ATOM      3  C   UNL     1     -11.145   0.961   1.563  0.00  0.00    +0.000 A 
ATOM      4  C   UNL     1     -10.089   1.415   0.726  0.00  0.00    +0.000 A 
ATOM      5  C   UNL     1     -10.930   0.699   2.906  0.00  0.00    +0.000 A 
ATOM      6  C   UNL     1      -8.807   1.611   1.220  0.00  0.00    +0.000 A 
ATOM      7  C   UNL     1      -9.642   0.897   3.399  0.00  0.00    +0.000 A 
ATOM      8  C   UNL     1      -8.602   1.345   2.570  0.00  0.00    +0.000 A 
ATOM      9  C   UNL     1     -12.387   0.814   0.897  0.00  0.00    +0.000 A 
ATOM     10  C   UNL     1     -12.558   1.044  -0.262  0.00  0.00    +0.000 A 
ATOM     11  C   UNL     1     -11.614   1.504  -1.242  0.00  0.00    +0.000 A 
ENDROOT
BRANCH   7  12
ATOM     12  O   UNL     1      -9.348   0.660   4.716  0.00  0.00    +0.000 OA
ATOM     13  H   UNL     1     -10.157   0.823   5.237  0.00  0.00    +0.000 HD
ENDBRANCH   7  12
BRANCH   8  14
ATOM     14  O   UNL     1      -7.353   1.526   3.096  0.00  0.00    +0.000 OA
ATOM     15  H   UNL     1      -7.497   1.709   4.047  0.00  0.00    +0.000 HD
ENDBRANCH   8  14
TORSDOF 2
ENDMDL
MODEL 9
REMARK VINA RESULT:      -4.0     19.400     21.364
REMARK  Name = 5281416_Esculetin.pdbqt.pdb
REMARK  2 active torsions:
REMARK  status: ('A' for Active; 'I' for Inactive)
REMARK    1  A    between atoms: C_7  and  O_12
REMARK    2  A    between atoms: C_8  and  O_14
REMARK                            x       y       z     vdW  Elec       q    Type
REMARK                         _______ _______ _______ _____ _____    ______ ____
ROOT
ATOM      1  O   UNL     1     -11.664   3.665  18.991  0.00  0.00    +0.000 OA
ATOM      2  O   UNL     1     -12.880   3.133  20.926  0.00  0.00    +0.000 OA
ATOM      3  C   UNL     1     -11.013   6.056  18.718  0.00  0.00    +0.000 A 
ATOM      4  C   UNL     1     -11.016   4.717  18.239  0.00  0.00    +0.000 A 
ATOM      5  C   UNL     1     -10.395   7.069  18.003  0.00  0.00    +0.000 A 
ATOM      6  C   UNL     1     -10.402   4.375  17.042  0.00  0.00    +0.000 A 
ATOM      7  C   UNL     1      -9.780   6.723  16.802  0.00  0.00    +0.000 A 
ATOM      8  C   UNL     1      -9.785   5.400  16.333  0.00  0.00    +0.000 A 
ATOM      9  C   UNL     1     -11.684   6.229  19.954  0.00  0.00    +0.000 A 
ATOM     10  C   UNL     1     -12.213   5.347  20.559  0.00  0.00    +0.000 A 
ATOM     11  C   UNL     1     -12.310   3.952  20.225  0.00  0.00    +0.000 A 
ENDROOT
BRANCH   7  12
ATOM     12  O   UNL     1      -9.147   7.667  16.037  0.00  0.00    +0.000 OA
ATOM     13  H   UNL     1      -8.369   7.246  15.627  0.00  0.00    +0.000 HD
ENDBRANCH   7  12
BRANCH   8  14
ATOM     14  O   UNL     1      -9.169   5.104  15.148  0.00  0.00    +0.000 OA
ATOM     15  H   UNL     1      -8.223   4.985  15.371  0.00  0.00    +0.000 HD
ENDBRANCH   8  14
TORSDOF 2
ENDMDL
