MODEL 1
REMARK VINA RESULT:      -6.0      0.000      0.000
REMARK  Name = 5289155_Peridinin.pdbqt.pdb
REMARK  13 active torsions:
REMARK  status: ('A' for Active; 'I' for Inactive)
REMARK    1  A    between atoms: C_1  and  C_3
REMARK    2  A    between atoms: C_3  and  C_25
REMARK    3  A    between atoms: C_6  and  C_12
REMARK    4  A    between atoms: C_11  and  C_14
REMARK    5  A    between atoms: C_19  and  O_23
REMARK    6  A    between atoms: C_26  and  C_28
REMARK    7  A    between atoms: C_27  and  C_31
REMARK    8  A    between atoms: C_29  and  C_31
REMARK    9  A    between atoms: C_29  and  C_42
REMARK   10  A    between atoms: C_33  and  O_43
REMARK   11  A    between atoms: C_35  and  O_45
REMARK   12  A    between atoms: C_37  and  C_41
REMARK   13  A    between atoms: O_45  and  C_47
REMARK                            x       y       z     vdW  Elec       q    Type
REMARK                         _______ _______ _______ _____ _____    ______ ____
ROOT
ATOM      1  C   UNL     1      -5.811  15.817  14.473  0.00  0.00    +0.000 C 
ENDROOT
BRANCH   1   2
ATOM      2  C   UNL     1      -4.909  15.521  13.591  0.00  0.00    +0.000 C 
ATOM      3  C   UNL     1      -3.762  14.630  13.955  0.00  0.00    +0.000 C 
ATOM      4  O   UNL     1      -5.798  17.647  10.819  0.00  0.00    +0.000 OA
ATOM      5  O   UNL     1      -5.736  18.988   8.929  0.00  0.00    +0.000 OA
ATOM      6  C   UNL     1      -4.398  16.982   9.084  0.00  0.00    +0.000 C 
ATOM      7  C   UNL     1      -4.282  16.103  10.011  0.00  0.00    +0.000 C 
ATOM      8  C   UNL     1      -5.371  18.001   9.543  0.00  0.00    +0.000 C 
ATOM      9  C   UNL     1      -5.131  16.449  11.059  0.00  0.00    +0.000 C 
ATOM     10  C   UNL     1      -5.026  16.008  12.269  0.00  0.00    +0.000 C 
BRANCH   6  12
ATOM     11  C   UNL     1      -3.092  16.925   6.826  0.00  0.00    +0.000 C 
ATOM     12  C   UNL     1      -3.689  16.951   7.869  0.00  0.00    +0.000 C 
BRANCH  11  14
ATOM     13  O   UNL     1      -1.940  18.231   5.199  0.00  0.00    +0.000 OA
ATOM     14  C   UNL     1      -2.380  16.890   5.559  0.00  0.00    +0.000 C 
ATOM     15  C   UNL     1      -0.896  17.313   5.514  0.00  0.00    +0.000 C 
ATOM     16  C   UNL     1      -2.926  15.997   4.391  0.00  0.00    +0.000 C 
ATOM     17  C   UNL     1      -0.144  16.935   4.360  0.00  0.00    +0.000 C 
ATOM     18  C   UNL     1      -1.867  15.914   3.382  0.00  0.00    +0.000 C 
ATOM     19  C   UNL     1      -0.514  16.250   3.190  0.00  0.00    +0.000 C 
ATOM     20  C   UNL     1      -0.091  17.702   6.757  0.00  0.00    +0.000 C 
ATOM     21  C   UNL     1      -3.194  14.603   5.020  0.00  0.00    +0.000 C 
ATOM     22  C   UNL     1      -4.214  16.678   3.881  0.00  0.00    +0.000 C 
BRANCH  19  23
ATOM     23  O   UNL     1       0.337  15.421   2.523  0.00  0.00    +0.000 OA
ATOM     24  H   UNL     1       0.969  14.980   3.120  0.00  0.00    +0.000 HD
ENDBRANCH  19  23
ENDBRANCH  11  14
ENDBRANCH   6  12
ENDBRANCH   1   2
BRANCH   1  25
ATOM     25  C   UNL     1      -6.878  16.166  15.517  0.00  0.00    +0.000 C 
ATOM     26  C   UNL     1      -7.710  16.445  16.335  0.00  0.00    +0.000 C 
BRANCH  26  28
ATOM     27  C   UNL     1      -9.604  17.088  18.196  0.00  0.00    +0.000 C 
ATOM     28  C   UNL     1      -8.770  16.807  17.381  0.00  0.00    +0.000 C 
BRANCH  27  29
ATOM     29  C   UNL     1     -10.675  17.445  19.234  0.00  0.00    +0.000 C 
BRANCH  29  30
ATOM     30  C   UNL     1     -11.585  17.738  20.107  0.00  0.00    +0.000 C 
ATOM     31  C   UNL     1     -12.717  18.652  19.745  0.00  0.00    +0.000 C 
BRANCH  30  33
ATOM     32  C   UNL     1     -11.400  16.813  22.552  0.00  0.00    +0.000 C 
ATOM     33  C   UNL     1     -11.484  17.237  21.430  0.00  0.00    +0.000 C 
BRANCH  32  39
ATOM     34  C   UNL     1     -11.984  17.042  24.979  0.00  0.00    +0.000 C 
ATOM     35  C   UNL     1     -10.488  15.107  24.093  0.00  0.00    +0.000 C 
ATOM     36  C   UNL     1     -11.998  16.171  26.162  0.00  0.00    +0.000 C 
ATOM     37  C   UNL     1     -11.501  14.916  26.570  0.00  0.00    +0.000 C 
ATOM     38  C   UNL     1     -10.791  14.552  25.407  0.00  0.00    +0.000 C 
ATOM     39  C   UNL     1     -11.314  16.345  23.781  0.00  0.00    +0.000 C 
ATOM     40  C   UNL     1     -13.462  17.380  24.612  0.00  0.00    +0.000 C 
ATOM     41  C   UNL     1     -11.204  18.348  25.292  0.00  0.00    +0.000 C 
ATOM     42  C   UNL     1      -8.991  15.395  23.941  0.00  0.00    +0.000 C 
BRANCH  35  43
ATOM     43  O   UNL     1     -10.767  14.111  23.134  0.00  0.00    +0.000 OA
ATOM     44  H   UNL     1     -11.741  14.079  23.167  0.00  0.00    +0.000 HD
ENDBRANCH  35  43
BRANCH  37  45
ATOM     45  O   UNL     1     -10.908  14.799  27.821  0.00  0.00    +0.000 OA
BRANCH  45  47
ATOM     46  O   UNL     1     -10.834  12.843  29.113  0.00  0.00    +0.000 OA
ATOM     47  C   UNL     1     -11.391  13.705  28.460  0.00  0.00    +0.000 C 
ATOM     48  C   UNL     1     -12.862  13.522  28.327  0.00  0.00    +0.000 C 
ENDBRANCH  45  47
ENDBRANCH  37  45
ENDBRANCH  32  39
ENDBRANCH  30  33
ENDBRANCH  29  30
ENDBRANCH  27  29
ENDBRANCH  26  28
ENDBRANCH   1  25
TORSDOF 13
ENDMDL
MODEL 2
REMARK VINA RESULT:      -6.0      6.883      8.059
REMARK  Name = 5289155_Peridinin.pdbqt.pdb
REMARK  13 active torsions:
REMARK  status: ('A' for Active; 'I' for Inactive)
REMARK    1  A    between atoms: C_1  and  C_3
REMARK    2  A    between atoms: C_3  and  C_25
REMARK    3  A    between atoms: C_6  and  C_12
REMARK    4  A    between atoms: C_11  and  C_14
REMARK    5  A    between atoms: C_19  and  O_23
REMARK    6  A    between atoms: C_26  and  C_28
REMARK    7  A    between atoms: C_27  and  C_31
REMARK    8  A    between atoms: C_29  and  C_31
REMARK    9  A    between atoms: C_29  and  C_42
REMARK   10  A    between atoms: C_33  and  O_43
REMARK   11  A    between atoms: C_35  and  O_45
REMARK   12  A    between atoms: C_37  and  C_41
REMARK   13  A    between atoms: O_45  and  C_47
REMARK                            x       y       z     vdW  Elec       q    Type
REMARK                         _______ _______ _______ _____ _____    ______ ____
ROOT
ATOM      1  C   UNL     1      -3.707  13.419  15.427  0.00  0.00    +0.000 C 
ENDROOT
BRANCH   1   2
ATOM      2  C   UNL     1      -2.968  13.955  14.507  0.00  0.00    +0.000 C 
ATOM      3  C   UNL     1      -1.484  14.041  14.688  0.00  0.00    +0.000 C 
ATOM      4  O   UNL     1      -5.412  15.298  12.223  0.00  0.00    +0.000 OA
ATOM      5  O   UNL     1      -6.516  16.591  10.647  0.00  0.00    +0.000 OA
ATOM      6  C   UNL     1      -4.177  16.039  10.396  0.00  0.00    +0.000 C 
ATOM      7  C   UNL     1      -3.381  15.345  11.125  0.00  0.00    +0.000 C 
ATOM      8  C   UNL     1      -5.508  16.037  11.049  0.00  0.00    +0.000 C 
ATOM      9  C   UNL     1      -4.092  14.856  12.217  0.00  0.00    +0.000 C 
ATOM     10  C   UNL     1      -3.557  14.426  13.312  0.00  0.00    +0.000 C 
BRANCH   6  12
ATOM     11  C   UNL     1      -3.480  17.226   8.180  0.00  0.00    +0.000 C 
ATOM     12  C   UNL     1      -3.801  16.684   9.203  0.00  0.00    +0.000 C 
BRANCH  11  14
ATOM     13  O   UNL     1      -1.845  17.289   6.447  0.00  0.00    +0.000 OA
ATOM     14  C   UNL     1      -3.086  17.873   6.939  0.00  0.00    +0.000 C 
ATOM     15  C   UNL     1      -2.996  17.035   5.645  0.00  0.00    +0.000 C 
ATOM     16  C   UNL     1      -3.230  19.428   6.800  0.00  0.00    +0.000 C 
ATOM     17  C   UNL     1      -2.960  17.747   4.408  0.00  0.00    +0.000 C 
ATOM     18  C   UNL     1      -3.063  19.750   5.380  0.00  0.00    +0.000 C 
ATOM     19  C   UNL     1      -2.957  19.123   4.124  0.00  0.00    +0.000 C 
ATOM     20  C   UNL     1      -3.377  15.554   5.570  0.00  0.00    +0.000 C 
ATOM     21  C   UNL     1      -4.671  19.759   7.271  0.00  0.00    +0.000 C 
ATOM     22  C   UNL     1      -2.147  20.054   7.706  0.00  0.00    +0.000 C 
BRANCH  19  23
ATOM     23  O   UNL     1      -3.552  19.647   3.016  0.00  0.00    +0.000 OA
ATOM     24  H   UNL     1      -3.487  19.055   2.245  0.00  0.00    +0.000 HD
ENDBRANCH  19  23
ENDBRANCH  11  14
ENDBRANCH   6  12
ENDBRANCH   1   2
BRANCH   1  25
ATOM     25  C   UNL     1      -4.581  12.786  16.515  0.00  0.00    +0.000 C 
ATOM     26  C   UNL     1      -5.265  12.284  17.365  0.00  0.00    +0.000 C 
BRANCH  26  28
ATOM     27  C   UNL     1      -6.820  11.133  19.292  0.00  0.00    +0.000 C 
ATOM     28  C   UNL     1      -6.134  11.638  18.447  0.00  0.00    +0.000 C 
BRANCH  27  29
ATOM     29  C   UNL     1      -7.703  10.493  20.371  0.00  0.00    +0.000 C 
BRANCH  29  30
ATOM     30  C   UNL     1      -8.452   9.962  21.284  0.00  0.00    +0.000 C 
ATOM     31  C   UNL     1      -8.555  10.592  22.640  0.00  0.00    +0.000 C 
BRANCH  30  33
ATOM     32  C   UNL     1      -9.719   7.720  20.798  0.00  0.00    +0.000 C 
ATOM     33  C   UNL     1      -9.137   8.749  21.020  0.00  0.00    +0.000 C 
BRANCH  32  39
ATOM     34  C   UNL     1     -10.614   6.080  19.127  0.00  0.00    +0.000 C 
ATOM     35  C   UNL     1     -10.947   5.766  21.687  0.00  0.00    +0.000 C 
ATOM     36  C   UNL     1     -11.066   4.682  19.137  0.00  0.00    +0.000 C 
ATOM     37  C   UNL     1     -11.433   3.686  20.064  0.00  0.00    +0.000 C 
ATOM     38  C   UNL     1     -11.302   4.416  21.263  0.00  0.00    +0.000 C 
ATOM     39  C   UNL     1     -10.362   6.596  20.556  0.00  0.00    +0.000 C 
ATOM     40  C   UNL     1      -9.282   6.149  18.317  0.00  0.00    +0.000 C 
ATOM     41  C   UNL     1     -11.687   6.979  18.458  0.00  0.00    +0.000 C 
ATOM     42  C   UNL     1     -12.141   6.480  22.329  0.00  0.00    +0.000 C 
BRANCH  35  43
ATOM     43  O   UNL     1      -9.993   5.653  22.720  0.00  0.00    +0.000 OA
ATOM     44  H   UNL     1     -10.463   5.082  23.356  0.00  0.00    +0.000 HD
ENDBRANCH  35  43
BRANCH  37  45
ATOM     45  O   UNL     1     -12.572   2.927  19.825  0.00  0.00    +0.000 OA
BRANCH  45  47
ATOM     46  O   UNL     1     -11.688   0.826  19.273  0.00  0.00    +0.000 OA
ATOM     47  C   UNL     1     -12.290   1.610  19.982  0.00  0.00    +0.000 C 
ATOM     48  C   UNL     1     -12.825   1.019  21.238  0.00  0.00    +0.000 C 
ENDBRANCH  45  47
ENDBRANCH  37  45
ENDBRANCH  32  39
ENDBRANCH  30  33
ENDBRANCH  29  30
ENDBRANCH  27  29
ENDBRANCH  26  28
ENDBRANCH   1  25
TORSDOF 13
ENDMDL
MODEL 3
REMARK VINA RESULT:      -5.9      7.300      8.595
REMARK  Name = 5289155_Peridinin.pdbqt.pdb
REMARK  13 active torsions:
REMARK  status: ('A' for Active; 'I' for Inactive)
REMARK    1  A    between atoms: C_1  and  C_3
REMARK    2  A    between atoms: C_3  and  C_25
REMARK    3  A    between atoms: C_6  and  C_12
REMARK    4  A    between atoms: C_11  and  C_14
REMARK    5  A    between atoms: C_19  and  O_23
REMARK    6  A    between atoms: C_26  and  C_28
REMARK    7  A    between atoms: C_27  and  C_31
REMARK    8  A    between atoms: C_29  and  C_31
REMARK    9  A    between atoms: C_29  and  C_42
REMARK   10  A    between atoms: C_33  and  O_43
REMARK   11  A    between atoms: C_35  and  O_45
REMARK   12  A    between atoms: C_37  and  C_41
REMARK   13  A    between atoms: O_45  and  C_47
REMARK                            x       y       z     vdW  Elec       q    Type
REMARK                         _______ _______ _______ _____ _____    ______ ____
ROOT
ATOM      1  C   UNL     1      -5.245  14.785  13.034  0.00  0.00    +0.000 C 
ENDROOT
BRANCH   1   2
ATOM      2  C   UNL     1      -4.927  15.522  12.016  0.00  0.00    +0.000 C 
ATOM      3  C   UNL     1      -5.997  16.126  11.160  0.00  0.00    +0.000 C 
ATOM      4  O   UNL     1      -1.350  15.118  11.844  0.00  0.00    +0.000 OA
ATOM      5  O   UNL     1       0.841  14.953  11.106  0.00  0.00    +0.000 OA
ATOM      6  C   UNL     1      -0.657  16.625  10.213  0.00  0.00    +0.000 C 
ATOM      7  C   UNL     1      -1.883  16.898  10.473  0.00  0.00    +0.000 C 
ATOM      8  C   UNL     1      -0.252  15.488  11.074  0.00  0.00    +0.000 C 
ATOM      9  C   UNL     1      -2.327  16.035  11.471  0.00  0.00    +0.000 C 
ATOM     10  C   UNL     1      -3.569  15.788  11.732  0.00  0.00    +0.000 C 
BRANCH   6  12
ATOM     11  C   UNL     1       0.782  17.872   8.430  0.00  0.00    +0.000 C 
ATOM     12  C   UNL     1       0.120  17.301   9.255  0.00  0.00    +0.000 C 
BRANCH  11  14
ATOM     13  O   UNL     1       2.505  19.480   8.072  0.00  0.00    +0.000 OA
ATOM     14  C   UNL     1       1.585  18.553   7.427  0.00  0.00    +0.000 C 
ATOM     15  C   UNL     1       3.117  18.365   7.429  0.00  0.00    +0.000 C 
ATOM     16  C   UNL     1       0.906  19.050   6.103  0.00  0.00    +0.000 C 
ATOM     17  C   UNL     1       3.823  18.745   6.247  0.00  0.00    +0.000 C 
ATOM     18  C   UNL     1       1.983  19.403   5.174  0.00  0.00    +0.000 C 
ATOM     19  C   UNL     1       3.382  19.312   5.039  0.00  0.00    +0.000 C 
ATOM     20  C   UNL     1       3.852  17.429   8.392  0.00  0.00    +0.000 C 
ATOM     21  C   UNL     1       0.096  17.839   5.568  0.00  0.00    +0.000 C 
ATOM     22  C   UNL     1       0.008  20.245   6.489  0.00  0.00    +0.000 C 
BRANCH  19  23
ATOM     23  O   UNL     1       3.963  19.032   3.839  0.00  0.00    +0.000 OA
ATOM     24  H   UNL     1       4.209  18.093   3.756  0.00  0.00    +0.000 HD
ENDBRANCH  19  23
ENDBRANCH  11  14
ENDBRANCH   6  12
ENDBRANCH   1   2
BRANCH   1  25
ATOM     25  C   UNL     1      -5.623  13.915  14.238  0.00  0.00    +0.000 C 
ATOM     26  C   UNL     1      -5.921  13.231  15.178  0.00  0.00    +0.000 C 
BRANCH  26  28
ATOM     27  C   UNL     1      -6.609  11.660  17.304  0.00  0.00    +0.000 C 
ATOM     28  C   UNL     1      -6.307  12.352  16.372  0.00  0.00    +0.000 C 
BRANCH  27  29
ATOM     29  C   UNL     1      -6.997  10.770  18.491  0.00  0.00    +0.000 C 
BRANCH  29  30
ATOM     30  C   UNL     1      -7.322  10.025  19.500  0.00  0.00    +0.000 C 
ATOM     31  C   UNL     1      -7.050  10.488  20.900  0.00  0.00    +0.000 C 
BRANCH  30  33
ATOM     32  C   UNL     1      -8.367   7.657  19.096  0.00  0.00    +0.000 C 
ATOM     33  C   UNL     1      -7.886   8.743  19.281  0.00  0.00    +0.000 C 
BRANCH  32  39
ATOM     34  C   UNL     1     -10.016   6.232  17.858  0.00  0.00    +0.000 C 
ATOM     35  C   UNL     1      -8.468   5.263  19.711  0.00  0.00    +0.000 C 
ATOM     36  C   UNL     1     -10.212   4.798  17.605  0.00  0.00    +0.000 C 
ATOM     37  C   UNL     1      -9.751   3.556  18.087  0.00  0.00    +0.000 C 
ATOM     38  C   UNL     1      -8.896   4.002  19.115  0.00  0.00    +0.000 C 
ATOM     39  C   UNL     1      -8.898   6.469  18.889  0.00  0.00    +0.000 C 
ATOM     40  C   UNL     1      -9.620   6.909  16.510  0.00  0.00    +0.000 C 
ATOM     41  C   UNL     1     -11.330   6.858  18.399  0.00  0.00    +0.000 C 
ATOM     42  C   UNL     1      -8.950   5.388  21.160  0.00  0.00    +0.000 C 
BRANCH  35  43
ATOM     43  O   UNL     1      -7.060   5.239  19.796  0.00  0.00    +0.000 OA
ATOM     44  H   UNL     1      -6.809   5.612  18.930  0.00  0.00    +0.000 HD
ENDBRANCH  35  43
BRANCH  37  45
ATOM     45  O   UNL     1     -10.669   2.541  18.327  0.00  0.00    +0.000 OA
BRANCH  45  47
ATOM     46  O   UNL     1     -12.197   3.663  19.708  0.00  0.00    +0.000 OA
ATOM     47  C   UNL     1     -11.367   2.809  19.457  0.00  0.00    +0.000 C 
ATOM     48  C   UNL     1     -11.053   1.904  20.596  0.00  0.00    +0.000 C 
ENDBRANCH  45  47
ENDBRANCH  37  45
ENDBRANCH  32  39
ENDBRANCH  30  33
ENDBRANCH  29  30
ENDBRANCH  27  29
ENDBRANCH  26  28
ENDBRANCH   1  25
TORSDOF 13
ENDMDL
MODEL 4
REMARK VINA RESULT:      -5.7      7.587      9.050
REMARK  Name = 5289155_Peridinin.pdbqt.pdb
REMARK  13 active torsions:
REMARK  status: ('A' for Active; 'I' for Inactive)
REMARK    1  A    between atoms: C_1  and  C_3
REMARK    2  A    between atoms: C_3  and  C_25
REMARK    3  A    between atoms: C_6  and  C_12
REMARK    4  A    between atoms: C_11  and  C_14
REMARK    5  A    between atoms: C_19  and  O_23
REMARK    6  A    between atoms: C_26  and  C_28
REMARK    7  A    between atoms: C_27  and  C_31
REMARK    8  A    between atoms: C_29  and  C_31
REMARK    9  A    between atoms: C_29  and  C_42
REMARK   10  A    between atoms: C_33  and  O_43
REMARK   11  A    between atoms: C_35  and  O_45
REMARK   12  A    between atoms: C_37  and  C_41
REMARK   13  A    between atoms: O_45  and  C_47
REMARK                            x       y       z     vdW  Elec       q    Type
REMARK                         _______ _______ _______ _____ _____    ______ ____
ROOT
ATOM      1  C   UNL     1      -4.961  14.506  13.083  0.00  0.00    +0.000 C 
ENDROOT
BRANCH   1   2
ATOM      2  C   UNL     1      -4.587  15.211  12.062  0.00  0.00    +0.000 C 
ATOM      3  C   UNL     1      -3.472  14.733  11.184  0.00  0.00    +0.000 C 
ATOM      4  O   UNL     1      -6.478  18.252  12.473  0.00  0.00    +0.000 OA
ATOM      5  O   UNL     1      -7.182  20.460  12.440  0.00  0.00    +0.000 OA
ATOM      6  C   UNL     1      -6.079  19.470  10.532  0.00  0.00    +0.000 C 
ATOM      7  C   UNL     1      -5.621  18.289  10.329  0.00  0.00    +0.000 C 
ATOM      8  C   UNL     1      -6.654  19.506  11.898  0.00  0.00    +0.000 C 
ATOM      9  C   UNL     1      -5.868  17.517  11.461  0.00  0.00    +0.000 C 
ATOM     10  C   UNL     1      -5.257  16.416  11.750  0.00  0.00    +0.000 C 
BRANCH   6  12
ATOM     11  C   UNL     1      -5.941  21.421   8.806  0.00  0.00    +0.000 C 
ATOM     12  C   UNL     1      -6.008  20.520   9.598  0.00  0.00    +0.000 C 
BRANCH  11  14
ATOM     13  O   UNL     1      -6.164  23.777   8.523  0.00  0.00    +0.000 OA
ATOM     14  C   UNL     1      -5.858  22.519   7.856  0.00  0.00    +0.000 C 
ATOM     15  C   UNL     1      -4.817  23.636   8.080  0.00  0.00    +0.000 C 
ATOM     16  C   UNL     1      -6.439  22.334   6.411  0.00  0.00    +0.000 C 
ATOM     17  C   UNL     1      -4.521  24.486   6.971  0.00  0.00    +0.000 C 
ATOM     18  C   UNL     1      -5.946  23.453   5.603  0.00  0.00    +0.000 C 
ATOM     19  C   UNL     1      -5.038  24.527   5.665  0.00  0.00    +0.000 C 
ATOM     20  C   UNL     1      -3.795  23.621   9.220  0.00  0.00    +0.000 C 
ATOM     21  C   UNL     1      -5.861  20.989   5.895  0.00  0.00    +0.000 C 
ATOM     22  C   UNL     1      -7.977  22.307   6.554  0.00  0.00    +0.000 C 
BRANCH  19  23
ATOM     23  O   UNL     1      -4.286  24.886   4.587  0.00  0.00    +0.000 OA
ATOM     24  H   UNL     1      -4.762  25.487   3.987  0.00  0.00    +0.000 HD
ENDBRANCH  19  23
ENDBRANCH  11  14
ENDBRANCH   6  12
ENDBRANCH   1   2
BRANCH   1  25
ATOM     25  C   UNL     1      -5.403  13.673  14.291  0.00  0.00    +0.000 C 
ATOM     26  C   UNL     1      -5.753  13.017  15.233  0.00  0.00    +0.000 C 
BRANCH  26  28
ATOM     27  C   UNL     1      -6.552  11.510  17.366  0.00  0.00    +0.000 C 
ATOM     28  C   UNL     1      -6.202  12.175  16.431  0.00  0.00    +0.000 C 
BRANCH  27  29
ATOM     29  C   UNL     1      -7.002  10.654  18.557  0.00  0.00    +0.000 C 
BRANCH  29  30
ATOM     30  C   UNL     1      -7.379   9.940  19.570  0.00  0.00    +0.000 C 
ATOM     31  C   UNL     1      -7.153  10.430  20.968  0.00  0.00    +0.000 C 
BRANCH  30  33
ATOM     32  C   UNL     1      -8.454   7.583  19.180  0.00  0.00    +0.000 C 
ATOM     33  C   UNL     1      -7.959   8.664  19.358  0.00  0.00    +0.000 C 
BRANCH  32  39
ATOM     34  C   UNL     1     -10.099   6.164  17.928  0.00  0.00    +0.000 C 
ATOM     35  C   UNL     1      -8.608   5.201  19.830  0.00  0.00    +0.000 C 
ATOM     36  C   UNL     1     -10.312   4.730  17.694  0.00  0.00    +0.000 C 
ATOM     37  C   UNL     1      -9.883   3.488  18.206  0.00  0.00    +0.000 C 
ATOM     38  C   UNL     1      -9.044   3.938  19.246  0.00  0.00    +0.000 C 
ATOM     39  C   UNL     1      -9.000   6.400  18.980  0.00  0.00    +0.000 C 
ATOM     40  C   UNL     1      -9.661   6.812  16.579  0.00  0.00    +0.000 C 
ATOM     41  C   UNL     1     -11.413   6.820  18.430  0.00  0.00    +0.000 C 
ATOM     42  C   UNL     1      -9.120   5.358  21.266  0.00  0.00    +0.000 C 
BRANCH  35  43
ATOM     43  O   UNL     1      -7.203   5.156  19.947  0.00  0.00    +0.000 OA
ATOM     44  H   UNL     1      -6.926   5.510  19.081  0.00  0.00    +0.000 HD
ENDBRANCH  35  43
BRANCH  37  45
ATOM     45  O   UNL     1     -10.823   2.493  18.442  0.00  0.00    +0.000 OA
BRANCH  45  47
ATOM     46  O   UNL     1     -10.778   2.097  20.753  0.00  0.00    +0.000 OA
ATOM     47  C   UNL     1     -11.247   2.554  19.728  0.00  0.00    +0.000 C 
ATOM     48  C   UNL     1     -12.520   3.303  19.914  0.00  0.00    +0.000 C 
ENDBRANCH  45  47
ENDBRANCH  37  45
ENDBRANCH  32  39
ENDBRANCH  30  33
ENDBRANCH  29  30
ENDBRANCH  27  29
ENDBRANCH  26  28
ENDBRANCH   1  25
TORSDOF 13
ENDMDL
MODEL 5
REMARK VINA RESULT:      -5.6     19.329     24.077
REMARK  Name = 5289155_Peridinin.pdbqt.pdb
REMARK  13 active torsions:
REMARK  status: ('A' for Active; 'I' for Inactive)
REMARK    1  A    between atoms: C_1  and  C_3
REMARK    2  A    between atoms: C_3  and  C_25
REMARK    3  A    between atoms: C_6  and  C_12
REMARK    4  A    between atoms: C_11  and  C_14
REMARK    5  A    between atoms: C_19  and  O_23
REMARK    6  A    between atoms: C_26  and  C_28
REMARK    7  A    between atoms: C_27  and  C_31
REMARK    8  A    between atoms: C_29  and  C_31
REMARK    9  A    between atoms: C_29  and  C_42
REMARK   10  A    between atoms: C_33  and  O_43
REMARK   11  A    between atoms: C_35  and  O_45
REMARK   12  A    between atoms: C_37  and  C_41
REMARK   13  A    between atoms: O_45  and  C_47
REMARK                            x       y       z     vdW  Elec       q    Type
REMARK                         _______ _______ _______ _____ _____    ______ ____
ROOT
ATOM      1  C   UNL     1     -22.158  14.340   9.054  0.00  0.00    +0.000 C 
ENDROOT
BRANCH   1   2
ATOM      2  C   UNL     1     -21.712  15.307   9.792  0.00  0.00    +0.000 C 
ATOM      3  C   UNL     1     -20.241  15.454  10.034  0.00  0.00    +0.000 C 
ATOM      4  O   UNL     1     -24.741  16.746  11.113  0.00  0.00    +0.000 OA
ATOM      5  O   UNL     1     -26.301  17.811  12.457  0.00  0.00    +0.000 OA
ATOM      6  C   UNL     1     -24.052  18.665  12.232  0.00  0.00    +0.000 C 
ATOM      7  C   UNL     1     -23.046  18.251  11.552  0.00  0.00    +0.000 C 
ATOM      8  C   UNL     1     -25.181  17.738  11.983  0.00  0.00    +0.000 C 
ATOM      9  C   UNL     1     -23.428  17.117  10.841  0.00  0.00    +0.000 C 
ATOM     10  C   UNL     1     -22.610  16.251  10.340  0.00  0.00    +0.000 C 
BRANCH   6  12
ATOM     11  C   UNL     1     -24.012  20.757  13.791  0.00  0.00    +0.000 C 
ATOM     12  C   UNL     1     -24.032  19.796  13.069  0.00  0.00    +0.000 C 
BRANCH  11  14
ATOM     13  O   UNL     1     -24.370  23.108  13.936  0.00  0.00    +0.000 OA
ATOM     14  C   UNL     1     -23.987  21.912  14.674  0.00  0.00    +0.000 C 
ATOM     15  C   UNL     1     -25.294  22.690  14.938  0.00  0.00    +0.000 C 
ATOM     16  C   UNL     1     -22.815  22.071  15.704  0.00  0.00    +0.000 C 
ATOM     17  C   UNL     1     -25.312  23.574  16.059  0.00  0.00    +0.000 C 
ATOM     18  C   UNL     1     -23.209  23.124  16.644  0.00  0.00    +0.000 C 
ATOM     19  C   UNL     1     -24.319  23.916  16.993  0.00  0.00    +0.000 C 
ATOM     20  C   UNL     1     -26.656  22.268  14.378  0.00  0.00    +0.000 C 
ATOM     21  C   UNL     1     -22.706  20.703  16.428  0.00  0.00    +0.000 C 
ATOM     22  C   UNL     1     -21.552  22.415  14.885  0.00  0.00    +0.000 C 
BRANCH  19  23
ATOM     23  O   UNL     1     -24.602  24.210  18.293  0.00  0.00    +0.000 OA
ATOM     24  H   UNL     1     -24.268  25.086  18.557  0.00  0.00    +0.000 HD
ENDBRANCH  19  23
ENDBRANCH  11  14
ENDBRANCH   6  12
ENDBRANCH   1   2
BRANCH   1  25
ATOM     25  C   UNL     1     -22.686  13.195   8.182  0.00  0.00    +0.000 C 
ATOM     26  C   UNL     1     -23.102  12.303   7.495  0.00  0.00    +0.000 C 
BRANCH  26  28
ATOM     27  C   UNL     1     -24.046  10.282   5.920  0.00  0.00    +0.000 C 
ATOM     28  C   UNL     1     -23.634  11.170   6.613  0.00  0.00    +0.000 C 
BRANCH  27  29
ATOM     29  C   UNL     1     -24.568   9.147   5.029  0.00  0.00    +0.000 C 
BRANCH  29  30
ATOM     30  C   UNL     1     -25.013   8.185   4.285  0.00  0.00    +0.000 C 
ATOM     31  C   UNL     1     -25.051   8.335   2.794  0.00  0.00    +0.000 C 
BRANCH  30  33
ATOM     32  C   UNL     1     -25.948   6.001   5.391  0.00  0.00    +0.000 C 
ATOM     33  C   UNL     1     -25.518   7.003   4.885  0.00  0.00    +0.000 C 
BRANCH  32  39
ATOM     34  C   UNL     1     -27.443   3.995   5.235  0.00  0.00    +0.000 C 
ATOM     35  C   UNL     1     -26.008   4.489   7.347  0.00  0.00    +0.000 C 
ATOM     36  C   UNL     1     -27.565   2.698   5.913  0.00  0.00    +0.000 C 
ATOM     37  C   UNL     1     -27.096   2.052   7.076  0.00  0.00    +0.000 C 
ATOM     38  C   UNL     1     -26.341   3.100   7.641  0.00  0.00    +0.000 C 
ATOM     39  C   UNL     1     -26.417   4.900   5.942  0.00  0.00    +0.000 C 
ATOM     40  C   UNL     1     -26.969   3.731   3.773  0.00  0.00    +0.000 C 
ATOM     41  C   UNL     1     -28.817   4.718   5.224  0.00  0.00    +0.000 C 
ATOM     42  C   UNL     1     -26.604   5.438   8.391  0.00  0.00    +0.000 C 
BRANCH  35  43
ATOM     43  O   UNL     1     -24.610   4.631   7.482  0.00  0.00    +0.000 OA
ATOM     44  H   UNL     1     -24.288   4.069   6.753  0.00  0.00    +0.000 HD
ENDBRANCH  35  43
BRANCH  37  45
ATOM     45  O   UNL     1     -27.992   1.331   7.855  0.00  0.00    +0.000 OA
BRANCH  45  47
ATOM     46  O   UNL     1     -29.495   3.063   8.349  0.00  0.00    +0.000 OA
ATOM     47  C   UNL     1     -28.711   2.176   8.633  0.00  0.00    +0.000 C 
ATOM     48  C   UNL     1     -28.492   1.994  10.094  0.00  0.00    +0.000 C 
ENDBRANCH  45  47
ENDBRANCH  37  45
ENDBRANCH  32  39
ENDBRANCH  30  33
ENDBRANCH  29  30
ENDBRANCH  27  29
ENDBRANCH  26  28
ENDBRANCH   1  25
TORSDOF 13
ENDMDL
MODEL 6
REMARK VINA RESULT:      -5.5      7.624      9.246
REMARK  Name = 5289155_Peridinin.pdbqt.pdb
REMARK  13 active torsions:
REMARK  status: ('A' for Active; 'I' for Inactive)
REMARK    1  A    between atoms: C_1  and  C_3
REMARK    2  A    between atoms: C_3  and  C_25
REMARK    3  A    between atoms: C_6  and  C_12
REMARK    4  A    between atoms: C_11  and  C_14
REMARK    5  A    between atoms: C_19  and  O_23
REMARK    6  A    between atoms: C_26  and  C_28
REMARK    7  A    between atoms: C_27  and  C_31
REMARK    8  A    between atoms: C_29  and  C_31
REMARK    9  A    between atoms: C_29  and  C_42
REMARK   10  A    between atoms: C_33  and  O_43
REMARK   11  A    between atoms: C_35  and  O_45
REMARK   12  A    between atoms: C_37  and  C_41
REMARK   13  A    between atoms: O_45  and  C_47
REMARK                            x       y       z     vdW  Elec       q    Type
REMARK                         _______ _______ _______ _____ _____    ______ ____
ROOT
ATOM      1  C   UNL     1      -4.977  14.477  13.090  0.00  0.00    +0.000 C 
ENDROOT
BRANCH   1   2
ATOM      2  C   UNL     1      -4.592  15.140  12.045  0.00  0.00    +0.000 C 
ATOM      3  C   UNL     1      -3.481  14.618  11.188  0.00  0.00    +0.000 C 
ATOM      4  O   UNL     1      -6.445  18.218  12.345  0.00  0.00    +0.000 OA
ATOM      5  O   UNL     1      -7.122  20.432  12.232  0.00  0.00    +0.000 OA
ATOM      6  C   UNL     1      -6.027  19.362  10.363  0.00  0.00    +0.000 C 
ATOM      7  C   UNL     1      -5.583  18.169  10.203  0.00  0.00    +0.000 C 
ATOM      8  C   UNL     1      -6.605  19.453  11.725  0.00  0.00    +0.000 C 
ATOM      9  C   UNL     1      -5.843  17.440  11.361  0.00  0.00    +0.000 C 
ATOM     10  C   UNL     1      -5.246  16.342  11.690  0.00  0.00    +0.000 C 
BRANCH   6  12
ATOM     11  C   UNL     1      -5.860  21.248   8.569  0.00  0.00    +0.000 C 
ATOM     12  C   UNL     1      -5.941  20.377   9.392  0.00  0.00    +0.000 C 
BRANCH  11  14
ATOM     13  O   UNL     1      -4.470  22.233   6.902  0.00  0.00    +0.000 OA
ATOM     14  C   UNL     1      -5.758  22.309   7.580  0.00  0.00    +0.000 C 
ATOM     15  C   UNL     1      -5.604  21.941   6.089  0.00  0.00    +0.000 C 
ATOM     16  C   UNL     1      -6.278  23.746   7.933  0.00  0.00    +0.000 C 
ATOM     17  C   UNL     1      -5.862  22.969   5.132  0.00  0.00    +0.000 C 
ATOM     18  C   UNL     1      -6.336  24.502   6.679  0.00  0.00    +0.000 C 
ATOM     19  C   UNL     1      -6.213  24.321   5.289  0.00  0.00    +0.000 C 
ATOM     20  C   UNL     1      -5.630  20.501   5.567  0.00  0.00    +0.000 C 
ATOM     21  C   UNL     1      -7.702  23.543   8.517  0.00  0.00    +0.000 C 
ATOM     22  C   UNL     1      -5.288  24.332   8.963  0.00  0.00    +0.000 C 
BRANCH  19  23
ATOM     23  O   UNL     1      -7.023  24.977   4.412  0.00  0.00    +0.000 OA
ATOM     24  H   UNL     1      -7.836  25.308   4.834  0.00  0.00    +0.000 HD
ENDBRANCH  19  23
ENDBRANCH  11  14
ENDBRANCH   6  12
ENDBRANCH   1   2
BRANCH   1  25
ATOM     25  C   UNL     1      -5.433  13.692  14.325  0.00  0.00    +0.000 C 
ATOM     26  C   UNL     1      -5.792  13.074  15.289  0.00  0.00    +0.000 C 
BRANCH  26  28
ATOM     27  C   UNL     1      -6.614  11.653  17.472  0.00  0.00    +0.000 C 
ATOM     28  C   UNL     1      -6.254  12.280  16.515  0.00  0.00    +0.000 C 
BRANCH  27  29
ATOM     29  C   UNL     1      -7.076  10.845  18.691  0.00  0.00    +0.000 C 
BRANCH  29  30
ATOM     30  C   UNL     1      -7.464  10.172  19.728  0.00  0.00    +0.000 C 
ATOM     31  C   UNL     1      -7.284  10.733  21.106  0.00  0.00    +0.000 C 
BRANCH  30  33
ATOM     32  C   UNL     1      -8.478   7.775  19.425  0.00  0.00    +0.000 C 
ATOM     33  C   UNL     1      -8.011   8.874  19.563  0.00  0.00    +0.000 C 
BRANCH  32  39
ATOM     34  C   UNL     1      -8.144   5.358  18.852  0.00  0.00    +0.000 C 
ATOM     35  C   UNL     1     -10.484   6.329  19.439  0.00  0.00    +0.000 C 
ATOM     36  C   UNL     1      -8.880   4.101  19.047  0.00  0.00    +0.000 C 
ATOM     37  C   UNL     1     -10.169   3.665  19.416  0.00  0.00    +0.000 C 
ATOM     38  C   UNL     1     -10.806   4.913  19.573  0.00  0.00    +0.000 C 
ATOM     39  C   UNL     1      -8.993   6.572  19.269  0.00  0.00    +0.000 C 
ATOM     40  C   UNL     1      -6.859   5.305  19.735  0.00  0.00    +0.000 C 
ATOM     41  C   UNL     1      -7.754   5.515  17.358  0.00  0.00    +0.000 C 
ATOM     42  C   UNL     1     -11.278   6.976  18.300  0.00  0.00    +0.000 C 
BRANCH  35  43
ATOM     43  O   UNL     1     -10.929   6.980  20.609  0.00  0.00    +0.000 OA
ATOM     44  H   UNL     1     -10.145   6.900  21.184  0.00  0.00    +0.000 HD
ENDBRANCH  35  43
BRANCH  37  45
ATOM     45  O   UNL     1     -10.775   2.653  18.682  0.00  0.00    +0.000 OA
BRANCH  45  47
ATOM     46  O   UNL     1     -10.166   0.448  19.199  0.00  0.00    +0.000 OA
ATOM     47  C   UNL     1     -10.756   1.496  19.387  0.00  0.00    +0.000 C 
ATOM     48  C   UNL     1     -11.619   1.506  20.599  0.00  0.00    +0.000 C 
ENDBRANCH  45  47
ENDBRANCH  37  45
ENDBRANCH  32  39
ENDBRANCH  30  33
ENDBRANCH  29  30
ENDBRANCH  27  29
ENDBRANCH  26  28
ENDBRANCH   1  25
TORSDOF 13
ENDMDL
MODEL 7
REMARK VINA RESULT:      -5.4     19.379     22.198
REMARK  Name = 5289155_Peridinin.pdbqt.pdb
REMARK  13 active torsions:
REMARK  status: ('A' for Active; 'I' for Inactive)
REMARK    1  A    between atoms: C_1  and  C_3
REMARK    2  A    between atoms: C_3  and  C_25
REMARK    3  A    between atoms: C_6  and  C_12
REMARK    4  A    between atoms: C_11  and  C_14
REMARK    5  A    between atoms: C_19  and  O_23
REMARK    6  A    between atoms: C_26  and  C_28
REMARK    7  A    between atoms: C_27  and  C_31
REMARK    8  A    between atoms: C_29  and  C_31
REMARK    9  A    between atoms: C_29  and  C_42
REMARK   10  A    between atoms: C_33  and  O_43
REMARK   11  A    between atoms: C_35  and  O_45
REMARK   12  A    between atoms: C_37  and  C_41
REMARK   13  A    between atoms: O_45  and  C_47
REMARK                            x       y       z     vdW  Elec       q    Type
REMARK                         _______ _______ _______ _____ _____    ______ ____
ROOT
ATOM      1  C   UNL     1     -10.341  -0.224   2.399  0.00  0.00    +0.000 C 
ENDROOT
BRANCH   1   2
ATOM      2  C   UNL     1      -9.529   0.623   1.849  0.00  0.00    +0.000 C 
ATOM      3  C   UNL     1      -9.933   1.354   0.606  0.00  0.00    +0.000 C 
ATOM      4  O   UNL     1      -6.501   0.154   3.746  0.00  0.00    +0.000 OA
ATOM      5  O   UNL     1      -4.283   0.026   4.409  0.00  0.00    +0.000 OA
ATOM      6  C   UNL     1      -5.068   1.831   3.009  0.00  0.00    +0.000 C 
ATOM      7  C   UNL     1      -6.230   2.102   2.536  0.00  0.00    +0.000 C 
ATOM      8  C   UNL     1      -5.181   0.588   3.808  0.00  0.00    +0.000 C 
ATOM      9  C   UNL     1      -7.126   1.134   2.982  0.00  0.00    +0.000 C 
ATOM     10  C   UNL     1      -8.274   0.888   2.442  0.00  0.00    +0.000 C 
BRANCH   6  12
ATOM     11  C   UNL     1      -2.936   3.266   2.561  0.00  0.00    +0.000 C 
ATOM     12  C   UNL     1      -3.915   2.601   2.767  0.00  0.00    +0.000 C 
BRANCH  11  14
ATOM     13  O   UNL     1      -2.043   5.055   1.264  0.00  0.00    +0.000 OA
ATOM     14  C   UNL     1      -1.758   4.080   2.307  0.00  0.00    +0.000 C 
ATOM     15  C   UNL     1      -1.820   5.601   2.561  0.00  0.00    +0.000 C 
ATOM     16  C   UNL     1      -0.346   3.398   2.260  0.00  0.00    +0.000 C 
ATOM     17  C   UNL     1      -0.578   6.300   2.647  0.00  0.00    +0.000 C 
ATOM     18  C   UNL     1       0.651   4.472   2.303  0.00  0.00    +0.000 C 
ATOM     19  C   UNL     1       0.750   5.861   2.507  0.00  0.00    +0.000 C 
ATOM     20  C   UNL     1      -3.044   6.310   3.148  0.00  0.00    +0.000 C 
ATOM     21  C   UNL     1      -0.261   2.521   3.537  0.00  0.00    +0.000 C 
ATOM     22  C   UNL     1      -0.301   2.566   0.960  0.00  0.00    +0.000 C 
BRANCH  19  23
ATOM     23  O   UNL     1       1.783   6.405   3.210  0.00  0.00    +0.000 OA
ATOM     24  H   UNL     1       1.554   7.270   3.595  0.00  0.00    +0.000 HD
ENDBRANCH  19  23
ENDBRANCH  11  14
ENDBRANCH   6  12
ENDBRANCH   1   2
BRANCH   1  25
ATOM     25  C   UNL     1     -11.301  -1.226   3.051  0.00  0.00    +0.000 C 
ATOM     26  C   UNL     1     -12.048  -2.012   3.566  0.00  0.00    +0.000 C 
BRANCH  26  28
ATOM     27  C   UNL     1     -13.743  -3.802   4.742  0.00  0.00    +0.000 C 
ATOM     28  C   UNL     1     -12.997  -3.016   4.228  0.00  0.00    +0.000 C 
BRANCH  27  29
ATOM     29  C   UNL     1     -14.703  -4.805   5.394  0.00  0.00    +0.000 C 
BRANCH  29  30
ATOM     30  C   UNL     1     -15.505  -5.656   5.950  0.00  0.00    +0.000 C 
ATOM     31  C   UNL     1     -15.095  -7.089   6.111  0.00  0.00    +0.000 C 
BRANCH  30  33
ATOM     32  C   UNL     1     -17.894  -4.894   6.709  0.00  0.00    +0.000 C 
ATOM     33  C   UNL     1     -16.798  -5.245   6.361  0.00  0.00    +0.000 C 
BRANCH  32  39
ATOM     34  C   UNL     1     -20.382  -5.133   6.521  0.00  0.00    +0.000 C 
ATOM     35  C   UNL     1     -19.276  -3.361   8.072  0.00  0.00    +0.000 C 
ATOM     36  C   UNL     1     -21.556  -4.748   7.316  0.00  0.00    +0.000 C 
ATOM     37  C   UNL     1     -21.885  -3.899   8.393  0.00  0.00    +0.000 C 
ATOM     38  C   UNL     1     -20.625  -3.311   8.625  0.00  0.00    +0.000 C 
ATOM     39  C   UNL     1     -19.095  -4.505   7.087  0.00  0.00    +0.000 C 
ATOM     40  C   UNL     1     -20.256  -6.687   6.570  0.00  0.00    +0.000 C 
ATOM     41  C   UNL     1     -20.560  -4.662   5.053  0.00  0.00    +0.000 C 
ATOM     42  C   UNL     1     -18.884  -2.024   7.436  0.00  0.00    +0.000 C 
BRANCH  35  43
ATOM     43  O   UNL     1     -18.379  -3.530   9.147  0.00  0.00    +0.000 OA
ATOM     44  H   UNL     1     -17.984  -4.396   8.934  0.00  0.00    +0.000 HD
ENDBRANCH  35  43
BRANCH  37  45
ATOM     45  O   UNL     1     -23.025  -3.110   8.307  0.00  0.00    +0.000 OA
BRANCH  45  47
ATOM     46  O   UNL     1     -23.722  -1.871  10.173  0.00  0.00    +0.000 OA
ATOM     47  C   UNL     1     -23.533  -2.896   9.545  0.00  0.00    +0.000 C 
ATOM     48  C   UNL     1     -23.915  -4.139  10.269  0.00  0.00    +0.000 C 
ENDBRANCH  45  47
ENDBRANCH  37  45
ENDBRANCH  32  39
ENDBRANCH  30  33
ENDBRANCH  29  30
ENDBRANCH  27  29
ENDBRANCH  26  28
ENDBRANCH   1  25
TORSDOF 13
ENDMDL
MODEL 8
REMARK VINA RESULT:      -5.3     19.135     21.750
REMARK  Name = 5289155_Peridinin.pdbqt.pdb
REMARK  13 active torsions:
REMARK  status: ('A' for Active; 'I' for Inactive)
REMARK    1  A    between atoms: C_1  and  C_3
REMARK    2  A    between atoms: C_3  and  C_25
REMARK    3  A    between atoms: C_6  and  C_12
REMARK    4  A    between atoms: C_11  and  C_14
REMARK    5  A    between atoms: C_19  and  O_23
REMARK    6  A    between atoms: C_26  and  C_28
REMARK    7  A    between atoms: C_27  and  C_31
REMARK    8  A    between atoms: C_29  and  C_31
REMARK    9  A    between atoms: C_29  and  C_42
REMARK   10  A    between atoms: C_33  and  O_43
REMARK   11  A    between atoms: C_35  and  O_45
REMARK   12  A    between atoms: C_37  and  C_41
REMARK   13  A    between atoms: O_45  and  C_47
REMARK                            x       y       z     vdW  Elec       q    Type
REMARK                         _______ _______ _______ _____ _____    ______ ____
ROOT
ATOM      1  C   UNL     1     -10.366  -0.118   2.459  0.00  0.00    +0.000 C 
ENDROOT
BRANCH   1   2
ATOM      2  C   UNL     1      -9.565   0.688   1.835  0.00  0.00    +0.000 C 
ATOM      3  C   UNL     1     -10.001   1.347   0.563  0.00  0.00    +0.000 C 
ATOM      4  O   UNL     1      -6.484   0.305   3.666  0.00  0.00    +0.000 OA
ATOM      5  O   UNL     1      -4.249   0.198   4.269  0.00  0.00    +0.000 OA
ATOM      6  C   UNL     1      -5.063   1.924   2.788  0.00  0.00    +0.000 C 
ATOM      7  C   UNL     1      -6.237   2.176   2.334  0.00  0.00    +0.000 C 
ATOM      8  C   UNL     1      -5.160   0.731   3.662  0.00  0.00    +0.000 C 
ATOM      9  C   UNL     1      -7.126   1.244   2.864  0.00  0.00    +0.000 C 
ATOM     10  C   UNL     1      -8.291   0.976   2.373  0.00  0.00    +0.000 C 
BRANCH   6  12
ATOM     11  C   UNL     1      -2.935   3.311   2.193  0.00  0.00    +0.000 C 
ATOM     12  C   UNL     1      -3.913   2.667   2.466  0.00  0.00    +0.000 C 
BRANCH  11  14
ATOM     13  O   UNL     1      -2.135   5.210   0.996  0.00  0.00    +0.000 OA
ATOM     14  C   UNL     1      -1.760   4.099   1.859  0.00  0.00    +0.000 C 
ATOM     15  C   UNL     1      -1.689   5.576   2.299  0.00  0.00    +0.000 C 
ATOM     16  C   UNL     1      -0.415   3.368   1.513  0.00  0.00    +0.000 C 
ATOM     17  C   UNL     1      -0.407   6.205   2.274  0.00  0.00    +0.000 C 
ATOM     18  C   UNL     1       0.642   4.384   1.529  0.00  0.00    +0.000 C 
ATOM     19  C   UNL     1       0.856   5.731   1.879  0.00  0.00    +0.000 C 
ATOM     20  C   UNL     1      -2.766   6.257   3.148  0.00  0.00    +0.000 C 
ATOM     21  C   UNL     1      -0.197   2.333   2.648  0.00  0.00    +0.000 C 
ATOM     22  C   UNL     1      -0.615   2.707   0.132  0.00  0.00    +0.000 C 
BRANCH  19  23
ATOM     23  O   UNL     1       2.013   6.135   2.474  0.00  0.00    +0.000 OA
ATOM     24  H   UNL     1       1.898   6.953   2.990  0.00  0.00    +0.000 HD
ENDBRANCH  19  23
ENDBRANCH  11  14
ENDBRANCH   6  12
ENDBRANCH   1   2
BRANCH   1  25
ATOM     25  C   UNL     1     -11.312  -1.072   3.197  0.00  0.00    +0.000 C 
ATOM     26  C   UNL     1     -12.056  -1.819   3.770  0.00  0.00    +0.000 C 
BRANCH  26  28
ATOM     27  C   UNL     1     -13.754  -3.520   5.068  0.00  0.00    +0.000 C 
ATOM     28  C   UNL     1     -13.008  -2.775   4.496  0.00  0.00    +0.000 C 
BRANCH  27  29
ATOM     29  C   UNL     1     -14.704  -4.471   5.807  0.00  0.00    +0.000 C 
BRANCH  29  30
ATOM     30  C   UNL     1     -15.510  -5.277   6.421  0.00  0.00    +0.000 C 
ATOM     31  C   UNL     1     -16.849  -5.605   5.831  0.00  0.00    +0.000 C 
BRANCH  30  33
ATOM     32  C   UNL     1     -14.842  -6.262   8.756  0.00  0.00    +0.000 C 
ATOM     33  C   UNL     1     -15.150  -5.810   7.685  0.00  0.00    +0.000 C 
BRANCH  32  39
ATOM     34  C   UNL     1     -15.331  -6.500  11.202  0.00  0.00    +0.000 C 
ATOM     35  C   UNL     1     -13.223  -7.558  10.104  0.00  0.00    +0.000 C 
ATOM     36  C   UNL     1     -14.918  -7.395  12.293  0.00  0.00    +0.000 C 
ATOM     37  C   UNL     1     -13.926  -8.359  12.566  0.00  0.00    +0.000 C 
ATOM     38  C   UNL     1     -13.196  -8.297  11.361  0.00  0.00    +0.000 C 
ATOM     39  C   UNL     1     -14.502  -6.753   9.930  0.00  0.00    +0.000 C 
ATOM     40  C   UNL     1     -16.834  -6.778  10.896  0.00  0.00    +0.000 C 
ATOM     41  C   UNL     1     -15.142  -5.021  11.631  0.00  0.00    +0.000 C 
ATOM     42  C   UNL     1     -11.989  -6.663   9.956  0.00  0.00    +0.000 C 
BRANCH  35  43
ATOM     43  O   UNL     1     -13.120  -8.496   9.055  0.00  0.00    +0.000 OA
ATOM     44  H   UNL     1     -13.972  -8.366   8.596  0.00  0.00    +0.000 HD
ENDBRANCH  35  43
BRANCH  37  45
ATOM     45  O   UNL     1     -13.268  -8.324  13.789  0.00  0.00    +0.000 OA
BRANCH  45  47
ATOM     46  O   UNL     1     -11.809 -10.057  14.395  0.00  0.00    +0.000 OA
ATOM     47  C   UNL     1     -12.900  -9.577  14.151  0.00  0.00    +0.000 C 
ATOM     48  C   UNL     1     -14.032 -10.537  14.257  0.00  0.00    +0.000 C 
ENDBRANCH  45  47
ENDBRANCH  37  45
ENDBRANCH  32  39
ENDBRANCH  30  33
ENDBRANCH  29  30
ENDBRANCH  27  29
ENDBRANCH  26  28
ENDBRANCH   1  25
TORSDOF 13
ENDMDL
MODEL 9
REMARK VINA RESULT:      -5.3      7.750      9.318
REMARK  Name = 5289155_Peridinin.pdbqt.pdb
REMARK  13 active torsions:
REMARK  status: ('A' for Active; 'I' for Inactive)
REMARK    1  A    between atoms: C_1  and  C_3
REMARK    2  A    between atoms: C_3  and  C_25
REMARK    3  A    between atoms: C_6  and  C_12
REMARK    4  A    between atoms: C_11  and  C_14
REMARK    5  A    between atoms: C_19  and  O_23
REMARK    6  A    between atoms: C_26  and  C_28
REMARK    7  A    between atoms: C_27  and  C_31
REMARK    8  A    between atoms: C_29  and  C_31
REMARK    9  A    between atoms: C_29  and  C_42
REMARK   10  A    between atoms: C_33  and  O_43
REMARK   11  A    between atoms: C_35  and  O_45
REMARK   12  A    between atoms: C_37  and  C_41
REMARK   13  A    between atoms: O_45  and  C_47
REMARK                            x       y       z     vdW  Elec       q    Type
REMARK                         _______ _______ _______ _____ _____    ______ ____
ROOT
ATOM      1  C   UNL     1      -5.975  14.121  15.648  0.00  0.00    +0.000 C 
ENDROOT
BRANCH   1   2
ATOM      2  C   UNL     1      -5.801  15.389  15.445  0.00  0.00    +0.000 C 
ATOM      3  C   UNL     1      -5.805  16.344  16.598  0.00  0.00    +0.000 C 
ATOM      4  O   UNL     1      -5.871  15.624  11.849  0.00  0.00    +0.000 OA
ATOM      5  O   UNL     1      -6.151  16.359   9.668  0.00  0.00    +0.000 OA
ATOM      6  C   UNL     1      -5.291  17.828  11.383  0.00  0.00    +0.000 C 
ATOM      7  C   UNL     1      -5.051  17.637  12.629  0.00  0.00    +0.000 C 
ATOM      8  C   UNL     1      -5.814  16.560  10.821  0.00  0.00    +0.000 C 
ATOM      9  C   UNL     1      -5.357  16.315  12.942  0.00  0.00    +0.000 C 
ATOM     10  C   UNL     1      -5.571  15.871  14.136  0.00  0.00    +0.000 C 
BRANCH   6  12
ATOM     11  C   UNL     1      -4.921  20.091  10.138  0.00  0.00    +0.000 C 
ATOM     12  C   UNL     1      -5.093  19.051  10.716  0.00  0.00    +0.000 C 
BRANCH  11  14
ATOM     13  O   UNL     1      -5.263  22.449  10.200  0.00  0.00    +0.000 OA
ATOM     14  C   UNL     1      -4.708  21.343   9.431  0.00  0.00    +0.000 C 
ATOM     15  C   UNL     1      -3.843  22.442  10.084  0.00  0.00    +0.000 C 
ATOM     16  C   UNL     1      -4.917  21.398   7.877  0.00  0.00    +0.000 C 
ATOM     17  C   UNL     1      -3.365  23.488   9.236  0.00  0.00    +0.000 C 
ATOM     18  C   UNL     1      -4.342  22.662   7.410  0.00  0.00    +0.000 C 
ATOM     19  C   UNL     1      -3.564  23.742   7.868  0.00  0.00    +0.000 C 
ATOM     20  C   UNL     1      -3.118  22.264  11.421  0.00  0.00    +0.000 C 
ATOM     21  C   UNL     1      -4.127  20.191   7.306  0.00  0.00    +0.000 C 
ATOM     22  C   UNL     1      -6.438  21.284   7.633  0.00  0.00    +0.000 C 
BRANCH  19  23
ATOM     23  O   UNL     1      -2.612  24.317   7.081  0.00  0.00    +0.000 OA
ATOM     24  H   UNL     1      -2.601  25.288   7.161  0.00  0.00    +0.000 HD
ENDBRANCH  19  23
ENDBRANCH  11  14
ENDBRANCH   6  12
ENDBRANCH   1   2
BRANCH   1  25
ATOM     25  C   UNL     1      -6.180  12.621  15.887  0.00  0.00    +0.000 C 
ATOM     26  C   UNL     1      -6.340  11.448  16.080  0.00  0.00    +0.000 C 
BRANCH  26  28
ATOM     27  C   UNL     1      -6.704   8.778  16.527  0.00  0.00    +0.000 C 
ATOM     28  C   UNL     1      -6.544   9.951  16.334  0.00  0.00    +0.000 C 
BRANCH  27  29
ATOM     29  C   UNL     1      -6.911   7.277  16.768  0.00  0.00    +0.000 C 
BRANCH  29  30
ATOM     30  C   UNL     1      -7.095   6.010  16.965  0.00  0.00    +0.000 C 
ATOM     31  C   UNL     1      -6.193   5.004  16.318  0.00  0.00    +0.000 C 
BRANCH  30  33
ATOM     32  C   UNL     1      -9.118   5.194  18.417  0.00  0.00    +0.000 C 
ATOM     33  C   UNL     1      -8.189   5.569  17.752  0.00  0.00    +0.000 C 
BRANCH  32  39
ATOM     34  C   UNL     1     -11.097   5.748  19.852  0.00  0.00    +0.000 C 
ATOM     35  C   UNL     1     -10.376   3.294  19.378  0.00  0.00    +0.000 C 
ATOM     36  C   UNL     1     -12.298   5.051  20.331  0.00  0.00    +0.000 C 
ATOM     37  C   UNL     1     -12.805   3.739  20.426  0.00  0.00    +0.000 C 
ATOM     38  C   UNL     1     -11.712   3.022  19.898  0.00  0.00    +0.000 C 
ATOM     39  C   UNL     1     -10.133   4.777  19.146  0.00  0.00    +0.000 C 
ATOM     40  C   UNL     1     -11.549   6.845  18.840  0.00  0.00    +0.000 C 
ATOM     41  C   UNL     1     -10.353   6.403  21.047  0.00  0.00    +0.000 C 
ATOM     42  C   UNL     1      -9.293   2.696  20.282  0.00  0.00    +0.000 C 
BRANCH  35  43
ATOM     43  O   UNL     1     -10.247   2.606  18.152  0.00  0.00    +0.000 OA
ATOM     44  H   UNL     1     -11.140   2.717  17.775  0.00  0.00    +0.000 HD
ENDBRANCH  35  43
BRANCH  37  45
ATOM     45  O   UNL     1     -13.407   3.331  21.610  0.00  0.00    +0.000 OA
BRANCH  45  47
ATOM     46  O   UNL     1     -15.587   3.979  21.037  0.00  0.00    +0.000 OA
ATOM     47  C   UNL     1     -14.605   3.947  21.756  0.00  0.00    +0.000 C 
ATOM     48  C   UNL     1     -14.737   4.735  23.011  0.00  0.00    +0.000 C 
ENDBRANCH  45  47
ENDBRANCH  37  45
ENDBRANCH  32  39
ENDBRANCH  30  33
ENDBRANCH  29  30
ENDBRANCH  27  29
ENDBRANCH  26  28
ENDBRANCH   1  25
TORSDOF 13
ENDMDL
