MODEL 1
REMARK VINA RESULT:      -6.8      0.000      0.000
REMARK  Name = 5318517_Andrographolide.pdbqt.pdb
REMARK  6 active torsions:
REMARK  status: ('A' for Active; 'I' for Inactive)
REMARK    1  A    between atoms: C_3  and  C_16
REMARK    2  A    between atoms: C_4  and  C_19
REMARK    3  A    between atoms: C_6  and  O_14
REMARK    4  A    between atoms: C_16  and  O_17
REMARK    5  A    between atoms: C_22  and  C_23
REMARK    6  A    between atoms: C_24  and  O_27
REMARK                            x       y       z     vdW  Elec       q    Type
REMARK                         _______ _______ _______ _____ _____    ______ ____
ROOT
ATOM      1  C   UNL     1     -15.290  10.385  -2.949  0.00  0.00    +0.000 C 
ATOM      2  C   UNL     1     -14.662  11.809  -2.862  0.00  0.00    +0.000 C 
ATOM      3  C   UNL     1     -14.139  12.561  -4.099  0.00  0.00    +0.000 C 
ATOM      4  C   UNL     1     -15.142   9.473  -1.699  0.00  0.00    +0.000 C 
ATOM      5  C   UNL     1     -14.637   9.765  -4.099  0.00  0.00    +0.000 C 
ATOM      6  C   UNL     1     -13.705  11.700  -5.323  0.00  0.00    +0.000 C 
ATOM      7  C   UNL     1     -14.580  12.316  -1.534  0.00  0.00    +0.000 C 
ATOM      8  C   UNL     1     -13.878  10.305  -5.263  0.00  0.00    +0.000 C 
ATOM      9  C   UNL     1     -16.814  10.570  -3.220  0.00  0.00    +0.000 C 
ATOM     10  C   UNL     1     -14.780  11.455  -0.328  0.00  0.00    +0.000 C 
ATOM     11  C   UNL     1     -15.050  10.071  -0.359  0.00  0.00    +0.000 C 
ATOM     12  C   UNL     1     -12.855  13.358  -3.669  0.00  0.00    +0.000 C 
ATOM     13  C   UNL     1     -14.968   9.392   0.786  0.00  0.00    +0.000 C 
ENDROOT
BRANCH   6  14
ATOM     14  O   UNL     1     -13.350  12.298  -6.520  0.00  0.00    +0.000 OA
ATOM     15  H   UNL     1     -13.910  12.004  -7.260  0.00  0.00    +0.000 HD
ENDBRANCH   6  14
BRANCH   4  16
ATOM     16  C   UNL     1     -15.223   8.045  -1.831  0.00  0.00    +0.000 C 
ATOM     17  C   UNL     1     -15.304   6.522  -1.962  0.00  0.00    +0.000 C 
BRANCH  17  20
ATOM     18  O   UNL     1     -14.692   3.013  -1.962  0.00  0.00    +0.000 OA
ATOM     19  O   UNL     1     -13.018   4.627  -1.777  0.00  0.00    +0.000 OA
ATOM     20  C   UNL     1     -15.380   5.232  -2.067  0.00  0.00    +0.000 C 
ATOM     21  C   UNL     1     -16.566   4.431  -2.234  0.00  0.00    +0.000 C 
ATOM     22  C   UNL     1     -14.187   4.310  -1.914  0.00  0.00    +0.000 C 
ATOM     23  C   UNL     1     -15.998   3.159  -2.130  0.00  0.00    +0.000 C 
BRANCH  21  24
ATOM     24  O   UNL     1     -17.740   4.805  -1.645  0.00  0.00    +0.000 OA
ATOM     25  H   UNL     1     -18.376   5.154  -2.294  0.00  0.00    +0.000 HD
ENDBRANCH  21  24
ENDBRANCH  17  20
ENDBRANCH   4  16
BRANCH   3  26
ATOM     26  C   UNL     1     -15.207  13.504  -4.538  0.00  0.00    +0.000 C 
BRANCH  26  27
ATOM     27  O   UNL     1     -16.169  14.348  -4.921  0.00  0.00    +0.000 OA
ATOM     28  H   UNL     1     -16.055  15.216  -4.493  0.00  0.00    +0.000 HD
ENDBRANCH  26  27
ENDBRANCH   3  26
TORSDOF 6
ENDMDL
MODEL 2
REMARK VINA RESULT:      -6.5     11.317     14.375
REMARK  Name = 5318517_Andrographolide.pdbqt.pdb
REMARK  6 active torsions:
REMARK  status: ('A' for Active; 'I' for Inactive)
REMARK    1  A    between atoms: C_3  and  C_16
REMARK    2  A    between atoms: C_4  and  C_19
REMARK    3  A    between atoms: C_6  and  O_14
REMARK    4  A    between atoms: C_16  and  O_17
REMARK    5  A    between atoms: C_22  and  C_23
REMARK    6  A    between atoms: C_24  and  O_27
REMARK                            x       y       z     vdW  Elec       q    Type
REMARK                         _______ _______ _______ _____ _____    ______ ____
ROOT
ATOM      1  C   UNL     1     -25.306   8.252   4.334  0.00  0.00    +0.000 C 
ATOM      2  C   UNL     1     -25.191   7.227   3.166  0.00  0.00    +0.000 C 
ATOM      3  C   UNL     1     -25.364   5.712   3.374  0.00  0.00    +0.000 C 
ATOM      4  C   UNL     1     -24.479   9.563   4.205  0.00  0.00    +0.000 C 
ATOM      5  C   UNL     1     -24.882   7.511   5.518  0.00  0.00    +0.000 C 
ATOM      6  C   UNL     1     -25.079   5.153   4.800  0.00  0.00    +0.000 C 
ATOM      7  C   UNL     1     -24.867   7.823   1.914  0.00  0.00    +0.000 C 
ATOM      8  C   UNL     1     -24.752   6.058   5.827  0.00  0.00    +0.000 C 
ATOM      9  C   UNL     1     -26.809   8.653   4.448  0.00  0.00    +0.000 C 
ATOM     10  C   UNL     1     -24.381   9.231   1.792  0.00  0.00    +0.000 C 
ATOM     11  C   UNL     1     -24.174  10.111   2.875  0.00  0.00    +0.000 C 
ATOM     12  C   UNL     1     -24.349   4.978   2.424  0.00  0.00    +0.000 C 
ATOM     13  C   UNL     1     -23.516  11.247   2.641  0.00  0.00    +0.000 C 
ENDROOT
BRANCH   6  14
ATOM     14  O   UNL     1     -25.338   3.828   5.107  0.00  0.00    +0.000 OA
ATOM     15  H   UNL     1     -25.813   3.370   4.392  0.00  0.00    +0.000 HD
ENDBRANCH   6  14
BRANCH   4  16
ATOM     16  C   UNL     1     -24.121  10.311   5.377  0.00  0.00    +0.000 C 
ATOM     17  C   UNL     1     -23.743  11.118   6.622  0.00  0.00    +0.000 C 
BRANCH  17  20
ATOM     18  O   UNL     1     -23.703  13.291   9.443  0.00  0.00    +0.000 OA
ATOM     19  O   UNL     1     -25.343  13.341   7.785  0.00  0.00    +0.000 OA
ATOM     20  C   UNL     1     -23.432  11.802   7.678  0.00  0.00    +0.000 C 
ATOM     21  C   UNL     1     -22.298  11.614   8.547  0.00  0.00    +0.000 C 
ATOM     22  C   UNL     1     -24.311  12.894   8.255  0.00  0.00    +0.000 C 
ATOM     23  C   UNL     1     -22.615  12.543   9.540  0.00  0.00    +0.000 C 
BRANCH  21  24
ATOM     24  O   UNL     1     -21.815  10.359   8.787  0.00  0.00    +0.000 OA
ATOM     25  H   UNL     1     -22.384   9.864   9.402  0.00  0.00    +0.000 HD
ENDBRANCH  21  24
ENDBRANCH  17  20
ENDBRANCH   4  16
BRANCH   3  26
ATOM     26  C   UNL     1     -26.764   5.362   3.000  0.00  0.00    +0.000 C 
BRANCH  26  27
ATOM     27  O   UNL     1     -28.021   5.060   2.662  0.00  0.00    +0.000 OA
ATOM     28  H   UNL     1     -28.634   5.280   3.387  0.00  0.00    +0.000 HD
ENDBRANCH  26  27
ENDBRANCH   3  26
TORSDOF 6
ENDMDL
MODEL 3
REMARK VINA RESULT:      -6.3      2.235      7.434
REMARK  Name = 5318517_Andrographolide.pdbqt.pdb
REMARK  6 active torsions:
REMARK  status: ('A' for Active; 'I' for Inactive)
REMARK    1  A    between atoms: C_3  and  C_16
REMARK    2  A    between atoms: C_4  and  C_19
REMARK    3  A    between atoms: C_6  and  O_14
REMARK    4  A    between atoms: C_16  and  O_17
REMARK    5  A    between atoms: C_22  and  C_23
REMARK    6  A    between atoms: C_24  and  O_27
REMARK                            x       y       z     vdW  Elec       q    Type
REMARK                         _______ _______ _______ _____ _____    ______ ____
ROOT
ATOM      1  C   UNL     1     -16.145   7.459  -2.021  0.00  0.00    +0.000 C 
ATOM      2  C   UNL     1     -17.207   6.394  -1.610  0.00  0.00    +0.000 C 
ATOM      3  C   UNL     1     -17.972   5.546  -2.642  0.00  0.00    +0.000 C 
ATOM      4  C   UNL     1     -15.960   8.673  -1.067  0.00  0.00    +0.000 C 
ATOM      5  C   UNL     1     -16.578   7.922  -3.337  0.00  0.00    +0.000 C 
ATOM      6  C   UNL     1     -18.119   6.136  -4.077  0.00  0.00    +0.000 C 
ATOM      7  C   UNL     1     -17.427   6.321  -0.205  0.00  0.00    +0.000 C 
ATOM      8  C   UNL     1     -17.494   7.362  -4.371  0.00  0.00    +0.000 C 
ATOM      9  C   UNL     1     -14.773   6.726  -2.123  0.00  0.00    +0.000 C 
ATOM     10  C   UNL     1     -16.931   7.363   0.745  0.00  0.00    +0.000 C 
ATOM     11  C   UNL     1     -16.219   8.522   0.373  0.00  0.00    +0.000 C 
ATOM     12  C   UNL     1     -19.439   5.355  -2.112  0.00  0.00    +0.000 C 
ATOM     13  C   UNL     1     -16.050   9.475   1.291  0.00  0.00    +0.000 C 
ENDROOT
BRANCH   6  14
ATOM     14  O   UNL     1     -18.675   5.385  -5.098  0.00  0.00    +0.000 OA
ATOM     15  H   UNL     1     -19.488   4.927  -4.819  0.00  0.00    +0.000 HD
ENDBRANCH   6  14
BRANCH   4  16
ATOM     16  C   UNL     1     -15.414   9.905  -1.562  0.00  0.00    +0.000 C 
ATOM     17  C   UNL     1     -14.837  11.218  -2.100  0.00  0.00    +0.000 C 
BRANCH  17  20
ATOM     18  O   UNL     1     -14.202  14.232  -3.888  0.00  0.00    +0.000 OA
ATOM     19  O   UNL     1     -15.707  12.594  -4.590  0.00  0.00    +0.000 OA
ATOM     20  C   UNL     1     -14.357  12.332  -2.556  0.00  0.00    +0.000 C 
ATOM     21  C   UNL     1     -13.357  13.173  -1.949  0.00  0.00    +0.000 C 
ATOM     22  C   UNL     1     -14.873  13.015  -3.807  0.00  0.00    +0.000 C 
ATOM     23  C   UNL     1     -13.398  14.252  -2.835  0.00  0.00    +0.000 C 
BRANCH  21  24
ATOM     24  O   UNL     1     -13.287  13.291  -0.590  0.00  0.00    +0.000 OA
ATOM     25  H   UNL     1     -13.924  13.944  -0.250  0.00  0.00    +0.000 HD
ENDBRANCH  21  24
ENDBRANCH  17  20
ENDBRANCH   4  16
BRANCH   3  26
ATOM     26  C   UNL     1     -17.284   4.228  -2.741  0.00  0.00    +0.000 C 
BRANCH  26  27
ATOM     27  O   UNL     1     -16.657   3.051  -2.833  0.00  0.00    +0.000 OA
ATOM     28  H   UNL     1     -15.993   2.960  -2.126  0.00  0.00    +0.000 HD
ENDBRANCH  26  27
ENDBRANCH   3  26
TORSDOF 6
ENDMDL
MODEL 4
REMARK VINA RESULT:      -6.2     24.546     27.205
REMARK  Name = 5318517_Andrographolide.pdbqt.pdb
REMARK  6 active torsions:
REMARK  status: ('A' for Active; 'I' for Inactive)
REMARK    1  A    between atoms: C_3  and  C_16
REMARK    2  A    between atoms: C_4  and  C_19
REMARK    3  A    between atoms: C_6  and  O_14
REMARK    4  A    between atoms: C_16  and  O_17
REMARK    5  A    between atoms: C_22  and  C_23
REMARK    6  A    between atoms: C_24  and  O_27
REMARK                            x       y       z     vdW  Elec       q    Type
REMARK                         _______ _______ _______ _____ _____    ______ ____
ROOT
ATOM      1  C   UNL     1     -12.386  18.021  22.821  0.00  0.00    +0.000 C 
ATOM      2  C   UNL     1     -13.553  18.916  22.306  0.00  0.00    +0.000 C 
ATOM      3  C   UNL     1     -14.745  19.316  23.195  0.00  0.00    +0.000 C 
ATOM      4  C   UNL     1     -11.658  17.139  21.767  0.00  0.00    +0.000 C 
ATOM      5  C   UNL     1     -12.993  17.176  23.845  0.00  0.00    +0.000 C 
ATOM      6  C   UNL     1     -15.082  18.379  24.394  0.00  0.00    +0.000 C 
ATOM      7  C   UNL     1     -13.431  19.281  20.935  0.00  0.00    +0.000 C 
ATOM      8  C   UNL     1     -14.251  17.271  24.640  0.00  0.00    +0.000 C 
ATOM      9  C   UNL     1     -11.323  18.970  23.454  0.00  0.00    +0.000 C 
ATOM     10  C   UNL     1     -12.460  18.623  20.008  0.00  0.00    +0.000 C 
ATOM     11  C   UNL     1     -11.584  17.577  20.366  0.00  0.00    +0.000 C 
ATOM     12  C   UNL     1     -16.033  19.329  22.294  0.00  0.00    +0.000 C 
ATOM     13  C   UNL     1     -10.949  16.931  19.387  0.00  0.00    +0.000 C 
ENDROOT
BRANCH   6  14
ATOM     14  O   UNL     1     -16.050  18.732  25.318  0.00  0.00    +0.000 OA
ATOM     15  H   UNL     1     -15.997  19.672  25.567  0.00  0.00    +0.000 HD
ENDBRANCH   6  14
BRANCH   4  16
ATOM     16  C   UNL     1     -10.948  15.960  22.178  0.00  0.00    +0.000 C 
ATOM     17  C   UNL     1     -10.201  14.699  22.621  0.00  0.00    +0.000 C 
BRANCH  17  20
ATOM     18  O   UNL     1      -8.462  12.156  24.408  0.00  0.00    +0.000 OA
ATOM     19  O   UNL     1      -8.773  14.326  25.204  0.00  0.00    +0.000 OA
ATOM     20  C   UNL     1      -9.573  13.627  22.991  0.00  0.00    +0.000 C 
ATOM     21  C   UNL     1      -9.472  12.377  22.281  0.00  0.00    +0.000 C 
ATOM     22  C   UNL     1      -8.904  13.475  24.342  0.00  0.00    +0.000 C 
ATOM     23  C   UNL     1      -8.815  11.617  23.251  0.00  0.00    +0.000 C 
BRANCH  21  24
ATOM     24  O   UNL     1     -10.516  11.929  21.523  0.00  0.00    +0.000 OA
ATOM     25  H   UNL     1     -10.854  11.073  21.842  0.00  0.00    +0.000 HD
ENDBRANCH  21  24
ENDBRANCH  17  20
ENDBRANCH   4  16
BRANCH   3  26
ATOM     26  C   UNL     1     -14.474  20.682  23.725  0.00  0.00    +0.000 C 
BRANCH  26  27
ATOM     27  O   UNL     1     -14.224  21.910  24.190  0.00  0.00    +0.000 OA
ATOM     28  H   UNL     1     -14.502  22.585  23.545  0.00  0.00    +0.000 HD
ENDBRANCH  26  27
ENDBRANCH   3  26
TORSDOF 6
ENDMDL
MODEL 5
REMARK VINA RESULT:      -5.7      3.361      5.306
REMARK  Name = 5318517_Andrographolide.pdbqt.pdb
REMARK  6 active torsions:
REMARK  status: ('A' for Active; 'I' for Inactive)
REMARK    1  A    between atoms: C_3  and  C_16
REMARK    2  A    between atoms: C_4  and  C_19
REMARK    3  A    between atoms: C_6  and  O_14
REMARK    4  A    between atoms: C_16  and  O_17
REMARK    5  A    between atoms: C_22  and  C_23
REMARK    6  A    between atoms: C_24  and  O_27
REMARK                            x       y       z     vdW  Elec       q    Type
REMARK                         _______ _______ _______ _____ _____    ______ ____
ROOT
ATOM      1  C   UNL     1     -16.200   7.455  -2.196  0.00  0.00    +0.000 C 
ATOM      2  C   UNL     1     -16.768   7.797  -0.785  0.00  0.00    +0.000 C 
ATOM      3  C   UNL     1     -16.758   9.226  -0.213  0.00  0.00    +0.000 C 
ATOM      4  C   UNL     1     -15.630   6.022  -2.396  0.00  0.00    +0.000 C 
ATOM      5  C   UNL     1     -15.151   8.445  -2.422  0.00  0.00    +0.000 C 
ATOM      6  C   UNL     1     -15.683  10.207  -0.772  0.00  0.00    +0.000 C 
ATOM      7  C   UNL     1     -17.246   6.661  -0.072  0.00  0.00    +0.000 C 
ATOM      8  C   UNL     1     -14.837   9.765  -1.805  0.00  0.00    +0.000 C 
ATOM      9  C   UNL     1     -17.362   7.646  -3.218  0.00  0.00    +0.000 C 
ATOM     10  C   UNL     1     -16.950   5.259  -0.495  0.00  0.00    +0.000 C 
ATOM     11  C   UNL     1     -16.167   4.900  -1.612  0.00  0.00    +0.000 C 
ATOM     12  C   UNL     1     -16.473   9.123   1.329  0.00  0.00    +0.000 C 
ATOM     13  C   UNL     1     -15.792   3.626  -1.730  0.00  0.00    +0.000 C 
ENDROOT
BRANCH   6  14
ATOM     14  O   UNL     1     -15.689  11.543  -0.411  0.00  0.00    +0.000 OA
ATOM     15  H   UNL     1     -14.826  11.969  -0.558  0.00  0.00    +0.000 HD
ENDBRANCH   6  14
BRANCH   4  16
ATOM     16  C   UNL     1     -14.670   5.764  -3.433  0.00  0.00    +0.000 C 
ATOM     17  C   UNL     1     -13.639   5.497  -4.534  0.00  0.00    +0.000 C 
BRANCH  17  20
ATOM     18  O   UNL     1     -10.774   4.530  -6.415  0.00  0.00    +0.000 OA
ATOM     19  O   UNL     1     -10.827   4.634  -4.085  0.00  0.00    +0.000 OA
ATOM     20  C   UNL     1     -12.762   5.267  -5.459  0.00  0.00    +0.000 C 
ATOM     21  C   UNL     1     -12.953   5.317  -6.887  0.00  0.00    +0.000 C 
ATOM     22  C   UNL     1     -11.354   4.780  -5.174  0.00  0.00    +0.000 C 
ATOM     23  C   UNL     1     -11.709   4.837  -7.301  0.00  0.00    +0.000 C 
BRANCH  21  24
ATOM     24  O   UNL     1     -14.148   4.944  -7.435  0.00  0.00    +0.000 OA
ATOM     25  H   UNL     1     -14.030   4.514  -8.300  0.00  0.00    +0.000 HD
ENDBRANCH  21  24
ENDBRANCH  17  20
ENDBRANCH   4  16
BRANCH   3  26
ATOM     26  C   UNL     1     -18.106   9.816  -0.450  0.00  0.00    +0.000 C 
BRANCH  26  27
ATOM     27  O   UNL     1     -19.318  10.335  -0.665  0.00  0.00    +0.000 OA
ATOM     28  H   UNL     1     -19.670  10.736   0.150  0.00  0.00    +0.000 HD
ENDBRANCH  26  27
ENDBRANCH   3  26
TORSDOF 6
ENDMDL
MODEL 6
REMARK VINA RESULT:      -5.6      3.236      5.876
REMARK  Name = 5318517_Andrographolide.pdbqt.pdb
REMARK  6 active torsions:
REMARK  status: ('A' for Active; 'I' for Inactive)
REMARK    1  A    between atoms: C_3  and  C_16
REMARK    2  A    between atoms: C_4  and  C_19
REMARK    3  A    between atoms: C_6  and  O_14
REMARK    4  A    between atoms: C_16  and  O_17
REMARK    5  A    between atoms: C_22  and  C_23
REMARK    6  A    between atoms: C_24  and  O_27
REMARK                            x       y       z     vdW  Elec       q    Type
REMARK                         _______ _______ _______ _____ _____    ______ ____
ROOT
ATOM      1  C   UNL     1     -15.478   8.746  -3.240  0.00  0.00    +0.000 C 
ATOM      2  C   UNL     1     -15.596   8.686  -1.687  0.00  0.00    +0.000 C 
ATOM      3  C   UNL     1     -15.617   9.950  -0.809  0.00  0.00    +0.000 C 
ATOM      4  C   UNL     1     -14.793   7.538  -3.941  0.00  0.00    +0.000 C 
ATOM      5  C   UNL     1     -14.726   9.969  -3.506  0.00  0.00    +0.000 C 
ATOM      6  C   UNL     1     -14.949  11.232  -1.393  0.00  0.00    +0.000 C 
ATOM      7  C   UNL     1     -15.634   7.361  -1.169  0.00  0.00    +0.000 C 
ATOM      8  C   UNL     1     -14.433  11.188  -2.700  0.00  0.00    +0.000 C 
ATOM      9  C   UNL     1     -16.926   8.860  -3.808  0.00  0.00    +0.000 C 
ATOM     10  C   UNL     1     -15.282   6.162  -1.990  0.00  0.00    +0.000 C 
ATOM     11  C   UNL     1     -14.865   6.200  -3.337  0.00  0.00    +0.000 C 
ATOM     12  C   UNL     1     -14.829   9.629   0.512  0.00  0.00    +0.000 C 
ATOM     13  C   UNL     1     -14.359   5.086  -3.866  0.00  0.00    +0.000 C 
ENDROOT
BRANCH   6  14
ATOM     14  O   UNL     1     -15.040  12.443  -0.728  0.00  0.00    +0.000 OA
ATOM     15  H   UNL     1     -14.176  12.883  -0.644  0.00  0.00    +0.000 HD
ENDBRANCH   6  14
BRANCH   4  16
ATOM     16  C   UNL     1     -14.200   7.697  -5.239  0.00  0.00    +0.000 C 
ATOM     17  C   UNL     1     -13.564   7.877  -6.621  0.00  0.00    +0.000 C 
BRANCH  17  20
ATOM     18  O   UNL     1     -11.342   8.415  -9.351  0.00  0.00    +0.000 OA
ATOM     19  O   UNL     1     -10.818   8.901  -7.131  0.00  0.00    +0.000 OA
ATOM     20  C   UNL     1     -13.018   8.029  -7.786  0.00  0.00    +0.000 C 
ATOM     21  C   UNL     1     -13.576   7.692  -9.071  0.00  0.00    +0.000 C 
ATOM     22  C   UNL     1     -11.594   8.509  -7.985  0.00  0.00    +0.000 C 
ATOM     23  C   UNL     1     -12.466   7.953  -9.877  0.00  0.00    +0.000 C 
BRANCH  21  24
ATOM     24  O   UNL     1     -14.391   6.604  -9.205  0.00  0.00    +0.000 OA
ATOM     25  H   UNL     1     -15.141   6.785  -9.797  0.00  0.00    +0.000 HD
ENDBRANCH  21  24
ENDBRANCH  17  20
ENDBRANCH   4  16
BRANCH   3  26
ATOM     26  C   UNL     1     -17.041  10.259  -0.497  0.00  0.00    +0.000 C 
BRANCH  26  27
ATOM     27  O   UNL     1     -18.316  10.549  -0.221  0.00  0.00    +0.000 OA
ATOM     28  H   UNL     1     -18.806  10.757  -1.037  0.00  0.00    +0.000 HD
ENDBRANCH  26  27
ENDBRANCH   3  26
TORSDOF 6
ENDMDL
MODEL 7
REMARK VINA RESULT:      -5.3     16.383     18.897
REMARK  Name = 5318517_Andrographolide.pdbqt.pdb
REMARK  6 active torsions:
REMARK  status: ('A' for Active; 'I' for Inactive)
REMARK    1  A    between atoms: C_3  and  C_16
REMARK    2  A    between atoms: C_4  and  C_19
REMARK    3  A    between atoms: C_6  and  O_14
REMARK    4  A    between atoms: C_16  and  O_17
REMARK    5  A    between atoms: C_22  and  C_23
REMARK    6  A    between atoms: C_24  and  O_27
REMARK                            x       y       z     vdW  Elec       q    Type
REMARK                         _______ _______ _______ _____ _____    ______ ____
ROOT
ATOM      1  C   UNL     1      -3.506  16.659  10.211  0.00  0.00    +0.000 C 
ATOM      2  C   UNL     1      -3.340  17.436  11.552  0.00  0.00    +0.000 C 
ATOM      3  C   UNL     1      -4.523  17.723  12.494  0.00  0.00    +0.000 C 
ATOM      4  C   UNL     1      -2.510  17.005   9.069  0.00  0.00    +0.000 C 
ATOM      5  C   UNL     1      -4.873  16.946   9.785  0.00  0.00    +0.000 C 
ATOM      6  C   UNL     1      -5.946  17.756  11.860  0.00  0.00    +0.000 C 
ATOM      7  C   UNL     1      -2.011  17.889  11.788  0.00  0.00    +0.000 C 
ATOM      8  C   UNL     1      -6.082  17.456  10.492  0.00  0.00    +0.000 C 
ATOM      9  C   UNL     1      -3.342  15.142  10.536  0.00  0.00    +0.000 C 
ATOM     10  C   UNL     1      -0.959  17.894  10.726  0.00  0.00    +0.000 C 
ATOM     11  C   UNL     1      -1.156  17.479   9.392  0.00  0.00    +0.000 C 
ATOM     12  C   UNL     1      -4.306  19.151  13.116  0.00  0.00    +0.000 C 
ATOM     13  C   UNL     1      -0.203  17.761   8.502  0.00  0.00    +0.000 C 
ENDROOT
BRANCH   6  14
ATOM     14  O   UNL     1      -7.073  17.875  12.654  0.00  0.00    +0.000 OA
ATOM     15  H   UNL     1      -6.851  17.983  13.596  0.00  0.00    +0.000 HD
ENDBRANCH   6  14
BRANCH   4  16
ATOM     16  C   UNL     1      -2.859  16.743   7.701  0.00  0.00    +0.000 C 
ATOM     17  C   UNL     1      -3.233  16.476   6.240  0.00  0.00    +0.000 C 
BRANCH  17  20
ATOM     18  O   UNL     1      -3.943  15.035   3.061  0.00  0.00    +0.000 OA
ATOM     19  O   UNL     1      -2.887  13.895   4.800  0.00  0.00    +0.000 OA
ATOM     20  C   UNL     1      -3.542  16.253   5.001  0.00  0.00    +0.000 C 
ATOM     21  C   UNL     1      -4.163  17.162   4.071  0.00  0.00    +0.000 C 
ATOM     22  C   UNL     1      -3.389  14.901   4.332  0.00  0.00    +0.000 C 
ATOM     23  C   UNL     1      -4.352  16.293   2.995  0.00  0.00    +0.000 C 
BRANCH  21  24
ATOM     24  O   UNL     1      -5.089  18.067   4.507  0.00  0.00    +0.000 OA
ATOM     25  H   UNL     1      -5.940  17.642   4.714  0.00  0.00    +0.000 HD
ENDBRANCH  21  24
ENDBRANCH  17  20
ENDBRANCH   4  16
BRANCH   3  26
ATOM     26  C   UNL     1      -4.507  16.688  13.566  0.00  0.00    +0.000 C 
BRANCH  26  27
ATOM     27  O   UNL     1      -4.491  15.751  14.519  0.00  0.00    +0.000 OA
ATOM     28  H   UNL     1      -3.604  15.681  14.917  0.00  0.00    +0.000 HD
ENDBRANCH  26  27
ENDBRANCH   3  26
TORSDOF 6
ENDMDL
MODEL 8
REMARK VINA RESULT:      -5.3     20.859     23.543
REMARK  Name = 5318517_Andrographolide.pdbqt.pdb
REMARK  6 active torsions:
REMARK  status: ('A' for Active; 'I' for Inactive)
REMARK    1  A    between atoms: C_3  and  C_16
REMARK    2  A    between atoms: C_4  and  C_19
REMARK    3  A    between atoms: C_6  and  O_14
REMARK    4  A    between atoms: C_16  and  O_17
REMARK    5  A    between atoms: C_22  and  C_23
REMARK    6  A    between atoms: C_24  and  O_27
REMARK                            x       y       z     vdW  Elec       q    Type
REMARK                         _______ _______ _______ _____ _____    ______ ____
ROOT
ATOM      1  C   UNL     1     -10.600   3.746  19.878  0.00  0.00    +0.000 C 
ATOM      2  C   UNL     1     -12.019   4.178  20.359  0.00  0.00    +0.000 C 
ATOM      3  C   UNL     1     -13.025   3.184  20.967  0.00  0.00    +0.000 C 
ATOM      4  C   UNL     1      -9.970   4.569  18.719  0.00  0.00    +0.000 C 
ATOM      5  C   UNL     1     -10.756   2.353  19.473  0.00  0.00    +0.000 C 
ATOM      6  C   UNL     1     -12.865   1.684  20.577  0.00  0.00    +0.000 C 
ATOM      7  C   UNL     1     -12.301   5.556  20.137  0.00  0.00    +0.000 C 
ATOM      8  C   UNL     1     -11.783   1.310  19.760  0.00  0.00    +0.000 C 
ATOM      9  C   UNL     1      -9.645   3.856  21.106  0.00  0.00    +0.000 C 
ATOM     10  C   UNL     1     -11.458   6.422  19.258  0.00  0.00    +0.000 C 
ATOM     11  C   UNL     1     -10.321   5.986  18.547  0.00  0.00    +0.000 C 
ATOM     12  C   UNL     1     -14.461   3.596  20.477  0.00  0.00    +0.000 C 
ATOM     13  C   UNL     1      -9.812   6.801  17.622  0.00  0.00    +0.000 C 
ENDROOT
BRANCH   6  14
ATOM     14  O   UNL     1     -13.641   0.709  21.180  0.00  0.00    +0.000 OA
ATOM     15  H   UNL     1     -13.895   0.003  20.560  0.00  0.00    +0.000 HD
ENDBRANCH   6  14
BRANCH   4  16
ATOM     16  C   UNL     1      -8.949   3.988  17.892  0.00  0.00    +0.000 C 
ATOM     17  C   UNL     1      -7.867   3.358  17.011  0.00  0.00    +0.000 C 
BRANCH  17  20
ATOM     18  O   UNL     1      -5.688   1.150  15.261  0.00  0.00    +0.000 OA
ATOM     19  O   UNL     1      -7.024   0.505  17.061  0.00  0.00    +0.000 OA
ATOM     20  C   UNL     1      -6.957   2.825  16.258  0.00  0.00    +0.000 C 
ATOM     21  C   UNL     1      -6.200   3.458  15.207  0.00  0.00    +0.000 C 
ATOM     22  C   UNL     1      -6.602   1.351  16.292  0.00  0.00    +0.000 C 
ATOM     23  C   UNL     1      -5.525   2.342  14.708  0.00  0.00    +0.000 C 
BRANCH  21  24
ATOM     24  O   UNL     1      -6.774   4.426  14.432  0.00  0.00    +0.000 OA
ATOM     25  H   UNL     1      -7.338   5.021  14.957  0.00  0.00    +0.000 HD
ENDBRANCH  21  24
ENDBRANCH  17  20
ENDBRANCH   4  16
BRANCH   3  26
ATOM     26  C   UNL     1     -12.934   3.300  22.450  0.00  0.00    +0.000 C 
BRANCH  26  27
ATOM     27  O   UNL     1     -12.842   3.410  23.778  0.00  0.00    +0.000 OA
ATOM     28  H   UNL     1     -13.650   3.075  24.207  0.00  0.00    +0.000 HD
ENDBRANCH  26  27
ENDBRANCH   3  26
TORSDOF 6
ENDMDL
MODEL 9
REMARK VINA RESULT:      -5.2      2.492      7.531
REMARK  Name = 5318517_Andrographolide.pdbqt.pdb
REMARK  6 active torsions:
REMARK  status: ('A' for Active; 'I' for Inactive)
REMARK    1  A    between atoms: C_3  and  C_16
REMARK    2  A    between atoms: C_4  and  C_19
REMARK    3  A    between atoms: C_6  and  O_14
REMARK    4  A    between atoms: C_16  and  O_17
REMARK    5  A    between atoms: C_22  and  C_23
REMARK    6  A    between atoms: C_24  and  O_27
REMARK                            x       y       z     vdW  Elec       q    Type
REMARK                         _______ _______ _______ _____ _____    ______ ____
ROOT
ATOM      1  C   UNL     1     -16.044   9.956  -2.111  0.00  0.00    +0.000 C 
ATOM      2  C   UNL     1     -16.525   9.535  -0.689  0.00  0.00    +0.000 C 
ATOM      3  C   UNL     1     -17.801   8.706  -0.458  0.00  0.00    +0.000 C 
ATOM      4  C   UNL     1     -15.233  11.279  -2.216  0.00  0.00    +0.000 C 
ATOM      5  C   UNL     1     -17.269  10.059  -2.898  0.00  0.00    +0.000 C 
ATOM      6  C   UNL     1     -18.905   8.781  -1.555  0.00  0.00    +0.000 C 
ATOM      7  C   UNL     1     -15.700  10.030   0.361  0.00  0.00    +0.000 C 
ATOM      8  C   UNL     1     -18.653   9.533  -2.717  0.00  0.00    +0.000 C 
ATOM      9  C   UNL     1     -15.141   8.806  -2.651  0.00  0.00    +0.000 C 
ATOM     10  C   UNL     1     -14.671  11.093   0.148  0.00  0.00    +0.000 C 
ATOM     11  C   UNL     1     -14.413  11.731  -1.083  0.00  0.00    +0.000 C 
ATOM     12  C   UNL     1     -18.481   9.230   0.859  0.00  0.00    +0.000 C 
ATOM     13  C   UNL     1     -13.641  12.819  -1.074  0.00  0.00    +0.000 C 
ENDROOT
BRANCH   6  14
ATOM     14  O   UNL     1     -20.022   7.967  -1.492  0.00  0.00    +0.000 OA
ATOM     15  H   UNL     1     -20.649   8.144  -2.215  0.00  0.00    +0.000 HD
ENDBRANCH   6  14
BRANCH   4  16
ATOM     16  C   UNL     1     -15.178  11.996  -3.459  0.00  0.00    +0.000 C 
ATOM     17  C   UNL     1     -15.115  12.770  -4.779  0.00  0.00    +0.000 C 
BRANCH  17  20
ATOM     18  O   UNL     1     -15.216  13.812  -8.184  0.00  0.00    +0.000 OA
ATOM     19  O   UNL     1     -15.327  11.584  -7.500  0.00  0.00    +0.000 OA
ATOM     20  C   UNL     1     -15.052  13.424  -5.896  0.00  0.00    +0.000 C 
ATOM     21  C   UNL     1     -14.926  14.848  -6.077  0.00  0.00    +0.000 C 
ATOM     22  C   UNL     1     -15.216  12.773  -7.256  0.00  0.00    +0.000 C 
ATOM     23  C   UNL     1     -15.063  14.914  -7.466  0.00  0.00    +0.000 C 
BRANCH  21  24
ATOM     24  O   UNL     1     -15.521  15.709  -5.199  0.00  0.00    +0.000 OA
ATOM     25  H   UNL     1     -15.067  15.718  -4.338  0.00  0.00    +0.000 HD
ENDBRANCH  21  24
ENDBRANCH  17  20
ENDBRANCH   4  16
BRANCH   3  26
ATOM     26  C   UNL     1     -17.391   7.283  -0.295  0.00  0.00    +0.000 C 
BRANCH  26  27
ATOM     27  O   UNL     1     -17.016   6.009  -0.140  0.00  0.00    +0.000 OA
ATOM     28  H   UNL     1     -16.049   5.924  -0.224  0.00  0.00    +0.000 HD
ENDBRANCH  26  27
ENDBRANCH   3  26
TORSDOF 6
ENDMDL
