MODEL 1
REMARK VINA RESULT:      -6.9      0.000      0.000
REMARK  Name = 5326018_Caulerpin.pdbqt.pdb
REMARK  4 active torsions:
REMARK  status: ('A' for Active; 'I' for Inactive)
REMARK    1  A    between atoms: C_11  and  C_26
REMARK    2  A    between atoms: C_12  and  C_30
REMARK    3  A    between atoms: C_26  and  O_27
REMARK    4  A    between atoms: C_30  and  O_31
REMARK                            x       y       z     vdW  Elec       q    Type
REMARK                         _______ _______ _______ _____ _____    ______ ____
ROOT
ATOM      1  N   UNL     1     -16.178   5.015  -3.521  0.00  0.00    +0.000 N 
ATOM      2  N   UNL     1     -15.091  11.197  -1.707  0.00  0.00    +0.000 N 
ATOM      3  C   UNL     1     -16.154   6.505  -1.880  0.00  0.00    +0.000 C 
ATOM      4  C   UNL     1     -14.754   9.603  -3.210  0.00  0.00    +0.000 C 
ATOM      5  C   UNL     1     -15.664   6.242  -3.157  0.00  0.00    +0.000 C 
ATOM      6  C   UNL     1     -15.117   9.829  -1.885  0.00  0.00    +0.000 C 
ATOM      7  C   UNL     1     -16.917   5.396  -1.442  0.00  0.00    +0.000 A 
ATOM      8  C   UNL     1     -14.441  10.841  -3.821  0.00  0.00    +0.000 A 
ATOM      9  C   UNL     1     -16.913   4.474  -2.488  0.00  0.00    +0.000 A 
ATOM     10  C   UNL     1     -14.656  11.824  -2.856  0.00  0.00    +0.000 A 
ATOM     11  C   UNL     1     -14.860   7.023  -4.061  0.00  0.00    +0.000 C 
ATOM     12  C   UNL     1     -15.541   8.939  -0.836  0.00  0.00    +0.000 C 
ATOM     13  C   UNL     1     -14.744   8.299  -3.798  0.00  0.00    +0.000 C 
ATOM     14  C   UNL     1     -15.903   7.733  -1.192  0.00  0.00    +0.000 C 
ATOM     15  C   UNL     1     -17.629   5.089  -0.268  0.00  0.00    +0.000 A 
ATOM     16  C   UNL     1     -14.012  11.231  -5.104  0.00  0.00    +0.000 A 
ATOM     17  C   UNL     1     -17.584   3.248  -2.419  0.00  0.00    +0.000 A 
ATOM     18  C   UNL     1     -14.459  13.187  -3.106  0.00  0.00    +0.000 A 
ATOM     19  C   UNL     1     -18.299   3.867  -0.180  0.00  0.00    +0.000 A 
ATOM     20  C   UNL     1     -13.806  12.585  -5.368  0.00  0.00    +0.000 A 
ATOM     21  C   UNL     1     -18.274   2.965  -1.238  0.00  0.00    +0.000 A 
ATOM     22  C   UNL     1     -14.025  13.543  -4.384  0.00  0.00    +0.000 A 
ATOM     23  H   UNL     1     -16.063   4.551  -4.413  0.00  0.00    +0.000 HD
ATOM     24  H   UNL     1     -15.356  11.705  -0.872  0.00  0.00    +0.000 HD
ENDROOT
BRANCH  11  26
ATOM     25  O   UNL     1     -14.042   6.973  -6.309  0.00  0.00    +0.000 OA
ATOM     26  C   UNL     1     -14.050   6.478  -5.188  0.00  0.00    +0.000 C 
BRANCH  26  27
ATOM     27  O   UNL     1     -13.344   5.399  -4.741  0.00  0.00    +0.000 OA
ATOM     28  C   UNL     1     -12.169   5.045  -5.422  0.00  0.00    +0.000 C 
ENDBRANCH  26  27
ENDBRANCH  11  26
BRANCH  12  30
ATOM     29  O   UNL     1     -14.629   9.960   1.127  0.00  0.00    +0.000 OA
ATOM     30  C   UNL     1     -15.478   9.232   0.626  0.00  0.00    +0.000 C 
BRANCH  30  31
ATOM     31  O   UNL     1     -16.507   8.588   1.248  0.00  0.00    +0.000 OA
ATOM     32  C   UNL     1     -17.760   9.220   1.286  0.00  0.00    +0.000 C 
ENDBRANCH  30  31
ENDBRANCH  12  30
TORSDOF 4
ENDMDL
MODEL 2
REMARK VINA RESULT:      -6.6     21.817     25.064
REMARK  Name = 5326018_Caulerpin.pdbqt.pdb
REMARK  4 active torsions:
REMARK  status: ('A' for Active; 'I' for Inactive)
REMARK    1  A    between atoms: C_11  and  C_26
REMARK    2  A    between atoms: C_12  and  C_30
REMARK    3  A    between atoms: C_26  and  O_27
REMARK    4  A    between atoms: C_30  and  O_31
REMARK                            x       y       z     vdW  Elec       q    Type
REMARK                         _______ _______ _______ _____ _____    ______ ____
ROOT
ATOM      1  N   UNL     1     -11.506   4.266  18.290  0.00  0.00    +0.000 N 
ATOM      2  N   UNL     1     -11.150   6.452  24.436  0.00  0.00    +0.000 N 
ATOM      3  C   UNL     1     -10.996   5.938  19.652  0.00  0.00    +0.000 C 
ATOM      4  C   UNL     1     -12.007   4.973  23.025  0.00  0.00    +0.000 C 
ATOM      5  C   UNL     1     -11.724   4.754  19.562  0.00  0.00    +0.000 C 
ATOM      6  C   UNL     1     -11.401   6.224  23.099  0.00  0.00    +0.000 C 
ATOM      7  C   UNL     1     -10.386   6.201  18.403  0.00  0.00    +0.000 A 
ATOM      8  C   UNL     1     -12.184   4.468  24.336  0.00  0.00    +0.000 A 
ATOM      9  C   UNL     1     -10.725   5.140  17.564  0.00  0.00    +0.000 A 
ATOM     10  C   UNL     1     -11.643   5.416  25.202  0.00  0.00    +0.000 A 
ATOM     11  C   UNL     1     -12.507   4.027  20.526  0.00  0.00    +0.000 C 
ATOM     12  C   UNL     1     -10.982   7.155  22.083  0.00  0.00    +0.000 C 
ATOM     13  C   UNL     1     -12.347   4.350  21.784  0.00  0.00    +0.000 C 
ATOM     14  C   UNL     1     -10.907   6.700  20.859  0.00  0.00    +0.000 C 
ATOM     15  C   UNL     1      -9.563   7.227  17.902  0.00  0.00    +0.000 A 
ATOM     16  C   UNL     1     -12.735   3.291  24.875  0.00  0.00    +0.000 A 
ATOM     17  C   UNL     1     -10.285   5.051  16.239  0.00  0.00    +0.000 A 
ATOM     18  C   UNL     1     -11.626   5.251  26.592  0.00  0.00    +0.000 A 
ATOM     19  C   UNL     1      -9.120   7.157  16.579  0.00  0.00    +0.000 A 
ATOM     20  C   UNL     1     -12.732   3.112  26.260  0.00  0.00    +0.000 A 
ATOM     21  C   UNL     1      -9.477   6.088  15.765  0.00  0.00    +0.000 A 
ATOM     22  C   UNL     1     -12.188   4.078  27.100  0.00  0.00    +0.000 A 
ATOM     23  H   UNL     1     -11.845   3.390  17.912  0.00  0.00    +0.000 HD
ATOM     24  H   UNL     1     -10.667   7.247  24.836  0.00  0.00    +0.000 HD
ENDROOT
BRANCH  11  26
ATOM     25  O   UNL     1     -14.763   3.234  20.421  0.00  0.00    +0.000 OA
ATOM     26  C   UNL     1     -13.574   3.035  20.203  0.00  0.00    +0.000 C 
BRANCH  26  27
ATOM     27  O   UNL     1     -12.996   1.940  19.629  0.00  0.00    +0.000 OA
ATOM     28  C   UNL     1     -13.336   0.673  20.126  0.00  0.00    +0.000 C 
ENDBRANCH  26  27
ENDBRANCH  11  26
BRANCH  12  30
ATOM     29  O   UNL     1     -11.325   9.481  21.633  0.00  0.00    +0.000 OA
ATOM     30  C   UNL     1     -10.756   8.616  22.288  0.00  0.00    +0.000 C 
BRANCH  30  31
ATOM     31  O   UNL     1      -9.863   8.783  23.306  0.00  0.00    +0.000 OA
ATOM     32  C   UNL     1      -8.514   8.992  22.978  0.00  0.00    +0.000 C 
ENDBRANCH  30  31
ENDBRANCH  12  30
TORSDOF 4
ENDMDL
MODEL 3
REMARK VINA RESULT:      -6.3     13.099     15.915
REMARK  Name = 5326018_Caulerpin.pdbqt.pdb
REMARK  4 active torsions:
REMARK  status: ('A' for Active; 'I' for Inactive)
REMARK    1  A    between atoms: C_11  and  C_26
REMARK    2  A    between atoms: C_12  and  C_30
REMARK    3  A    between atoms: C_26  and  O_27
REMARK    4  A    between atoms: C_30  and  O_31
REMARK                            x       y       z     vdW  Elec       q    Type
REMARK                         _______ _______ _______ _____ _____    ______ ____
ROOT
ATOM      1  N   UNL     1     -23.026  18.229   5.324  0.00  0.00    +0.000 N 
ATOM      2  N   UNL     1     -22.318  12.766   8.837  0.00  0.00    +0.000 N 
ATOM      3  C   UNL     1     -22.460  17.312   7.261  0.00  0.00    +0.000 C 
ATOM      4  C   UNL     1     -23.237  13.750   7.077  0.00  0.00    +0.000 C 
ATOM      5  C   UNL     1     -23.172  17.087   6.084  0.00  0.00    +0.000 C 
ATOM      6  C   UNL     1     -22.649  13.999   8.314  0.00  0.00    +0.000 C 
ATOM      7  C   UNL     1     -21.936  18.627   7.238  0.00  0.00    +0.000 A 
ATOM      8  C   UNL     1     -23.321  12.351   6.878  0.00  0.00    +0.000 A 
ATOM      9  C   UNL     1     -22.309  19.182   6.015  0.00  0.00    +0.000 A 
ATOM     10  C   UNL     1     -22.743  11.757   7.999  0.00  0.00    +0.000 A 
ATOM     11  C   UNL     1     -23.879  15.935   5.591  0.00  0.00    +0.000 C 
ATOM     12  C   UNL     1     -22.313  15.223   8.993  0.00  0.00    +0.000 C 
ATOM     13  C   UNL     1     -23.644  14.795   6.189  0.00  0.00    +0.000 C 
ATOM     14  C   UNL     1     -22.308  16.316   8.276  0.00  0.00    +0.000 C 
ATOM     15  C   UNL     1     -21.164  19.398   8.127  0.00  0.00    +0.000 A 
ATOM     16  C   UNL     1     -23.816  11.526   5.851  0.00  0.00    +0.000 A 
ATOM     17  C   UNL     1     -21.953  20.480   5.632  0.00  0.00    +0.000 A 
ATOM     18  C   UNL     1     -22.635  10.370   8.150  0.00  0.00    +0.000 A 
ATOM     19  C   UNL     1     -20.805  20.697   7.763  0.00  0.00    +0.000 A 
ATOM     20  C   UNL     1     -23.722  10.140   5.988  0.00  0.00    +0.000 A 
ATOM     21  C   UNL     1     -21.195  21.226   6.537  0.00  0.00    +0.000 A 
ATOM     22  C   UNL     1     -23.142   9.575   7.120  0.00  0.00    +0.000 A 
ATOM     23  H   UNL     1     -23.373  18.378   4.385  0.00  0.00    +0.000 HD
ATOM     24  H   UNL     1     -21.824  12.588   9.703  0.00  0.00    +0.000 HD
ENDROOT
BRANCH  11  26
ATOM     25  O   UNL     1     -24.864  16.616   3.520  0.00  0.00    +0.000 OA
ATOM     26  C   UNL     1     -24.946  15.956   4.549  0.00  0.00    +0.000 C 
BRANCH  26  27
ATOM     27  O   UNL     1     -25.956  15.124   4.936  0.00  0.00    +0.000 OA
ATOM     28  C   UNL     1     -27.241  15.666   5.086  0.00  0.00    +0.000 C 
ENDBRANCH  26  27
ENDBRANCH  11  26
BRANCH  12  30
ATOM     29  O   UNL     1     -21.189  16.026  10.948  0.00  0.00    +0.000 OA
ATOM     30  C   UNL     1     -22.100  15.366  10.463  0.00  0.00    +0.000 C 
BRANCH  30  31
ATOM     31  O   UNL     1     -23.079  14.676  11.118  0.00  0.00    +0.000 OA
ATOM     32  C   UNL     1     -24.313  15.311  11.325  0.00  0.00    +0.000 C 
ENDBRANCH  30  31
ENDBRANCH  12  30
TORSDOF 4
ENDMDL
MODEL 4
REMARK VINA RESULT:      -6.3     20.685     23.024
REMARK  Name = 5326018_Caulerpin.pdbqt.pdb
REMARK  4 active torsions:
REMARK  status: ('A' for Active; 'I' for Inactive)
REMARK    1  A    between atoms: C_11  and  C_26
REMARK    2  A    between atoms: C_12  and  C_30
REMARK    3  A    between atoms: C_26  and  O_27
REMARK    4  A    between atoms: C_30  and  O_31
REMARK                            x       y       z     vdW  Elec       q    Type
REMARK                         _______ _______ _______ _____ _____    ______ ____
ROOT
ATOM      1  N   UNL     1      -8.095   1.393  17.705  0.00  0.00    +0.000 N 
ATOM      2  N   UNL     1      -9.955   7.300  19.787  0.00  0.00    +0.000 N 
ATOM      3  C   UNL     1      -8.175   3.573  17.314  0.00  0.00    +0.000 C 
ATOM      4  C   UNL     1     -10.198   5.102  19.940  0.00  0.00    +0.000 C 
ATOM      5  C   UNL     1      -8.757   2.550  18.060  0.00  0.00    +0.000 C 
ATOM      6  C   UNL     1      -9.728   6.118  19.112  0.00  0.00    +0.000 C 
ATOM      7  C   UNL     1      -7.198   3.018  16.453  0.00  0.00    +0.000 A 
ATOM      8  C   UNL     1     -10.773   5.678  21.099  0.00  0.00    +0.000 A 
ATOM      9  C   UNL     1      -7.171   1.648  16.715  0.00  0.00    +0.000 A 
ATOM     10  C   UNL     1     -10.612   7.058  20.975  0.00  0.00    +0.000 A 
ATOM     11  C   UNL     1      -9.772   2.558  19.080  0.00  0.00    +0.000 C 
ATOM     12  C   UNL     1      -9.051   6.091  17.842  0.00  0.00    +0.000 C 
ATOM     13  C   UNL     1     -10.063   3.715  19.617  0.00  0.00    +0.000 C 
ATOM     14  C   UNL     1      -8.542   4.947  17.466  0.00  0.00    +0.000 C 
ATOM     15  C   UNL     1      -6.319   3.543  15.488  0.00  0.00    +0.000 A 
ATOM     16  C   UNL     1     -11.400   5.168  22.250  0.00  0.00    +0.000 A 
ATOM     17  C   UNL     1      -6.308   0.768  16.053  0.00  0.00    +0.000 A 
ATOM     18  C   UNL     1     -11.053   7.962  21.948  0.00  0.00    +0.000 A 
ATOM     19  C   UNL     1      -5.454   2.677  14.815  0.00  0.00    +0.000 A 
ATOM     20  C   UNL     1     -11.851   6.055  23.228  0.00  0.00    +0.000 A 
ATOM     21  C   UNL     1      -5.452   1.315  15.094  0.00  0.00    +0.000 A 
ATOM     22  C   UNL     1     -11.680   7.428  23.076  0.00  0.00    +0.000 A 
ATOM     23  H   UNL     1      -8.234   0.471  18.101  0.00  0.00    +0.000 HD
ATOM     24  H   UNL     1      -9.683   8.229  19.490  0.00  0.00    +0.000 HD
ENDROOT
BRANCH  11  26
ATOM     25  O   UNL     1     -11.818   1.339  19.309  0.00  0.00    +0.000 OA
ATOM     26  C   UNL     1     -10.606   1.388  19.479  0.00  0.00    +0.000 C 
BRANCH  26  27
ATOM     27  O   UNL     1      -9.793   0.431  20.015  0.00  0.00    +0.000 OA
ATOM     28  C   UNL     1     -10.062  -0.913  19.716  0.00  0.00    +0.000 C 
ENDBRANCH  26  27
ENDBRANCH  11  26
BRANCH  12  30
ATOM     29  O   UNL     1      -9.533   7.182  15.766  0.00  0.00    +0.000 OA
ATOM     30  C   UNL     1      -8.996   7.220  16.867  0.00  0.00    +0.000 C 
BRANCH  30  31
ATOM     31  O   UNL     1      -8.293   8.248  17.425  0.00  0.00    +0.000 OA
ATOM     32  C   UNL     1      -6.916   8.327  17.168  0.00  0.00    +0.000 C 
ENDBRANCH  30  31
ENDBRANCH  12  30
TORSDOF 4
ENDMDL
MODEL 5
REMARK VINA RESULT:      -6.2     20.286     23.894
REMARK  Name = 5326018_Caulerpin.pdbqt.pdb
REMARK  4 active torsions:
REMARK  status: ('A' for Active; 'I' for Inactive)
REMARK    1  A    between atoms: C_11  and  C_26
REMARK    2  A    between atoms: C_12  and  C_30
REMARK    3  A    between atoms: C_26  and  O_27
REMARK    4  A    between atoms: C_30  and  O_31
REMARK                            x       y       z     vdW  Elec       q    Type
REMARK                         _______ _______ _______ _____ _____    ______ ____
ROOT
ATOM      1  N   UNL     1      -7.962   9.721  19.674  0.00  0.00    +0.000 N 
ATOM      2  N   UNL     1     -11.390   4.229  18.794  0.00  0.00    +0.000 N 
ATOM      3  C   UNL     1      -8.253   7.868  18.494  0.00  0.00    +0.000 C 
ATOM      4  C   UNL     1     -10.815   5.874  20.164  0.00  0.00    +0.000 C 
ATOM      5  C   UNL     1      -8.531   8.465  19.721  0.00  0.00    +0.000 C 
ATOM      6  C   UNL     1     -10.437   5.204  19.003  0.00  0.00    +0.000 C 
ATOM      7  C   UNL     1      -7.452   8.746  17.724  0.00  0.00    +0.000 A 
ATOM      8  C   UNL     1     -11.971   5.257  20.698  0.00  0.00    +0.000 A 
ATOM      9  C   UNL     1      -7.281   9.899  18.489  0.00  0.00    +0.000 A 
ATOM     10  C   UNL     1     -12.309   4.225  19.823  0.00  0.00    +0.000 A 
ATOM     11  C   UNL     1      -9.305   8.028  20.853  0.00  0.00    +0.000 C 
ATOM     12  C   UNL     1      -9.363   5.423  18.070  0.00  0.00    +0.000 C 
ATOM     13  C   UNL     1     -10.110   7.014  20.664  0.00  0.00    +0.000 C 
ATOM     14  C   UNL     1      -8.751   6.578  18.131  0.00  0.00    +0.000 C 
ATOM     15  C   UNL     1      -6.869   8.685  16.445  0.00  0.00    +0.000 A 
ATOM     16  C   UNL     1     -12.779   5.479  21.829  0.00  0.00    +0.000 A 
ATOM     17  C   UNL     1      -6.547  11.003  18.041  0.00  0.00    +0.000 A 
ATOM     18  C   UNL     1     -13.417   3.394  20.023  0.00  0.00    +0.000 A 
ATOM     19  C   UNL     1      -6.128   9.776  15.985  0.00  0.00    +0.000 A 
ATOM     20  C   UNL     1     -13.885   4.657  22.047  0.00  0.00    +0.000 A 
ATOM     21  C   UNL     1      -5.971  10.912  16.772  0.00  0.00    +0.000 A 
ATOM     22  C   UNL     1     -14.195   3.632  21.158  0.00  0.00    +0.000 A 
ATOM     23  H   UNL     1      -8.024  10.440  20.384  0.00  0.00    +0.000 HD
ATOM     24  H   UNL     1     -11.447   3.596  18.006  0.00  0.00    +0.000 HD
ENDROOT
BRANCH  11  26
ATOM     25  O   UNL     1     -10.119   8.673  23.008  0.00  0.00    +0.000 OA
ATOM     26  C   UNL     1      -9.169   8.545  22.245  0.00  0.00    +0.000 C 
BRANCH  26  27
ATOM     27  O   UNL     1      -7.853   8.808  22.491  0.00  0.00    +0.000 OA
ATOM     28  C   UNL     1      -7.123   7.884  23.253  0.00  0.00    +0.000 C 
ENDBRANCH  26  27
ENDBRANCH  11  26
BRANCH  12  30
ATOM     29  O   UNL     1      -8.767   3.205  17.396  0.00  0.00    +0.000 OA
ATOM     30  C   UNL     1      -8.809   4.401  17.134  0.00  0.00    +0.000 C 
BRANCH  30  31
ATOM     31  O   UNL     1      -8.405   5.026  15.990  0.00  0.00    +0.000 OA
ATOM     32  C   UNL     1      -7.457   4.381  15.181  0.00  0.00    +0.000 C 
ENDBRANCH  30  31
ENDBRANCH  12  30
TORSDOF 4
ENDMDL
MODEL 6
REMARK VINA RESULT:      -6.0     10.337     14.348
REMARK  Name = 5326018_Caulerpin.pdbqt.pdb
REMARK  4 active torsions:
REMARK  status: ('A' for Active; 'I' for Inactive)
REMARK    1  A    between atoms: C_11  and  C_26
REMARK    2  A    between atoms: C_12  and  C_30
REMARK    3  A    between atoms: C_26  and  O_27
REMARK    4  A    between atoms: C_30  and  O_31
REMARK                            x       y       z     vdW  Elec       q    Type
REMARK                         _______ _______ _______ _____ _____    ______ ____
ROOT
ATOM      1  N   UNL     1     -23.522  14.978   7.573  0.00  0.00    +0.000 N 
ATOM      2  N   UNL     1     -24.127  10.480   2.873  0.00  0.00    +0.000 N 
ATOM      3  C   UNL     1     -23.340  14.489   5.419  0.00  0.00    +0.000 C 
ATOM      4  C   UNL     1     -23.914  10.904   5.038  0.00  0.00    +0.000 C 
ATOM      5  C   UNL     1     -23.396  13.925   6.691  0.00  0.00    +0.000 C 
ATOM      6  C   UNL     1     -23.720  11.446   3.770  0.00  0.00    +0.000 C 
ATOM      7  C   UNL     1     -23.366  15.900   5.538  0.00  0.00    +0.000 A 
ATOM      8  C   UNL     1     -24.381   9.574   4.906  0.00  0.00    +0.000 A 
ATOM      9  C   UNL     1     -23.476  16.180   6.899  0.00  0.00    +0.000 A 
ATOM     10  C   UNL     1     -24.501   9.331   3.538  0.00  0.00    +0.000 A 
ATOM     11  C   UNL     1     -23.418  12.557   7.139  0.00  0.00    +0.000 C 
ATOM     12  C   UNL     1     -23.282  12.746   3.334  0.00  0.00    +0.000 C 
ATOM     13  C   UNL     1     -23.680  11.644   6.240  0.00  0.00    +0.000 C 
ATOM     14  C   UNL     1     -23.289  13.703   4.225  0.00  0.00    +0.000 C 
ATOM     15  C   UNL     1     -23.326  16.969   4.624  0.00  0.00    +0.000 A 
ATOM     16  C   UNL     1     -24.732   8.555   5.810  0.00  0.00    +0.000 A 
ATOM     17  C   UNL     1     -23.543  17.485   7.400  0.00  0.00    +0.000 A 
ATOM     18  C   UNL     1     -24.953   8.111   3.022  0.00  0.00    +0.000 A 
ATOM     19  C   UNL     1     -23.386  18.278   5.108  0.00  0.00    +0.000 A 
ATOM     20  C   UNL     1     -25.179   7.330   5.313  0.00  0.00    +0.000 A 
ATOM     21  C   UNL     1     -23.492  18.527   6.472  0.00  0.00    +0.000 A 
ATOM     22  C   UNL     1     -25.285   7.115   3.943  0.00  0.00    +0.000 A 
ATOM     23  H   UNL     1     -23.645  14.916   8.575  0.00  0.00    +0.000 HD
ATOM     24  H   UNL     1     -24.169  10.568   1.865  0.00  0.00    +0.000 HD
ENDROOT
BRANCH  11  26
ATOM     25  O   UNL     1     -22.044  11.414   8.729  0.00  0.00    +0.000 OA
ATOM     26  C   UNL     1     -23.042  12.088   8.504  0.00  0.00    +0.000 C 
BRANCH  26  27
ATOM     27  O   UNL     1     -23.961  12.554   9.398  0.00  0.00    +0.000 OA
ATOM     28  C   UNL     1     -23.496  13.165  10.572  0.00  0.00    +0.000 C 
ENDBRANCH  26  27
ENDBRANCH  11  26
BRANCH  12  30
ATOM     29  O   UNL     1     -21.504  13.224   1.805  0.00  0.00    +0.000 OA
ATOM     30  C   UNL     1     -22.703  13.059   1.994  0.00  0.00    +0.000 C 
BRANCH  30  31
ATOM     31  O   UNL     1     -23.712  13.096   1.077  0.00  0.00    +0.000 OA
ATOM     32  C   UNL     1     -23.622  14.026   0.029  0.00  0.00    +0.000 C 
ENDBRANCH  30  31
ENDBRANCH  12  30
TORSDOF 4
ENDMDL
MODEL 7
REMARK VINA RESULT:      -5.9     19.859     22.741
REMARK  Name = 5326018_Caulerpin.pdbqt.pdb
REMARK  4 active torsions:
REMARK  status: ('A' for Active; 'I' for Inactive)
REMARK    1  A    between atoms: C_11  and  C_26
REMARK    2  A    between atoms: C_12  and  C_30
REMARK    3  A    between atoms: C_26  and  O_27
REMARK    4  A    between atoms: C_30  and  O_31
REMARK                            x       y       z     vdW  Elec       q    Type
REMARK                         _______ _______ _______ _____ _____    ______ ____
ROOT
ATOM      1  N   UNL     1      -1.280   6.845  16.160  0.00  0.00    +0.000 N 
ATOM      2  N   UNL     1      -7.086   4.010  15.191  0.00  0.00    +0.000 N 
ATOM      3  C   UNL     1      -2.395   5.026  15.559  0.00  0.00    +0.000 C 
ATOM      4  C   UNL     1      -5.943   5.651  16.148  0.00  0.00    +0.000 C 
ATOM      5  C   UNL     1      -2.511   6.230  16.250  0.00  0.00    +0.000 C 
ATOM      6  C   UNL     1      -5.817   4.385  15.582  0.00  0.00    +0.000 C 
ATOM      7  C   UNL     1      -1.062   4.882  15.104  0.00  0.00    +0.000 A 
ATOM      8  C   UNL     1      -7.310   6.019  16.158  0.00  0.00    +0.000 A 
ATOM      9  C   UNL     1      -0.383   6.034  15.497  0.00  0.00    +0.000 A 
ATOM     10  C   UNL     1      -8.006   4.971  15.556  0.00  0.00    +0.000 A 
ATOM     11  C   UNL     1      -3.630   6.869  16.893  0.00  0.00    +0.000 C 
ATOM     12  C   UNL     1      -4.670   3.558  15.315  0.00  0.00    +0.000 C 
ATOM     13  C   UNL     1      -4.820   6.410  16.603  0.00  0.00    +0.000 C 
ATOM     14  C   UNL     1      -3.498   4.138  15.362  0.00  0.00    +0.000 C 
ATOM     15  C   UNL     1      -0.367   3.896  14.380  0.00  0.00    +0.000 A 
ATOM     16  C   UNL     1      -8.029   7.144  16.602  0.00  0.00    +0.000 A 
ATOM     17  C   UNL     1       0.969   6.252  15.207  0.00  0.00    +0.000 A 
ATOM     18  C   UNL     1      -9.394   4.987  15.377  0.00  0.00    +0.000 A 
ATOM     19  C   UNL     1       0.984   4.095  14.086  0.00  0.00    +0.000 A 
ATOM     20  C   UNL     1      -9.414   7.175  16.436  0.00  0.00    +0.000 A 
ATOM     21  C   UNL     1       1.637   5.254  14.495  0.00  0.00    +0.000 A 
ATOM     22  C   UNL     1     -10.082   6.113  15.836  0.00  0.00    +0.000 A 
ATOM     23  H   UNL     1      -1.035   7.764  16.507  0.00  0.00    +0.000 HD
ATOM     24  H   UNL     1      -7.343   3.166  14.694  0.00  0.00    +0.000 HD
ENDROOT
BRANCH  11  26
ATOM     25  O   UNL     1      -3.907   7.735  19.106  0.00  0.00    +0.000 OA
ATOM     26  C   UNL     1      -3.536   7.915  17.952  0.00  0.00    +0.000 C 
BRANCH  26  27
ATOM     27  O   UNL     1      -2.967   9.033  17.417  0.00  0.00    +0.000 OA
ATOM     28  C   UNL     1      -3.800  10.117  17.102  0.00  0.00    +0.000 C 
ENDBRANCH  26  27
ENDBRANCH  11  26
BRANCH  12  30
ATOM     29  O   UNL     1      -5.610   1.494  14.550  0.00  0.00    +0.000 OA
ATOM     30  C   UNL     1      -4.696   2.079  15.120  0.00  0.00    +0.000 C 
BRANCH  30  31
ATOM     31  O   UNL     1      -3.557   1.545  15.648  0.00  0.00    +0.000 OA
ATOM     32  C   UNL     1      -3.416   0.149  15.649  0.00  0.00    +0.000 C 
ENDBRANCH  30  31
ENDBRANCH  12  30
TORSDOF 4
ENDMDL
MODEL 8
REMARK VINA RESULT:      -5.7     10.898     14.701
REMARK  Name = 5326018_Caulerpin.pdbqt.pdb
REMARK  4 active torsions:
REMARK  status: ('A' for Active; 'I' for Inactive)
REMARK    1  A    between atoms: C_11  and  C_26
REMARK    2  A    between atoms: C_12  and  C_30
REMARK    3  A    between atoms: C_26  and  O_27
REMARK    4  A    between atoms: C_30  and  O_31
REMARK                            x       y       z     vdW  Elec       q    Type
REMARK                         _______ _______ _______ _____ _____    ______ ____
ROOT
ATOM      1  N   UNL     1     -22.879  15.625   3.149  0.00  0.00    +0.000 N 
ATOM      2  N   UNL     1     -23.984  14.168   9.421  0.00  0.00    +0.000 N 
ATOM      3  C   UNL     1     -23.014  14.055   4.707  0.00  0.00    +0.000 C 
ATOM      4  C   UNL     1     -23.454  15.717   7.927  0.00  0.00    +0.000 C 
ATOM      5  C   UNL     1     -22.839  15.423   4.513  0.00  0.00    +0.000 C 
ATOM      6  C   UNL     1     -23.491  14.343   8.145  0.00  0.00    +0.000 C 
ATOM      7  C   UNL     1     -23.094  13.416   3.447  0.00  0.00    +0.000 A 
ATOM      8  C   UNL     1     -23.867  16.383   9.107  0.00  0.00    +0.000 A 
ATOM      9  C   UNL     1     -23.002  14.422   2.486  0.00  0.00    +0.000 A 
ATOM     10  C   UNL     1     -24.188  15.388  10.030  0.00  0.00    +0.000 A 
ATOM     11  C   UNL     1     -22.719  16.520   5.436  0.00  0.00    +0.000 C 
ATOM     12  C   UNL     1     -23.196  13.223   7.289  0.00  0.00    +0.000 C 
ATOM     13  C   UNL     1     -23.072  16.293   6.675  0.00  0.00    +0.000 C 
ATOM     14  C   UNL     1     -23.112  13.464   6.006  0.00  0.00    +0.000 C 
ATOM     15  C   UNL     1     -23.255  12.084   3.023  0.00  0.00    +0.000 A 
ATOM     16  C   UNL     1     -24.016  17.731   9.482  0.00  0.00    +0.000 A 
ATOM     17  C   UNL     1     -23.058  14.165   1.112  0.00  0.00    +0.000 A 
ATOM     18  C   UNL     1     -24.652  15.673  11.320  0.00  0.00    +0.000 A 
ATOM     19  C   UNL     1     -23.306  11.808   1.655  0.00  0.00    +0.000 A 
ATOM     20  C   UNL     1     -24.471  18.033  10.766  0.00  0.00    +0.000 A 
ATOM     21  C   UNL     1     -23.208  12.833   0.719  0.00  0.00    +0.000 A 
ATOM     22  C   UNL     1     -24.781  17.019  11.667  0.00  0.00    +0.000 A 
ATOM     23  H   UNL     1     -22.838  16.514   2.668  0.00  0.00    +0.000 HD
ATOM     24  H   UNL     1     -24.189  13.287   9.877  0.00  0.00    +0.000 HD
ENDROOT
BRANCH  11  26
ATOM     25  O   UNL     1     -22.480  18.557   4.204  0.00  0.00    +0.000 OA
ATOM     26  C   UNL     1     -22.108  17.846   5.129  0.00  0.00    +0.000 C 
BRANCH  26  27
ATOM     27  O   UNL     1     -21.128  18.102   6.044  0.00  0.00    +0.000 OA
ATOM     28  C   UNL     1     -20.963  19.422   6.489  0.00  0.00    +0.000 C 
ENDBRANCH  26  27
ENDBRANCH  11  26
BRANCH  12  30
ATOM     29  O   UNL     1     -22.150  11.625   8.732  0.00  0.00    +0.000 OA
ATOM     30  C   UNL     1     -22.853  11.847   7.753  0.00  0.00    +0.000 C 
BRANCH  30  31
ATOM     31  O   UNL     1     -23.462  10.942   6.933  0.00  0.00    +0.000 OA
ATOM     32  C   UNL     1     -23.142   9.584   7.090  0.00  0.00    +0.000 C 
ENDBRANCH  30  31
ENDBRANCH  12  30
TORSDOF 4
ENDMDL
MODEL 9
REMARK VINA RESULT:      -5.5     13.297     15.953
REMARK  Name = 5326018_Caulerpin.pdbqt.pdb
REMARK  4 active torsions:
REMARK  status: ('A' for Active; 'I' for Inactive)
REMARK    1  A    between atoms: C_11  and  C_26
REMARK    2  A    between atoms: C_12  and  C_30
REMARK    3  A    between atoms: C_26  and  O_27
REMARK    4  A    between atoms: C_30  and  O_31
REMARK                            x       y       z     vdW  Elec       q    Type
REMARK                         _______ _______ _______ _____ _____    ______ ____
ROOT
ATOM      1  N   UNL     1      -0.652  15.618   3.736  0.00  0.00    +0.000 N 
ATOM      2  N   UNL     1      -4.895  13.282  -0.649  0.00  0.00    +0.000 N 
ATOM      3  C   UNL     1      -2.729  15.616   2.961  0.00  0.00    +0.000 C 
ATOM      4  C   UNL     1      -2.776  13.616  -0.093  0.00  0.00    +0.000 C 
ATOM      5  C   UNL     1      -1.411  15.311   2.626  0.00  0.00    +0.000 C 
ATOM      6  C   UNL     1      -4.077  14.037   0.166  0.00  0.00    +0.000 C 
ATOM      7  C   UNL     1      -2.757  16.174   4.261  0.00  0.00    +0.000 A 
ATOM      8  C   UNL     1      -2.801  12.642  -1.121  0.00  0.00    +0.000 A 
ATOM      9  C   UNL     1      -1.441  16.168   4.724  0.00  0.00    +0.000 A 
ATOM     10  C   UNL     1      -4.141  12.455  -1.455  0.00  0.00    +0.000 A 
ATOM     11  C   UNL     1      -0.828  14.717   1.451  0.00  0.00    +0.000 C 
ATOM     12  C   UNL     1      -4.616  14.981   1.110  0.00  0.00    +0.000 C 
ATOM     13  C   UNL     1      -1.644  14.115   0.624  0.00  0.00    +0.000 C 
ATOM     14  C   UNL     1      -3.830  15.357   2.086  0.00  0.00    +0.000 C 
ATOM     15  C   UNL     1      -3.771  16.668   5.103  0.00  0.00    +0.000 A 
ATOM     16  C   UNL     1      -1.821  11.887  -1.791  0.00  0.00    +0.000 A 
ATOM     17  C   UNL     1      -1.082  16.639   5.991  0.00  0.00    +0.000 A 
ATOM     18  C   UNL     1      -4.557  11.547  -2.436  0.00  0.00    +0.000 A 
ATOM     19  C   UNL     1      -3.429  17.147   6.369  0.00  0.00    +0.000 A 
ATOM     20  C   UNL     1      -2.218  10.981  -2.776  0.00  0.00    +0.000 A 
ATOM     21  C   UNL     1      -2.107  17.132   6.802  0.00  0.00    +0.000 A 
ATOM     22  C   UNL     1      -3.563  10.818  -3.091  0.00  0.00    +0.000 A 
ATOM     23  H   UNL     1       0.342  15.464   3.850  0.00  0.00    +0.000 HD
ATOM     24  H   UNL     1      -5.907  13.296  -0.673  0.00  0.00    +0.000 HD
ENDROOT
BRANCH  11  26
ATOM     25  O   UNL     1       1.332  15.746   1.425  0.00  0.00    +0.000 OA
ATOM     26  C   UNL     1       0.599  14.844   1.037  0.00  0.00    +0.000 C 
BRANCH  26  27
ATOM     27  O   UNL     1       0.911  13.804   0.211  0.00  0.00    +0.000 OA
ATOM     28  C   UNL     1       2.088  13.083   0.466  0.00  0.00    +0.000 C 
ENDBRANCH  26  27
ENDBRANCH  11  26
BRANCH  12  30
ATOM     29  O   UNL     1      -6.983  15.059   0.767  0.00  0.00    +0.000 OA
ATOM     30  C   UNL     1      -5.940  15.660   0.996  0.00  0.00    +0.000 C 
BRANCH  30  31
ATOM     31  O   UNL     1      -5.768  16.996   1.209  0.00  0.00    +0.000 OA
ATOM     32  C   UNL     1      -6.185  17.887   0.207  0.00  0.00    +0.000 C 
ENDBRANCH  30  31
ENDBRANCH  12  30
TORSDOF 4
ENDMDL
