MODEL 1
REMARK VINA RESULT:      -3.5      0.000      0.000
REMARK  Name = 5350_Sulforaphane.pdbqt.pdb
REMARK  3 active torsions:
REMARK  status: ('A' for Active; 'I' for Inactive)
REMARK    1  A    between atoms: C_1  and  C_2
REMARK    2  A    between atoms: C_3  and  N_5
REMARK    3  A    between atoms: C_7  and  S_8
REMARK                            x       y       z     vdW  Elec       q    Type
REMARK                         _______ _______ _______ _____ _____    ______ ____
ROOT
ATOM      1  C   UNL     1     -18.595   5.281  20.989  0.00  0.00    +0.000 C 
ATOM      2  C   UNL     1     -17.882   5.081  22.331  0.00  0.00    +0.000 C 
ENDROOT
BRANCH   2   3
ATOM      3  S   UNL     1     -17.063   4.856  23.874  0.00  0.00    +0.000 S 
ATOM      4  O   UNL     1     -16.914   6.335  24.073  0.00  0.00    +0.000 OA
ATOM      5  C   UNL     1     -15.472   4.729  23.130  0.00  0.00    +0.000 C 
ENDBRANCH   2   3
BRANCH   1   6
ATOM      6  C   UNL     1     -19.305   5.480  19.647  0.00  0.00    +0.000 C 
ATOM      7  C   UNL     1     -20.016   5.680  18.303  0.00  0.00    +0.000 C 
BRANCH   7   9
ATOM      8  S   UNL     1     -21.663   8.411  16.880  0.00  0.00    +0.000 S 
ATOM      9  N   UNL     1     -20.648   5.849  17.134  0.00  0.00    +0.000 NA
ATOM     10  C   UNL     1     -21.070   6.940  17.046  0.00  0.00    +0.000 C 
ENDBRANCH   7   9
ENDBRANCH   1   6
TORSDOF 3
ENDMDL
MODEL 2
REMARK VINA RESULT:      -3.1      3.719      6.942
REMARK  Name = 5350_Sulforaphane.pdbqt.pdb
REMARK  3 active torsions:
REMARK  status: ('A' for Active; 'I' for Inactive)
REMARK    1  A    between atoms: C_1  and  C_2
REMARK    2  A    between atoms: C_3  and  N_5
REMARK    3  A    between atoms: C_7  and  S_8
REMARK                            x       y       z     vdW  Elec       q    Type
REMARK                         _______ _______ _______ _____ _____    ______ ____
ROOT
ATOM      1  C   UNL     1     -19.253   5.414  19.688  0.00  0.00    +0.000 C 
ATOM      2  C   UNL     1     -20.413   5.758  18.748  0.00  0.00    +0.000 C 
ENDROOT
BRANCH   2   3
ATOM      3  S   UNL     1     -21.748   6.158  17.670  0.00  0.00    +0.000 S 
ATOM      4  O   UNL     1     -20.955   5.775  16.456  0.00  0.00    +0.000 OA
ATOM      5  C   UNL     1     -21.268   7.846  17.532  0.00  0.00    +0.000 C 
ENDBRANCH   2   3
BRANCH   1   6
ATOM      6  C   UNL     1     -18.095   5.067  20.628  0.00  0.00    +0.000 C 
ATOM      7  C   UNL     1     -16.935   4.721  21.570  0.00  0.00    +0.000 C 
BRANCH   7   9
ATOM      8  S   UNL     1     -16.359   5.351  24.956  0.00  0.00    +0.000 S 
ATOM      9  N   UNL     1     -15.914   4.426  22.386  0.00  0.00    +0.000 NA
ATOM     10  C   UNL     1     -16.122   4.825  23.469  0.00  0.00    +0.000 C 
ENDBRANCH   7   9
ENDBRANCH   1   6
TORSDOF 3
ENDMDL
MODEL 3
REMARK VINA RESULT:      -3.0     15.834     16.521
REMARK  Name = 5350_Sulforaphane.pdbqt.pdb
REMARK  3 active torsions:
REMARK  status: ('A' for Active; 'I' for Inactive)
REMARK    1  A    between atoms: C_1  and  C_2
REMARK    2  A    between atoms: C_3  and  N_5
REMARK    3  A    between atoms: C_7  and  S_8
REMARK                            x       y       z     vdW  Elec       q    Type
REMARK                         _______ _______ _______ _____ _____    ______ ____
ROOT
ATOM      1  C   UNL     1     -24.458   8.751   5.712  0.00  0.00    +0.000 C 
ATOM      2  C   UNL     1     -24.813   7.271   5.530  0.00  0.00    +0.000 C 
ENDROOT
BRANCH   2   3
ATOM      3  S   UNL     1     -25.225   5.572   5.319  0.00  0.00    +0.000 S 
ATOM      4  O   UNL     1     -23.826   5.136   5.636  0.00  0.00    +0.000 OA
ATOM      5  C   UNL     1     -24.895   5.600   3.589  0.00  0.00    +0.000 C 
ENDBRANCH   2   3
BRANCH   1   6
ATOM      6  C   UNL     1     -24.104  10.229   5.897  0.00  0.00    +0.000 C 
ATOM      7  C   UNL     1     -23.749  11.710   6.082  0.00  0.00    +0.000 C 
BRANCH   7   9
ATOM      8  S   UNL     1     -22.324  13.500   8.720  0.00  0.00    +0.000 S 
ATOM      9  N   UNL     1     -23.452  13.007   6.241  0.00  0.00    +0.000 NA
ATOM     10  C   UNL     1     -22.975  13.195   7.297  0.00  0.00    +0.000 C 
ENDBRANCH   7   9
ENDBRANCH   1   6
TORSDOF 3
ENDMDL
MODEL 4
REMARK VINA RESULT:      -3.0     22.234     23.182
REMARK  Name = 5350_Sulforaphane.pdbqt.pdb
REMARK  3 active torsions:
REMARK  status: ('A' for Active; 'I' for Inactive)
REMARK    1  A    between atoms: C_1  and  C_2
REMARK    2  A    between atoms: C_3  and  N_5
REMARK    3  A    between atoms: C_7  and  S_8
REMARK                            x       y       z     vdW  Elec       q    Type
REMARK                         _______ _______ _______ _____ _____    ______ ____
ROOT
ATOM      1  C   UNL     1     -15.316   8.384  -1.566  0.00  0.00    +0.000 C 
ATOM      2  C   UNL     1     -15.582   6.893  -1.798  0.00  0.00    +0.000 C 
ENDROOT
BRANCH   2   3
ATOM      3  S   UNL     1     -15.893   5.179  -2.063  0.00  0.00    +0.000 S 
ATOM      4  O   UNL     1     -16.935   5.472  -3.101  0.00  0.00    +0.000 OA
ATOM      5  C   UNL     1     -17.098   5.094  -0.783  0.00  0.00    +0.000 C 
ENDBRANCH   2   3
BRANCH   1   6
ATOM      6  C   UNL     1     -15.048   9.874  -1.332  0.00  0.00    +0.000 C 
ATOM      7  C   UNL     1     -14.780  11.365  -1.097  0.00  0.00    +0.000 C 
BRANCH   7   9
ATOM      8  S   UNL     1     -13.394  13.843  -3.131  0.00  0.00    +0.000 S 
ATOM      9  N   UNL     1     -14.548  12.671  -0.905  0.00  0.00    +0.000 NA
ATOM     10  C   UNL     1     -14.059  13.149  -1.859  0.00  0.00    +0.000 C 
ENDBRANCH   7   9
ENDBRANCH   1   6
TORSDOF 3
ENDMDL
MODEL 5
REMARK VINA RESULT:      -3.0     22.265     22.984
REMARK  Name = 5350_Sulforaphane.pdbqt.pdb
REMARK  3 active torsions:
REMARK  status: ('A' for Active; 'I' for Inactive)
REMARK    1  A    between atoms: C_1  and  C_2
REMARK    2  A    between atoms: C_3  and  N_5
REMARK    3  A    between atoms: C_7  and  S_8
REMARK                            x       y       z     vdW  Elec       q    Type
REMARK                         _______ _______ _______ _____ _____    ______ ____
ROOT
ATOM      1  C   UNL     1      -5.829   1.642   2.715  0.00  0.00    +0.000 C 
ATOM      2  C   UNL     1      -7.127   0.827   2.740  0.00  0.00    +0.000 C 
ENDROOT
BRANCH   2   3
ATOM      3  S   UNL     1      -8.620  -0.108   2.773  0.00  0.00    +0.000 S 
ATOM      4  O   UNL     1      -8.873   0.244   4.209  0.00  0.00    +0.000 OA
ATOM      5  C   UNL     1      -7.798  -1.601   3.214  0.00  0.00    +0.000 C 
ENDBRANCH   2   3
BRANCH   1   6
ATOM      6  C   UNL     1      -4.531   2.454   2.691  0.00  0.00    +0.000 C 
ATOM      7  C   UNL     1      -3.232   3.267   2.667  0.00  0.00    +0.000 C 
BRANCH   7   9
ATOM      8  S   UNL     1      -2.578   6.681   2.999  0.00  0.00    +0.000 S 
ATOM      9  N   UNL     1      -2.096   3.978   2.659  0.00  0.00    +0.000 NA
ATOM     10  C   UNL     1      -2.321   5.120   2.805  0.00  0.00    +0.000 C 
ENDBRANCH   7   9
ENDBRANCH   1   6
TORSDOF 3
ENDMDL
MODEL 6
REMARK VINA RESULT:      -2.9     20.917     22.561
REMARK  Name = 5350_Sulforaphane.pdbqt.pdb
REMARK  3 active torsions:
REMARK  status: ('A' for Active; 'I' for Inactive)
REMARK    1  A    between atoms: C_1  and  C_2
REMARK    2  A    between atoms: C_3  and  N_5
REMARK    3  A    between atoms: C_7  and  S_8
REMARK                            x       y       z     vdW  Elec       q    Type
REMARK                         _______ _______ _______ _____ _____    ______ ____
ROOT
ATOM      1  C   UNL     1     -10.846   1.437   0.194  0.00  0.00    +0.000 C 
ATOM      2  C   UNL     1     -11.618   1.983  -1.011  0.00  0.00    +0.000 C 
ENDROOT
BRANCH   2   3
ATOM      3  S   UNL     1     -12.508   2.608  -2.398  0.00  0.00    +0.000 S 
ATOM      4  O   UNL     1     -12.500   4.002  -1.844  0.00  0.00    +0.000 OA
ATOM      5  C   UNL     1     -14.077   2.261  -1.678  0.00  0.00    +0.000 C 
ENDBRANCH   2   3
BRANCH   1   6
ATOM      6  C   UNL     1     -10.073   0.890   1.397  0.00  0.00    +0.000 C 
ATOM      7  C   UNL     1      -9.298   0.342   2.602  0.00  0.00    +0.000 C 
BRANCH   7   9
ATOM      8  S   UNL     1      -7.293   1.858   5.027  0.00  0.00    +0.000 S 
ATOM      9  N   UNL     1      -8.631  -0.142   3.659  0.00  0.00    +0.000 NA
ATOM     10  C   UNL     1      -8.072   0.721   4.225  0.00  0.00    +0.000 C 
ENDBRANCH   7   9
ENDBRANCH   1   6
TORSDOF 3
ENDMDL
MODEL 7
REMARK VINA RESULT:      -2.9     23.004     23.641
REMARK  Name = 5350_Sulforaphane.pdbqt.pdb
REMARK  3 active torsions:
REMARK  status: ('A' for Active; 'I' for Inactive)
REMARK    1  A    between atoms: C_1  and  C_2
REMARK    2  A    between atoms: C_3  and  N_5
REMARK    3  A    between atoms: C_7  and  S_8
REMARK                            x       y       z     vdW  Elec       q    Type
REMARK                         _______ _______ _______ _____ _____    ______ ____
ROOT
ATOM      1  C   UNL     1      -3.448   3.578   2.538  0.00  0.00    +0.000 C 
ATOM      2  C   UNL     1      -2.748   4.941   2.563  0.00  0.00    +0.000 C 
ENDROOT
BRANCH   2   3
ATOM      3  S   UNL     1      -1.947   6.510   2.595  0.00  0.00    +0.000 S 
ATOM      4  O   UNL     1      -3.107   7.149   3.299  0.00  0.00    +0.000 OA
ATOM      5  C   UNL     1      -2.567   6.974   1.013  0.00  0.00    +0.000 C 
ENDBRANCH   2   3
BRANCH   1   6
ATOM      6  C   UNL     1      -4.148   2.216   2.510  0.00  0.00    +0.000 C 
ATOM      7  C   UNL     1      -4.849   0.853   2.482  0.00  0.00    +0.000 C 
BRANCH   7   9
ATOM      8  S   UNL     1      -8.104  -0.142   3.266  0.00  0.00    +0.000 S 
ATOM      9  N   UNL     1      -5.467  -0.336   2.447  0.00  0.00    +0.000 NA
ATOM     10  C   UNL     1      -6.583  -0.232   2.797  0.00  0.00    +0.000 C 
ENDBRANCH   7   9
ENDBRANCH   1   6
TORSDOF 3
ENDMDL
MODEL 8
REMARK VINA RESULT:      -2.9      7.077      8.365
REMARK  Name = 5350_Sulforaphane.pdbqt.pdb
REMARK  3 active torsions:
REMARK  status: ('A' for Active; 'I' for Inactive)
REMARK    1  A    between atoms: C_1  and  C_2
REMARK    2  A    between atoms: C_3  and  N_5
REMARK    3  A    between atoms: C_7  and  S_8
REMARK                            x       y       z     vdW  Elec       q    Type
REMARK                         _______ _______ _______ _____ _____    ______ ____
ROOT
ATOM      1  C   UNL     1     -12.346   5.599  20.217  0.00  0.00    +0.000 C 
ATOM      2  C   UNL     1     -13.305   5.081  21.294  0.00  0.00    +0.000 C 
ENDROOT
BRANCH   2   3
ATOM      3  S   UNL     1     -14.411   4.484  22.529  0.00  0.00    +0.000 S 
ATOM      4  O   UNL     1     -14.168   3.057  22.134  0.00  0.00    +0.000 OA
ATOM      5  C   UNL     1     -15.817   4.604  21.476  0.00  0.00    +0.000 C 
ENDBRANCH   2   3
BRANCH   1   6
ATOM      6  C   UNL     1     -11.388   6.120  19.142  0.00  0.00    +0.000 C 
ATOM      7  C   UNL     1     -10.430   6.641  18.064  0.00  0.00    +0.000 C 
BRANCH   7   9
ATOM      8  S   UNL     1      -8.666   5.035  15.514  0.00  0.00    +0.000 S 
ATOM      9  N   UNL     1      -9.583   7.088  17.127  0.00  0.00    +0.000 NA
ATOM     10  C   UNL     1      -9.206   6.203  16.454  0.00  0.00    +0.000 C 
ENDBRANCH   7   9
ENDBRANCH   1   6
TORSDOF 3
ENDMDL
MODEL 9
REMARK VINA RESULT:      -2.8      8.890      9.786
REMARK  Name = 5350_Sulforaphane.pdbqt.pdb
REMARK  3 active torsions:
REMARK  status: ('A' for Active; 'I' for Inactive)
REMARK    1  A    between atoms: C_1  and  C_2
REMARK    2  A    between atoms: C_3  and  N_5
REMARK    3  A    between atoms: C_7  and  S_8
REMARK                            x       y       z     vdW  Elec       q    Type
REMARK                         _______ _______ _______ _____ _____    ______ ____
ROOT
ATOM      1  C   UNL     1     -10.619   6.819  19.543  0.00  0.00    +0.000 C 
ATOM      2  C   UNL     1     -10.927   7.344  20.950  0.00  0.00    +0.000 C 
ENDROOT
BRANCH   2   3
ATOM      3  S   UNL     1     -11.278   7.946  22.568  0.00  0.00    +0.000 S 
ATOM      4  O   UNL     1     -10.710   9.297  22.248  0.00  0.00    +0.000 OA
ATOM      5  C   UNL     1      -9.742   7.384  23.222  0.00  0.00    +0.000 C 
ENDBRANCH   2   3
BRANCH   1   6
ATOM      6  C   UNL     1     -10.313   6.292  18.139  0.00  0.00    +0.000 C 
ATOM      7  C   UNL     1     -10.007   5.764  16.732  0.00  0.00    +0.000 C 
BRANCH   7   9
ATOM      8  S   UNL     1      -7.151   4.349  15.305  0.00  0.00    +0.000 S 
ATOM      9  N   UNL     1      -9.745   5.292  15.505  0.00  0.00    +0.000 NA
ATOM     10  C   UNL     1      -8.642   4.897  15.441  0.00  0.00    +0.000 C 
ENDBRANCH   7   9
ENDBRANCH   1   6
TORSDOF 3
ENDMDL
