MODEL 1
REMARK VINA RESULT:      -5.3      0.000      0.000
REMARK  Name = 5357283_Methylferulate.pdbqt.pdb
REMARK  5 active torsions:
REMARK  status: ('A' for Active; 'I' for Inactive)
REMARK    1  A    between atoms: C_1  and  C_11
REMARK    2  A    between atoms: C_2  and  O_7
REMARK    3  A    between atoms: C_5  and  O_9
REMARK    4  A    between atoms: C_12  and  C_14
REMARK    5  A    between atoms: C_14  and  O_15
REMARK                            x       y       z     vdW  Elec       q    Type
REMARK                         _______ _______ _______ _____ _____    ______ ____
ROOT
ATOM      1  C   UNL     1     -15.533   9.877  -0.579  0.00  0.00    +0.000 A 
ATOM      2  C   UNL     1     -16.189   7.608  -1.131  0.00  0.00    +0.000 A 
ATOM      3  C   UNL     1     -15.567   8.811  -1.478  0.00  0.00    +0.000 A 
ATOM      4  C   UNL     1     -16.122   9.751   0.677  0.00  0.00    +0.000 A 
ATOM      5  C   UNL     1     -16.775   7.496   0.132  0.00  0.00    +0.000 A 
ATOM      6  C   UNL     1     -16.744   8.558   1.034  0.00  0.00    +0.000 A 
ENDROOT
BRANCH   2   7
ATOM      7  O   UNL     1     -16.267   6.512  -1.956  0.00  0.00    +0.000 OA
ATOM      8  C   UNL     1     -15.035   5.954  -2.333  0.00  0.00    +0.000 C 
ENDBRANCH   2   7
BRANCH   5   9
ATOM      9  O   UNL     1     -17.388   6.326   0.491  0.00  0.00    +0.000 OA
ATOM     10  H   UNL     1     -17.816   5.943  -0.297  0.00  0.00    +0.000 HD
ENDBRANCH   5   9
BRANCH   1  11
ATOM     11  C   UNL     1     -14.896  11.097  -0.950  0.00  0.00    +0.000 C 
ATOM     12  C   UNL     1     -14.359  12.127  -1.263  0.00  0.00    +0.000 C 
BRANCH  12  14
ATOM     13  O   UNL     1     -13.855  14.359  -0.940  0.00  0.00    +0.000 OA
ATOM     14  C   UNL     1     -13.719  13.365  -1.641  0.00  0.00    +0.000 C 
BRANCH  14  15
ATOM     15  O   UNL     1     -13.014  13.222  -2.802  0.00  0.00    +0.000 OA
ATOM     16  C   UNL     1     -13.711  12.798  -3.946  0.00  0.00    +0.000 C 
ENDBRANCH  14  15
ENDBRANCH  12  14
ENDBRANCH   1  11
TORSDOF 5
ENDMDL
MODEL 2
REMARK VINA RESULT:      -4.9      1.181      2.430
REMARK  Name = 5357283_Methylferulate.pdbqt.pdb
REMARK  5 active torsions:
REMARK  status: ('A' for Active; 'I' for Inactive)
REMARK    1  A    between atoms: C_1  and  C_11
REMARK    2  A    between atoms: C_2  and  O_7
REMARK    3  A    between atoms: C_5  and  O_9
REMARK    4  A    between atoms: C_12  and  C_14
REMARK    5  A    between atoms: C_14  and  O_15
REMARK                            x       y       z     vdW  Elec       q    Type
REMARK                         _______ _______ _______ _____ _____    ______ ____
ROOT
ATOM      1  C   UNL     1     -15.088   9.858  -1.879  0.00  0.00    +0.000 A 
ATOM      2  C   UNL     1     -16.121   8.073  -0.603  0.00  0.00    +0.000 A 
ATOM      3  C   UNL     1     -15.733   9.410  -0.727  0.00  0.00    +0.000 A 
ATOM      4  C   UNL     1     -14.823   8.972  -2.920  0.00  0.00    +0.000 A 
ATOM      5  C   UNL     1     -15.848   7.196  -1.656  0.00  0.00    +0.000 A 
ATOM      6  C   UNL     1     -15.204   7.638  -2.810  0.00  0.00    +0.000 A 
ENDROOT
BRANCH   2   7
ATOM      7  O   UNL     1     -16.759   7.551   0.496  0.00  0.00    +0.000 OA
ATOM      8  C   UNL     1     -17.047   8.469   1.518  0.00  0.00    +0.000 C 
ENDBRANCH   2   7
BRANCH   5   9
ATOM      9  O   UNL     1     -16.221   5.883  -1.554  0.00  0.00    +0.000 OA
ATOM     10  H   UNL     1     -16.468   5.558  -2.439  0.00  0.00    +0.000 HD
ENDBRANCH   5   9
BRANCH   1  11
ATOM     11  C   UNL     1     -14.699  11.225  -1.987  0.00  0.00    +0.000 C 
ATOM     12  C   UNL     1     -14.372  12.379  -2.080  0.00  0.00    +0.000 C 
BRANCH  12  14
ATOM     13  O   UNL     1     -13.686  14.399  -1.191  0.00  0.00    +0.000 OA
ATOM     14  C   UNL     1     -13.976  13.763  -2.196  0.00  0.00    +0.000 C 
BRANCH  14  15
ATOM     15  O   UNL     1     -13.990  14.173  -3.499  0.00  0.00    +0.000 OA
ATOM     16  C   UNL     1     -12.832  14.786  -4.007  0.00  0.00    +0.000 C 
ENDBRANCH  14  15
ENDBRANCH  12  14
ENDBRANCH   1  11
TORSDOF 5
ENDMDL
MODEL 3
REMARK VINA RESULT:      -4.7     23.124     24.709
REMARK  Name = 5357283_Methylferulate.pdbqt.pdb
REMARK  5 active torsions:
REMARK  status: ('A' for Active; 'I' for Inactive)
REMARK    1  A    between atoms: C_1  and  C_11
REMARK    2  A    between atoms: C_2  and  O_7
REMARK    3  A    between atoms: C_5  and  O_9
REMARK    4  A    between atoms: C_12  and  C_14
REMARK    5  A    between atoms: C_14  and  O_15
REMARK                            x       y       z     vdW  Elec       q    Type
REMARK                         _______ _______ _______ _____ _____    ______ ____
ROOT
ATOM      1  C   UNL     1     -14.587  19.171  21.397  0.00  0.00    +0.000 A 
ATOM      2  C   UNL     1     -15.746  18.924  23.513  0.00  0.00    +0.000 A 
ATOM      3  C   UNL     1     -14.607  18.742  22.724  0.00  0.00    +0.000 A 
ATOM      4  C   UNL     1     -15.708  19.786  20.845  0.00  0.00    +0.000 A 
ATOM      5  C   UNL     1     -16.863  19.543  22.945  0.00  0.00    +0.000 A 
ATOM      6  C   UNL     1     -16.848  19.974  21.620  0.00  0.00    +0.000 A 
ENDROOT
BRANCH   2   7
ATOM      7  O   UNL     1     -15.849  18.532  24.826  0.00  0.00    +0.000 OA
ATOM      8  C   UNL     1     -14.644  18.516  25.545  0.00  0.00    +0.000 C 
ENDBRANCH   2   7
BRANCH   5   9
ATOM      9  O   UNL     1     -17.988  19.732  23.702  0.00  0.00    +0.000 OA
ATOM     10  H   UNL     1     -18.620  20.271  23.193  0.00  0.00    +0.000 HD
ENDBRANCH   5   9
BRANCH   1  11
ATOM     11  C   UNL     1     -13.416  18.976  20.607  0.00  0.00    +0.000 C 
ATOM     12  C   UNL     1     -12.429  18.811  19.941  0.00  0.00    +0.000 C 
BRANCH  12  14
ATOM     13  O   UNL     1     -10.514  17.653  19.363  0.00  0.00    +0.000 OA
ATOM     14  C   UNL     1     -11.239  18.615  19.145  0.00  0.00    +0.000 C 
BRANCH  14  15
ATOM     15  O   UNL     1     -11.103  19.601  18.211  0.00  0.00    +0.000 OA
ATOM     16  C   UNL     1     -10.018  19.519  17.321  0.00  0.00    +0.000 C 
ENDBRANCH  14  15
ENDBRANCH  12  14
ENDBRANCH   1  11
TORSDOF 5
ENDMDL
MODEL 4
REMARK VINA RESULT:      -4.4     19.874     22.126
REMARK  Name = 5357283_Methylferulate.pdbqt.pdb
REMARK  5 active torsions:
REMARK  status: ('A' for Active; 'I' for Inactive)
REMARK    1  A    between atoms: C_1  and  C_11
REMARK    2  A    between atoms: C_2  and  O_7
REMARK    3  A    between atoms: C_5  and  O_9
REMARK    4  A    between atoms: C_12  and  C_14
REMARK    5  A    between atoms: C_14  and  O_15
REMARK                            x       y       z     vdW  Elec       q    Type
REMARK                         _______ _______ _______ _____ _____    ______ ____
ROOT
ATOM      1  C   UNL     1     -19.695   4.750  19.223  0.00  0.00    +0.000 A 
ATOM      2  C   UNL     1     -21.328   3.435  18.005  0.00  0.00    +0.000 A 
ATOM      3  C   UNL     1     -20.413   3.567  19.053  0.00  0.00    +0.000 A 
ATOM      4  C   UNL     1     -19.885   5.815  18.345  0.00  0.00    +0.000 A 
ATOM      5  C   UNL     1     -21.508   4.512  17.132  0.00  0.00    +0.000 A 
ATOM      6  C   UNL     1     -20.793   5.697  17.298  0.00  0.00    +0.000 A 
ENDROOT
BRANCH   2   7
ATOM      7  O   UNL     1     -22.075   2.306  17.767  0.00  0.00    +0.000 OA
ATOM      8  C   UNL     1     -21.449   1.092  18.089  0.00  0.00    +0.000 C 
ENDBRANCH   2   7
BRANCH   5   9
ATOM      9  O   UNL     1     -22.401   4.402  16.101  0.00  0.00    +0.000 OA
ATOM     10  H   UNL     1     -21.959   3.964  15.350  0.00  0.00    +0.000 HD
ENDBRANCH   5   9
BRANCH   1  11
ATOM     11  C   UNL     1     -18.764   4.867  20.297  0.00  0.00    +0.000 C 
ATOM     12  C   UNL     1     -17.980   4.964  21.203  0.00  0.00    +0.000 C 
BRANCH  12  14
ATOM     13  O   UNL     1     -17.202   5.943  23.146  0.00  0.00    +0.000 OA
ATOM     14  C   UNL     1     -17.041   5.079  22.295  0.00  0.00    +0.000 C 
BRANCH  14  15
ATOM     15  O   UNL     1     -16.053   4.141  22.198  0.00  0.00    +0.000 OA
ATOM     16  C   UNL     1     -14.753   4.513  22.580  0.00  0.00    +0.000 C 
ENDBRANCH  14  15
ENDBRANCH  12  14
ENDBRANCH   1  11
TORSDOF 5
ENDMDL
MODEL 5
REMARK VINA RESULT:      -4.4     11.091     12.330
REMARK  Name = 5357283_Methylferulate.pdbqt.pdb
REMARK  5 active torsions:
REMARK  status: ('A' for Active; 'I' for Inactive)
REMARK    1  A    between atoms: C_1  and  C_11
REMARK    2  A    between atoms: C_2  and  O_7
REMARK    3  A    between atoms: C_5  and  O_9
REMARK    4  A    between atoms: C_12  and  C_14
REMARK    5  A    between atoms: C_14  and  O_15
REMARK                            x       y       z     vdW  Elec       q    Type
REMARK                         _______ _______ _______ _____ _____    ______ ____
ROOT
ATOM      1  C   UNL     1     -22.822  12.048   7.720  0.00  0.00    +0.000 A 
ATOM      2  C   UNL     1     -24.166  11.250   5.865  0.00  0.00    +0.000 A 
ATOM      3  C   UNL     1     -23.643  12.303   6.621  0.00  0.00    +0.000 A 
ATOM      4  C   UNL     1     -22.516  10.736   8.073  0.00  0.00    +0.000 A 
ATOM      5  C   UNL     1     -23.850   9.939   6.232  0.00  0.00    +0.000 A 
ATOM      6  C   UNL     1     -23.030   9.679   7.329  0.00  0.00    +0.000 A 
ENDROOT
BRANCH   2   7
ATOM      7  O   UNL     1     -24.981  11.413   4.771  0.00  0.00    +0.000 OA
ATOM      8  C   UNL     1     -24.358  11.944   3.630  0.00  0.00    +0.000 C 
ENDBRANCH   2   7
BRANCH   5   9
ATOM      9  O   UNL     1     -24.352   8.894   5.504  0.00  0.00    +0.000 OA
ATOM     10  H   UNL     1     -25.179   9.181   5.075  0.00  0.00    +0.000 HD
ENDBRANCH   5   9
BRANCH   1  11
ATOM     11  C   UNL     1     -22.298  13.134   8.480  0.00  0.00    +0.000 C 
ATOM     12  C   UNL     1     -21.856  14.049   9.122  0.00  0.00    +0.000 C 
BRANCH  12  14
ATOM     13  O   UNL     1     -20.119  15.351   9.916  0.00  0.00    +0.000 OA
ATOM     14  C   UNL     1     -21.325  15.146   9.898  0.00  0.00    +0.000 C 
BRANCH  14  15
ATOM     15  O   UNL     1     -22.323  15.829  10.533  0.00  0.00    +0.000 OA
ATOM     16  C   UNL     1     -23.051  16.773   9.789  0.00  0.00    +0.000 C 
ENDBRANCH  14  15
ENDBRANCH  12  14
ENDBRANCH   1  11
TORSDOF 5
ENDMDL
MODEL 6
REMARK VINA RESULT:      -4.1     20.530     23.115
REMARK  Name = 5357283_Methylferulate.pdbqt.pdb
REMARK  5 active torsions:
REMARK  status: ('A' for Active; 'I' for Inactive)
REMARK    1  A    between atoms: C_1  and  C_11
REMARK    2  A    between atoms: C_2  and  O_7
REMARK    3  A    between atoms: C_5  and  O_9
REMARK    4  A    between atoms: C_12  and  C_14
REMARK    5  A    between atoms: C_14  and  O_15
REMARK                            x       y       z     vdW  Elec       q    Type
REMARK                         _______ _______ _______ _____ _____    ______ ____
ROOT
ATOM      1  C   UNL     1     -18.920   5.158  20.858  0.00  0.00    +0.000 A 
ATOM      2  C   UNL     1     -19.097   4.368  23.144  0.00  0.00    +0.000 A 
ATOM      3  C   UNL     1     -19.698   4.754  21.943  0.00  0.00    +0.000 A 
ATOM      4  C   UNL     1     -17.532   5.179  20.964  0.00  0.00    +0.000 A 
ATOM      5  C   UNL     1     -17.703   4.394  23.235  0.00  0.00    +0.000 A 
ATOM      6  C   UNL     1     -16.921   4.797  22.154  0.00  0.00    +0.000 A 
ENDROOT
BRANCH   2   7
ATOM      7  O   UNL     1     -19.788   3.957  24.259  0.00  0.00    +0.000 OA
ATOM      8  C   UNL     1     -21.051   4.546  24.434  0.00  0.00    +0.000 C 
ENDBRANCH   2   7
BRANCH   5   9
ATOM      9  O   UNL     1     -17.095   4.018  24.403  0.00  0.00    +0.000 OA
ATOM     10  H   UNL     1     -16.825   4.820  24.887  0.00  0.00    +0.000 HD
ENDBRANCH   5   9
BRANCH   1  11
ATOM     11  C   UNL     1     -19.551   5.550  19.641  0.00  0.00    +0.000 C 
ATOM     12  C   UNL     1     -20.081   5.882  18.614  0.00  0.00    +0.000 C 
BRANCH  12  14
ATOM     13  O   UNL     1     -20.613   5.578  16.386  0.00  0.00    +0.000 OA
ATOM     14  C   UNL     1     -20.715   6.284  17.380  0.00  0.00    +0.000 C 
BRANCH  14  15
ATOM     15  O   UNL     1     -21.375   7.470  17.528  0.00  0.00    +0.000 OA
ATOM     16  C   UNL     1     -20.715   8.644  17.127  0.00  0.00    +0.000 C 
ENDBRANCH  14  15
ENDBRANCH  12  14
ENDBRANCH   1  11
TORSDOF 5
ENDMDL
MODEL 7
REMARK VINA RESULT:      -4.1     25.047     26.906
REMARK  Name = 5357283_Methylferulate.pdbqt.pdb
REMARK  5 active torsions:
REMARK  status: ('A' for Active; 'I' for Inactive)
REMARK    1  A    between atoms: C_1  and  C_11
REMARK    2  A    between atoms: C_2  and  O_7
REMARK    3  A    between atoms: C_5  and  O_9
REMARK    4  A    between atoms: C_12  and  C_14
REMARK    5  A    between atoms: C_14  and  O_15
REMARK                            x       y       z     vdW  Elec       q    Type
REMARK                         _______ _______ _______ _____ _____    ______ ____
ROOT
ATOM      1  C   UNL     1     -14.878  18.423  23.684  0.00  0.00    +0.000 A 
ATOM      2  C   UNL     1     -14.658  19.260  21.419  0.00  0.00    +0.000 A 
ATOM      3  C   UNL     1     -14.097  18.676  22.558  0.00  0.00    +0.000 A 
ATOM      4  C   UNL     1     -16.232  18.751  23.684  0.00  0.00    +0.000 A 
ATOM      5  C   UNL     1     -16.017  19.584  21.433  0.00  0.00    +0.000 A 
ATOM      6  C   UNL     1     -16.804  19.333  22.556  0.00  0.00    +0.000 A 
ENDROOT
BRANCH   2   7
ATOM      7  O   UNL     1     -13.960  19.542  20.270  0.00  0.00    +0.000 OA
ATOM      8  C   UNL     1     -12.772  20.268  20.450  0.00  0.00    +0.000 C 
ENDBRANCH   2   7
BRANCH   5   9
ATOM      9  O   UNL     1     -16.586  20.155  20.327  0.00  0.00    +0.000 OA
ATOM     10  H   UNL     1     -15.891  20.611  19.817  0.00  0.00    +0.000 HD
ENDBRANCH   5   9
BRANCH   1  11
ATOM     11  C   UNL     1     -14.288  17.828  24.838  0.00  0.00    +0.000 C 
ATOM     12  C   UNL     1     -13.791  17.324  25.810  0.00  0.00    +0.000 C 
BRANCH  12  14
ATOM     13  O   UNL     1     -12.176  17.192  27.458  0.00  0.00    +0.000 OA
ATOM     14  C   UNL     1     -13.199  16.718  26.980  0.00  0.00    +0.000 C 
BRANCH  14  15
ATOM     15  O   UNL     1     -13.922  15.637  27.396  0.00  0.00    +0.000 OA
ATOM     16  C   UNL     1     -14.793  15.809  28.485  0.00  0.00    +0.000 C 
ENDBRANCH  14  15
ENDBRANCH  12  14
ENDBRANCH   1  11
TORSDOF 5
ENDMDL
MODEL 8
REMARK VINA RESULT:      -4.0     22.882     24.427
REMARK  Name = 5357283_Methylferulate.pdbqt.pdb
REMARK  5 active torsions:
REMARK  status: ('A' for Active; 'I' for Inactive)
REMARK    1  A    between atoms: C_1  and  C_11
REMARK    2  A    between atoms: C_2  and  O_7
REMARK    3  A    between atoms: C_5  and  O_9
REMARK    4  A    between atoms: C_12  and  C_14
REMARK    5  A    between atoms: C_14  and  O_15
REMARK                            x       y       z     vdW  Elec       q    Type
REMARK                         _______ _______ _______ _____ _____    ______ ____
ROOT
ATOM      1  C   UNL     1     -13.452  18.759  21.678  0.00  0.00    +0.000 A 
ATOM      2  C   UNL     1     -15.714  19.081  22.493  0.00  0.00    +0.000 A 
ATOM      3  C   UNL     1     -14.784  19.103  21.449  0.00  0.00    +0.000 A 
ATOM      4  C   UNL     1     -13.037  18.388  22.955  0.00  0.00    +0.000 A 
ATOM      5  C   UNL     1     -15.282  18.707  23.768  0.00  0.00    +0.000 A 
ATOM      6  C   UNL     1     -13.952  18.361  24.002  0.00  0.00    +0.000 A 
ENDROOT
BRANCH   2   7
ATOM      7  O   UNL     1     -17.042  19.406  22.352  0.00  0.00    +0.000 OA
ATOM      8  C   UNL     1     -17.793  18.535  21.547  0.00  0.00    +0.000 C 
ENDBRANCH   2   7
BRANCH   5   9
ATOM      9  O   UNL     1     -16.178  18.678  24.802  0.00  0.00    +0.000 OA
ATOM     10  H   UNL     1     -15.740  18.296  25.585  0.00  0.00    +0.000 HD
ENDBRANCH   5   9
BRANCH   1  11
ATOM     11  C   UNL     1     -12.517  18.788  20.602  0.00  0.00    +0.000 C 
ATOM     12  C   UNL     1     -11.729  18.811  19.695  0.00  0.00    +0.000 C 
BRANCH  12  14
ATOM     13  O   UNL     1      -9.874  18.012  18.572  0.00  0.00    +0.000 OA
ATOM     14  C   UNL     1     -10.779  18.836  18.607  0.00  0.00    +0.000 C 
BRANCH  14  15
ATOM     15  O   UNL     1     -11.059  19.844  17.729  0.00  0.00    +0.000 OA
ATOM     16  C   UNL     1     -10.684  21.150  18.086  0.00  0.00    +0.000 C 
ENDBRANCH  14  15
ENDBRANCH  12  14
ENDBRANCH   1  11
TORSDOF 5
ENDMDL
MODEL 9
REMARK VINA RESULT:      -3.8     19.788     22.103
REMARK  Name = 5357283_Methylferulate.pdbqt.pdb
REMARK  5 active torsions:
REMARK  status: ('A' for Active; 'I' for Inactive)
REMARK    1  A    between atoms: C_1  and  C_11
REMARK    2  A    between atoms: C_2  and  O_7
REMARK    3  A    between atoms: C_5  and  O_9
REMARK    4  A    between atoms: C_12  and  C_14
REMARK    5  A    between atoms: C_14  and  O_15
REMARK                            x       y       z     vdW  Elec       q    Type
REMARK                         _______ _______ _______ _____ _____    ______ ____
ROOT
ATOM      1  C   UNL     1     -11.195   5.797  19.441  0.00  0.00    +0.000 A 
ATOM      2  C   UNL     1      -9.766   5.466  17.510  0.00  0.00    +0.000 A 
ATOM      3  C   UNL     1     -10.861   5.084  18.290  0.00  0.00    +0.000 A 
ATOM      4  C   UNL     1     -10.437   6.900  19.824  0.00  0.00    +0.000 A 
ATOM      5  C   UNL     1      -9.014   6.575  17.907  0.00  0.00    +0.000 A 
ATOM      6  C   UNL     1      -9.344   7.291  19.057  0.00  0.00    +0.000 A 
ENDROOT
BRANCH   2   7
ATOM      7  O   UNL     1      -9.369   4.820  16.364  0.00  0.00    +0.000 OA
ATOM      8  C   UNL     1     -10.095   5.146  15.208  0.00  0.00    +0.000 C 
ENDBRANCH   2   7
BRANCH   5   9
ATOM      9  O   UNL     1      -7.939   6.965  17.156  0.00  0.00    +0.000 OA
ATOM     10  H   UNL     1      -7.221   7.239  17.756  0.00  0.00    +0.000 HD
ENDBRANCH   5   9
BRANCH   1  11
ATOM     11  C   UNL     1     -12.315   5.393  20.225  0.00  0.00    +0.000 C 
ATOM     12  C   UNL     1     -13.259   5.050  20.887  0.00  0.00    +0.000 C 
BRANCH  12  14
ATOM     13  O   UNL     1     -15.153   3.776  21.249  0.00  0.00    +0.000 OA
ATOM     14  C   UNL     1     -14.395   4.636  21.678  0.00  0.00    +0.000 C 
BRANCH  14  15
ATOM     15  O   UNL     1     -14.446   5.315  22.861  0.00  0.00    +0.000 OA
ATOM     16  C   UNL     1     -15.260   4.796  23.883  0.00  0.00    +0.000 C 
ENDBRANCH  14  15
ENDBRANCH  12  14
ENDBRANCH   1  11
TORSDOF 5
ENDMDL
