MODEL 1
REMARK VINA RESULT:      -5.6      0.000      0.000
REMARK  Name = 5358691_Yuanhuacine.pdbqt.pdb
REMARK  12 active torsions:
REMARK  status: ('A' for Active; 'I' for Inactive)
REMARK    1  A    between atoms: C_9  and  C_48
REMARK    2  A    between atoms: C_13  and  C_23
REMARK    3  A    between atoms: C_14  and  O_26
REMARK    4  A    between atoms: C_15  and  O_28
REMARK    5  A    between atoms: C_16  and  O_39
REMARK    6  A    between atoms: C_17  and  C_30
REMARK    7  A    between atoms: C_31  and  C_32
REMARK    8  A    between atoms: C_33  and  C_34
REMARK    9  A    between atoms: C_35  and  C_36
REMARK   10  A    between atoms: O_39  and  C_41
REMARK   11  A    between atoms: C_41  and  C_42
REMARK   12  A    between atoms: C_48  and  O_49
REMARK                            x       y       z     vdW  Elec       q    Type
REMARK                         _______ _______ _______ _____ _____    ______ ____
ROOT
ATOM      1  O   UNL     1     -16.545   8.840  -4.252  0.00  0.00    +0.000 OA
ATOM      2  O   UNL     1     -15.219   6.129  -2.477  0.00  0.00    +0.000 OA
ATOM      3  O   UNL     1     -15.643   5.639  -4.760  0.00  0.00    +0.000 OA
ATOM      4  O   UNL     1     -15.701   3.931  -3.231  0.00  0.00    +0.000 OA
ATOM      5  O   UNL     1     -18.038  10.356   0.500  0.00  0.00    +0.000 OA
ATOM      6  C   UNL     1     -17.289   6.709  -3.611  0.00  0.00    +0.000 C 
ATOM      7  C   UNL     1     -16.598   6.552  -2.248  0.00  0.00    +0.000 C 
ATOM      8  C   UNL     1     -17.586   7.947  -4.275  0.00  0.00    +0.000 C 
ATOM      9  C   UNL     1     -17.834   9.326  -3.853  0.00  0.00    +0.000 C 
ATOM     10  C   UNL     1     -16.973   5.494  -4.370  0.00  0.00    +0.000 C 
ATOM     11  C   UNL     1     -16.544   7.842  -1.489  0.00  0.00    +0.000 C 
ATOM     12  C   UNL     1     -17.331   5.435  -1.445  0.00  0.00    +0.000 C 
ATOM     13  C   UNL     1     -17.089   4.151  -3.608  0.00  0.00    +0.000 C 
ATOM     14  C   UNL     1     -17.780   8.692  -1.295  0.00  0.00    +0.000 C 
ATOM     15  C   UNL     1     -18.120   9.621  -2.423  0.00  0.00    +0.000 C 
ATOM     16  C   UNL     1     -17.786   4.327  -2.270  0.00  0.00    +0.000 C 
ATOM     17  C   UNL     1     -15.054   5.163  -3.544  0.00  0.00    +0.000 C 
ATOM     18  C   UNL     1     -15.582   8.218  -0.517  0.00  0.00    +0.000 C 
ATOM     19  C   UNL     1     -17.391   5.309   0.077  0.00  0.00    +0.000 C 
ATOM     20  C   UNL     1     -17.330   9.511  -0.040  0.00  0.00    +0.000 C 
ATOM     21  C   UNL     1     -15.938   9.110   0.346  0.00  0.00    +0.000 C 
ATOM     22  C   UNL     1     -14.974   9.925   1.145  0.00  0.00    +0.000 C 
ENDROOT
BRANCH  13  23
ATOM     23  C   UNL     1     -17.642   3.057  -4.551  0.00  0.00    +0.000 C 
ATOM     24  C   UNL     1     -17.373   1.563  -4.380  0.00  0.00    +0.000 C 
ATOM     25  C   UNL     1     -18.171   3.317  -5.764  0.00  0.00    +0.000 C 
ENDBRANCH  13  23
BRANCH  14  26
ATOM     26  O   UNL     1     -18.913   7.891  -1.034  0.00  0.00    +0.000 OA
ATOM     27  H   UNL     1     -19.384   8.293  -0.277  0.00  0.00    +0.000 HD
ENDBRANCH  14  26
BRANCH  15  28
ATOM     28  O   UNL     1     -18.911  10.730  -2.110  0.00  0.00    +0.000 OA
ATOM     29  H   UNL     1     -18.414  11.524  -1.818  0.00  0.00    +0.000 HD
ENDBRANCH  15  28
BRANCH  17  30
ATOM     30  C   UNL     1     -13.629   4.925  -3.747  0.00  0.00    +0.000 C 
ATOM     31  C   UNL     1     -12.457   4.729  -3.916  0.00  0.00    +0.000 C 
BRANCH  31  32
ATOM     32  C   UNL     1     -10.961   4.482  -4.131  0.00  0.00    +0.000 C 
ATOM     33  C   UNL     1      -9.789   4.288  -4.300  0.00  0.00    +0.000 C 
BRANCH  33  34
ATOM     34  C   UNL     1      -8.292   4.043  -4.513  0.00  0.00    +0.000 C 
ATOM     35  C   UNL     1      -6.796   3.800  -4.727  0.00  0.00    +0.000 C 
BRANCH  35  36
ATOM     36  C   UNL     1      -5.298   3.557  -4.940  0.00  0.00    +0.000 C 
ATOM     37  C   UNL     1      -3.800   3.313  -5.151  0.00  0.00    +0.000 C 
ATOM     38  C   UNL     1      -2.303   3.070  -5.362  0.00  0.00    +0.000 C 
ENDBRANCH  35  36
ENDBRANCH  33  34
ENDBRANCH  31  32
ENDBRANCH  17  30
BRANCH  16  39
ATOM     39  O   UNL     1     -18.788   3.488  -1.755  0.00  0.00    +0.000 OA
BRANCH  39  41
ATOM     40  O   UNL     1     -20.596   4.847  -1.352  0.00  0.00    +0.000 OA
ATOM     41  C   UNL     1     -20.060   3.938  -1.963  0.00  0.00    +0.000 C 
BRANCH  41  42
ATOM     42  C   UNL     1     -20.723   3.138  -3.009  0.00  0.00    +0.000 A 
ATOM     43  C   UNL     1     -20.722   1.744  -2.971  0.00  0.00    +0.000 A 
ATOM     44  C   UNL     1     -21.360   3.811  -4.050  0.00  0.00    +0.000 A 
ATOM     45  C   UNL     1     -21.361   1.023  -3.977  0.00  0.00    +0.000 A 
ATOM     46  C   UNL     1     -21.997   3.088  -5.055  0.00  0.00    +0.000 A 
ATOM     47  C   UNL     1     -21.998   1.695  -5.017  0.00  0.00    +0.000 A 
ENDBRANCH  41  42
ENDBRANCH  39  41
ENDBRANCH  16  39
BRANCH   9  48
ATOM     48  C   UNL     1     -18.332  10.266  -4.848  0.00  0.00    +0.000 C 
BRANCH  48  49
ATOM     49  O   UNL     1     -18.781  11.127  -5.757  0.00  0.00    +0.000 OA
ATOM     50  H   UNL     1     -18.092  11.778  -5.979  0.00  0.00    +0.000 HD
ENDBRANCH  48  49
ENDBRANCH   9  48
TORSDOF 12
ENDMDL
MODEL 2
REMARK VINA RESULT:      -5.4      4.377     10.699
REMARK  Name = 5358691_Yuanhuacine.pdbqt.pdb
REMARK  12 active torsions:
REMARK  status: ('A' for Active; 'I' for Inactive)
REMARK    1  A    between atoms: C_9  and  C_48
REMARK    2  A    between atoms: C_13  and  C_23
REMARK    3  A    between atoms: C_14  and  O_26
REMARK    4  A    between atoms: C_15  and  O_28
REMARK    5  A    between atoms: C_16  and  O_39
REMARK    6  A    between atoms: C_17  and  C_30
REMARK    7  A    between atoms: C_31  and  C_32
REMARK    8  A    between atoms: C_33  and  C_34
REMARK    9  A    between atoms: C_35  and  C_36
REMARK   10  A    between atoms: O_39  and  C_41
REMARK   11  A    between atoms: C_41  and  C_42
REMARK   12  A    between atoms: C_48  and  O_49
REMARK                            x       y       z     vdW  Elec       q    Type
REMARK                         _______ _______ _______ _____ _____    ______ ____
ROOT
ATOM      1  O   UNL     1     -20.141   9.590  -4.488  0.00  0.00    +0.000 OA
ATOM      2  O   UNL     1     -20.019   8.290  -1.239  0.00  0.00    +0.000 OA
ATOM      3  O   UNL     1     -18.823  10.326  -1.482  0.00  0.00    +0.000 OA
ATOM      4  O   UNL     1     -18.164   8.840   0.136  0.00  0.00    +0.000 OA
ATOM      5  O   UNL     1     -21.099   4.621  -5.718  0.00  0.00    +0.000 OA
ATOM      6  C   UNL     1     -18.481   8.732  -3.069  0.00  0.00    +0.000 C 
ATOM      7  C   UNL     1     -19.267   7.649  -2.315  0.00  0.00    +0.000 C 
ATOM      8  C   UNL     1     -18.811   9.282  -4.354  0.00  0.00    +0.000 C 
ATOM      9  C   UNL     1     -19.540   8.816  -5.534  0.00  0.00    +0.000 C 
ATOM     10  C   UNL     1     -17.816   9.542  -2.042  0.00  0.00    +0.000 C 
ATOM     11  C   UNL     1     -20.261   6.955  -3.195  0.00  0.00    +0.000 C 
ATOM     12  C   UNL     1     -18.252   6.649  -1.682  0.00  0.00    +0.000 C 
ATOM     13  C   UNL     1     -17.132   8.769  -0.888  0.00  0.00    +0.000 C 
ATOM     14  C   UNL     1     -19.861   6.395  -4.542  0.00  0.00    +0.000 C 
ATOM     15  C   UNL     1     -19.858   7.370  -5.682  0.00  0.00    +0.000 C 
ATOM     16  C   UNL     1     -17.042   7.283  -1.186  0.00  0.00    +0.000 C 
ATOM     17  C   UNL     1     -19.305   9.347  -0.553  0.00  0.00    +0.000 C 
ATOM     18  C   UNL     1     -21.468   6.331  -2.789  0.00  0.00    +0.000 C 
ATOM     19  C   UNL     1     -18.521   5.182  -1.346  0.00  0.00    +0.000 C 
ATOM     20  C   UNL     1     -21.008   5.348  -4.732  0.00  0.00    +0.000 C 
ATOM     21  C   UNL     1     -21.939   5.408  -3.558  0.00  0.00    +0.000 C 
ATOM     22  C   UNL     1     -23.362   4.953  -3.536  0.00  0.00    +0.000 C 
ENDROOT
BRANCH  13  23
ATOM     23  C   UNL     1     -15.823   9.486  -0.478  0.00  0.00    +0.000 C 
ATOM     24  C   UNL     1     -15.326   9.604   0.962  0.00  0.00    +0.000 C 
ATOM     25  C   UNL     1     -15.141  10.315  -1.295  0.00  0.00    +0.000 C 
ENDBRANCH  13  23
BRANCH  14  26
ATOM     26  O   UNL     1     -18.587   5.789  -4.484  0.00  0.00    +0.000 OA
ATOM     27  H   UNL     1     -18.241   5.754  -5.398  0.00  0.00    +0.000 HD
ENDBRANCH  14  26
BRANCH  15  28
ATOM     28  O   UNL     1     -19.983   6.836  -6.968  0.00  0.00    +0.000 OA
ATOM     29  H   UNL     1     -20.806   7.083  -7.441  0.00  0.00    +0.000 HD
ENDBRANCH  15  28
BRANCH  17  30
ATOM     30  C   UNL     1     -20.207   9.979   0.404  0.00  0.00    +0.000 C 
ATOM     31  C   UNL     1     -20.950  10.501   1.190  0.00  0.00    +0.000 C 
BRANCH  31  32
ATOM     32  C   UNL     1     -21.898  11.166   2.191  0.00  0.00    +0.000 C 
ATOM     33  C   UNL     1     -22.641  11.688   2.976  0.00  0.00    +0.000 C 
BRANCH  33  34
ATOM     34  C   UNL     1     -23.587  12.356   3.979  0.00  0.00    +0.000 C 
ATOM     35  C   UNL     1     -24.534  13.024   4.979  0.00  0.00    +0.000 C 
BRANCH  35  36
ATOM     36  C   UNL     1     -25.482  13.691   5.981  0.00  0.00    +0.000 C 
ATOM     37  C   UNL     1     -26.431  14.357   6.982  0.00  0.00    +0.000 C 
ATOM     38  C   UNL     1     -27.380  15.023   7.983  0.00  0.00    +0.000 C 
ENDBRANCH  35  36
ENDBRANCH  33  34
ENDBRANCH  31  32
ENDBRANCH  17  30
BRANCH  16  39
ATOM     39  O   UNL     1     -15.910   6.477  -0.979  0.00  0.00    +0.000 OA
BRANCH  39  41
ATOM     40  O   UNL     1     -15.076   7.011  -3.052  0.00  0.00    +0.000 OA
ATOM     41  C   UNL     1     -15.167   6.252  -2.102  0.00  0.00    +0.000 C 
BRANCH  41  42
ATOM     42  C   UNL     1     -14.515   4.932  -2.029  0.00  0.00    +0.000 A 
ATOM     43  C   UNL     1     -13.136   4.790  -2.179  0.00  0.00    +0.000 A 
ATOM     44  C   UNL     1     -15.315   3.813  -1.804  0.00  0.00    +0.000 A 
ATOM     45  C   UNL     1     -12.557   3.525  -2.102  0.00  0.00    +0.000 A 
ATOM     46  C   UNL     1     -14.733   2.550  -1.727  0.00  0.00    +0.000 A 
ATOM     47  C   UNL     1     -13.356   2.407  -1.876  0.00  0.00    +0.000 A 
ENDBRANCH  41  42
ENDBRANCH  39  41
ENDBRANCH  16  39
BRANCH   9  48
ATOM     48  C   UNL     1     -19.457   9.615  -6.749  0.00  0.00    +0.000 C 
BRANCH  48  49
ATOM     49  O   UNL     1     -19.374  10.345  -7.858  0.00  0.00    +0.000 OA
ATOM     50  H   UNL     1     -20.263  10.555  -8.194  0.00  0.00    +0.000 HD
ENDBRANCH  48  49
ENDBRANCH   9  48
TORSDOF 12
ENDMDL
MODEL 3
REMARK VINA RESULT:      -5.4     13.721     18.499
REMARK  Name = 5358691_Yuanhuacine.pdbqt.pdb
REMARK  12 active torsions:
REMARK  status: ('A' for Active; 'I' for Inactive)
REMARK    1  A    between atoms: C_9  and  C_48
REMARK    2  A    between atoms: C_13  and  C_23
REMARK    3  A    between atoms: C_14  and  O_26
REMARK    4  A    between atoms: C_15  and  O_28
REMARK    5  A    between atoms: C_16  and  O_39
REMARK    6  A    between atoms: C_17  and  C_30
REMARK    7  A    between atoms: C_31  and  C_32
REMARK    8  A    between atoms: C_33  and  C_34
REMARK    9  A    between atoms: C_35  and  C_36
REMARK   10  A    between atoms: O_39  and  C_41
REMARK   11  A    between atoms: C_41  and  C_42
REMARK   12  A    between atoms: C_48  and  O_49
REMARK                            x       y       z     vdW  Elec       q    Type
REMARK                         _______ _______ _______ _____ _____    ______ ____
ROOT
ATOM      1  O   UNL     1     -22.088  13.451   7.620  0.00  0.00    +0.000 OA
ATOM      2  O   UNL     1     -23.364  16.575   6.685  0.00  0.00    +0.000 OA
ATOM      3  O   UNL     1     -22.509  16.534   8.899  0.00  0.00    +0.000 OA
ATOM      4  O   UNL     1     -24.170  18.026   8.381  0.00  0.00    +0.000 OA
ATOM      5  O   UNL     1     -25.293  11.773   3.874  0.00  0.00    +0.000 OA
ATOM      6  C   UNL     1     -23.873  14.819   8.287  0.00  0.00    +0.000 C 
ATOM      7  C   UNL     1     -24.271  15.461   6.949  0.00  0.00    +0.000 C 
ATOM      8  C   UNL     1     -23.165  13.582   8.459  0.00  0.00    +0.000 C 
ATOM      9  C   UNL     1     -23.006  12.352   7.681  0.00  0.00    +0.000 C 
ATOM     10  C   UNL     1     -23.716  15.925   9.238  0.00  0.00    +0.000 C 
ATOM     11  C   UNL     1     -24.141  14.505   5.803  0.00  0.00    +0.000 C 
ATOM     12  C   UNL     1     -25.719  16.022   7.078  0.00  0.00    +0.000 C 
ATOM     13  C   UNL     1     -24.811  17.020   9.214  0.00  0.00    +0.000 C 
ATOM     14  C   UNL     1     -24.750  13.123   5.861  0.00  0.00    +0.000 C 
ATOM     15  C   UNL     1     -23.927  12.072   6.546  0.00  0.00    +0.000 C 
ATOM     16  C   UNL     1     -26.008  16.594   8.383  0.00  0.00    +0.000 C 
ATOM     17  C   UNL     1     -23.023  17.364   7.852  0.00  0.00    +0.000 C 
ATOM     18  C   UNL     1     -23.897  14.833   4.444  0.00  0.00    +0.000 C 
ATOM     19  C   UNL     1     -26.714  16.223   5.935  0.00  0.00    +0.000 C 
ATOM     20  C   UNL     1     -24.840  12.821   4.328  0.00  0.00    +0.000 C 
ATOM     21  C   UNL     1     -24.279  13.978   3.557  0.00  0.00    +0.000 C 
ATOM     22  C   UNL     1     -23.747  13.933   2.162  0.00  0.00    +0.000 C 
ENDROOT
BRANCH  13  23
ATOM     23  C   UNL     1     -25.092  17.514  10.653  0.00  0.00    +0.000 C 
ATOM     24  C   UNL     1     -25.303  18.980  11.029  0.00  0.00    +0.000 C 
ATOM     25  C   UNL     1     -24.900  16.756  11.752  0.00  0.00    +0.000 C 
ENDBRANCH  13  23
BRANCH  14  26
ATOM     26  O   UNL     1     -26.020  13.150   6.476  0.00  0.00    +0.000 OA
ATOM     27  H   UNL     1     -25.895  12.891   7.411  0.00  0.00    +0.000 HD
ENDBRANCH  14  26
BRANCH  15  28
ATOM     28  O   UNL     1     -24.191  10.743   6.206  0.00  0.00    +0.000 OA
ATOM     29  H   UNL     1     -25.037  10.387   6.554  0.00  0.00    +0.000 HD
ENDBRANCH  15  28
BRANCH  17  30
ATOM     30  C   UNL     1     -22.023  18.356   7.473  0.00  0.00    +0.000 C 
ATOM     31  C   UNL     1     -21.201  19.173   7.160  0.00  0.00    +0.000 C 
BRANCH  31  32
ATOM     32  C   UNL     1     -20.154  20.216   6.761  0.00  0.00    +0.000 C 
ATOM     33  C   UNL     1     -19.333  21.034   6.446  0.00  0.00    +0.000 C 
BRANCH  33  34
ATOM     34  C   UNL     1     -18.285  22.076   6.044  0.00  0.00    +0.000 C 
ATOM     35  C   UNL     1     -17.238  23.117   5.640  0.00  0.00    +0.000 C 
BRANCH  35  36
ATOM     36  C   UNL     1     -16.190  24.159   5.235  0.00  0.00    +0.000 C 
ATOM     37  C   UNL     1     -15.142  25.201   4.831  0.00  0.00    +0.000 C 
ATOM     38  C   UNL     1     -14.093  26.242   4.427  0.00  0.00    +0.000 C 
ENDBRANCH  35  36
ENDBRANCH  33  34
ENDBRANCH  31  32
ENDBRANCH  17  30
BRANCH  16  39
ATOM     39  O   UNL     1     -27.355  16.750   8.753  0.00  0.00    +0.000 OA
BRANCH  39  41
ATOM     40  O   UNL     1     -27.696  14.487   8.958  0.00  0.00    +0.000 OA
ATOM     41  C   UNL     1     -27.920  15.635   9.302  0.00  0.00    +0.000 C 
BRANCH  41  42
ATOM     42  C   UNL     1     -28.883  16.013  10.352  0.00  0.00    +0.000 A 
ATOM     43  C   UNL     1     -30.001  15.229  10.633  0.00  0.00    +0.000 A 
ATOM     44  C   UNL     1     -28.651  17.186  11.070  0.00  0.00    +0.000 A 
ATOM     45  C   UNL     1     -30.888  15.619  11.634  0.00  0.00    +0.000 A 
ATOM     46  C   UNL     1     -29.538  17.573  12.070  0.00  0.00    +0.000 A 
ATOM     47  C   UNL     1     -30.656  16.790  12.351  0.00  0.00    +0.000 A 
ENDBRANCH  41  42
ENDBRANCH  39  41
ENDBRANCH  16  39
BRANCH   9  48
ATOM     48  C   UNL     1     -22.366  11.214   8.326  0.00  0.00    +0.000 C 
BRANCH  48  49
ATOM     49  O   UNL     1     -21.783  10.171   8.910  0.00  0.00    +0.000 OA
ATOM     50  H   UNL     1     -20.845  10.117   8.655  0.00  0.00    +0.000 HD
ENDBRANCH  48  49
ENDBRANCH   9  48
TORSDOF 12
ENDMDL
MODEL 4
REMARK VINA RESULT:      -5.3      4.654     11.283
REMARK  Name = 5358691_Yuanhuacine.pdbqt.pdb
REMARK  12 active torsions:
REMARK  status: ('A' for Active; 'I' for Inactive)
REMARK    1  A    between atoms: C_9  and  C_48
REMARK    2  A    between atoms: C_13  and  C_23
REMARK    3  A    between atoms: C_14  and  O_26
REMARK    4  A    between atoms: C_15  and  O_28
REMARK    5  A    between atoms: C_16  and  O_39
REMARK    6  A    between atoms: C_17  and  C_30
REMARK    7  A    between atoms: C_31  and  C_32
REMARK    8  A    between atoms: C_33  and  C_34
REMARK    9  A    between atoms: C_35  and  C_36
REMARK   10  A    between atoms: O_39  and  C_41
REMARK   11  A    between atoms: C_41  and  C_42
REMARK   12  A    between atoms: C_48  and  O_49
REMARK                            x       y       z     vdW  Elec       q    Type
REMARK                         _______ _______ _______ _____ _____    ______ ____
ROOT
ATOM      1  O   UNL     1     -18.531   2.954  -4.764  0.00  0.00    +0.000 OA
ATOM      2  O   UNL     1     -19.922   4.491  -1.941  0.00  0.00    +0.000 OA
ATOM      3  O   UNL     1     -20.029   5.837  -3.893  0.00  0.00    +0.000 OA
ATOM      4  O   UNL     1     -19.962   6.861  -1.842  0.00  0.00    +0.000 OA
ATOM      5  O   UNL     1     -15.927   0.233  -1.168  0.00  0.00    +0.000 OA
ATOM      6  C   UNL     1     -18.040   4.829  -3.442  0.00  0.00    +0.000 C 
ATOM      7  C   UNL     1     -18.474   4.336  -2.054  0.00  0.00    +0.000 C 
ATOM      8  C   UNL     1     -17.675   4.007  -4.561  0.00  0.00    +0.000 C 
ATOM      9  C   UNL     1     -17.128   2.661  -4.734  0.00  0.00    +0.000 C 
ATOM     10  C   UNL     1     -18.691   6.131  -3.633  0.00  0.00    +0.000 C 
ATOM     11  C   UNL     1     -18.168   2.883  -1.850  0.00  0.00    +0.000 C 
ATOM     12  C   UNL     1     -17.795   5.231  -0.974  0.00  0.00    +0.000 C 
ATOM     13  C   UNL     1     -18.654   7.106  -2.432  0.00  0.00    +0.000 C 
ATOM     14  C   UNL     1     -16.795   2.321  -2.141  0.00  0.00    +0.000 C 
ATOM     15  C   UNL     1     -16.528   1.953  -3.571  0.00  0.00    +0.000 C 
ATOM     16  C   UNL     1     -17.695   6.630  -1.355  0.00  0.00    +0.000 C 
ATOM     17  C   UNL     1     -20.444   5.708  -2.528  0.00  0.00    +0.000 C 
ATOM     18  C   UNL     1     -18.851   1.982  -0.992  0.00  0.00    +0.000 C 
ATOM     19  C   UNL     1     -17.467   4.821   0.462  0.00  0.00    +0.000 C 
ATOM     20  C   UNL     1     -16.855   1.033  -1.256  0.00  0.00    +0.000 C 
ATOM     21  C   UNL     1     -18.194   0.948  -0.586  0.00  0.00    +0.000 C 
ATOM     22  C   UNL     1     -18.839  -0.291  -0.058  0.00  0.00    +0.000 C 
ENDROOT
BRANCH  13  23
ATOM     23  C   UNL     1     -18.481   8.558  -2.938  0.00  0.00    +0.000 C 
ATOM     24  C   UNL     1     -18.855   9.798  -2.128  0.00  0.00    +0.000 C 
ATOM     25  C   UNL     1     -18.255   8.874  -4.229  0.00  0.00    +0.000 C 
ENDBRANCH  13  23
BRANCH  14  26
ATOM     26  O   UNL     1     -15.780   3.210  -1.725  0.00  0.00    +0.000 OA
ATOM     27  H   UNL     1     -15.627   3.839  -2.458  0.00  0.00    +0.000 HD
ENDBRANCH  14  26
BRANCH  15  28
ATOM     28  O   UNL     1     -15.520   1.013  -3.802  0.00  0.00    +0.000 OA
ATOM     29  H   UNL     1     -14.626   1.391  -3.943  0.00  0.00    +0.000 HD
ENDBRANCH  15  28
BRANCH  17  30
ATOM     30  C   UNL     1     -21.902   5.676  -2.457  0.00  0.00    +0.000 C 
ATOM     31  C   UNL     1     -23.100   5.649  -2.397  0.00  0.00    +0.000 C 
BRANCH  31  32
ATOM     32  C   UNL     1     -24.629   5.617  -2.319  0.00  0.00    +0.000 C 
ATOM     33  C   UNL     1     -25.828   5.593  -2.259  0.00  0.00    +0.000 C 
BRANCH  33  34
ATOM     34  C   UNL     1     -27.357   5.564  -2.182  0.00  0.00    +0.000 C 
ATOM     35  C   UNL     1     -28.886   5.535  -2.104  0.00  0.00    +0.000 C 
BRANCH  35  36
ATOM     36  C   UNL     1     -30.416   5.508  -2.025  0.00  0.00    +0.000 C 
ATOM     37  C   UNL     1     -31.945   5.479  -1.946  0.00  0.00    +0.000 C 
ATOM     38  C   UNL     1     -33.475   5.449  -1.866  0.00  0.00    +0.000 C 
ENDBRANCH  35  36
ENDBRANCH  33  34
ENDBRANCH  31  32
ENDBRANCH  17  30
BRANCH  16  39
ATOM     39  O   UNL     1     -16.766   7.436  -0.676  0.00  0.00    +0.000 OA
BRANCH  39  41
ATOM     40  O   UNL     1     -14.860   6.670  -1.706  0.00  0.00    +0.000 OA
ATOM     41  C   UNL     1     -15.572   7.583  -1.322  0.00  0.00    +0.000 C 
BRANCH  41  42
ATOM     42  C   UNL     1     -15.233   9.011  -1.455  0.00  0.00    +0.000 A 
ATOM     43  C   UNL     1     -14.951   9.582  -2.696  0.00  0.00    +0.000 A 
ATOM     44  C   UNL     1     -15.202   9.792  -0.301  0.00  0.00    +0.000 A 
ATOM     45  C   UNL     1     -14.637  10.936  -2.781  0.00  0.00    +0.000 A 
ATOM     46  C   UNL     1     -14.889  11.146  -0.389  0.00  0.00    +0.000 A 
ATOM     47  C   UNL     1     -14.606  11.717  -1.628  0.00  0.00    +0.000 A 
ENDBRANCH  41  42
ENDBRANCH  39  41
ENDBRANCH  16  39
BRANCH   9  48
ATOM     48  C   UNL     1     -16.681   2.271  -6.065  0.00  0.00    +0.000 C 
BRANCH  48  49
ATOM     49  O   UNL     1     -16.268   1.918  -7.279  0.00  0.00    +0.000 OA
ATOM     50  H   UNL     1     -16.351   2.665  -7.897  0.00  0.00    +0.000 HD
ENDBRANCH  48  49
ENDBRANCH   9  48
TORSDOF 12
ENDMDL
MODEL 5
REMARK VINA RESULT:      -5.3     20.913     23.863
REMARK  Name = 5358691_Yuanhuacine.pdbqt.pdb
REMARK  12 active torsions:
REMARK  status: ('A' for Active; 'I' for Inactive)
REMARK    1  A    between atoms: C_9  and  C_48
REMARK    2  A    between atoms: C_13  and  C_23
REMARK    3  A    between atoms: C_14  and  O_26
REMARK    4  A    between atoms: C_15  and  O_28
REMARK    5  A    between atoms: C_16  and  O_39
REMARK    6  A    between atoms: C_17  and  C_30
REMARK    7  A    between atoms: C_31  and  C_32
REMARK    8  A    between atoms: C_33  and  C_34
REMARK    9  A    between atoms: C_35  and  C_36
REMARK   10  A    between atoms: O_39  and  C_41
REMARK   11  A    between atoms: C_41  and  C_42
REMARK   12  A    between atoms: C_48  and  O_49
REMARK                            x       y       z     vdW  Elec       q    Type
REMARK                         _______ _______ _______ _____ _____    ______ ____
ROOT
ATOM      1  O   UNL     1      -7.913   3.005  21.211  0.00  0.00    +0.000 OA
ATOM      2  O   UNL     1      -8.582   2.322  17.842  0.00  0.00    +0.000 OA
ATOM      3  O   UNL     1      -6.300   2.822  18.264  0.00  0.00    +0.000 OA
ATOM      4  O   UNL     1      -7.167   3.268  16.189  0.00  0.00    +0.000 OA
ATOM      5  O   UNL     1     -12.987   4.172  21.286  0.00  0.00    +0.000 OA
ATOM      6  C   UNL     1      -7.850   4.204  19.196  0.00  0.00    +0.000 C 
ATOM      7  C   UNL     1      -9.031   3.577  18.440  0.00  0.00    +0.000 C 
ATOM      8  C   UNL     1      -7.661   4.216  20.619  0.00  0.00    +0.000 C 
ATOM      9  C   UNL     1      -8.537   4.158  21.790  0.00  0.00    +0.000 C 
ATOM     10  C   UNL     1      -6.707   4.155  18.276  0.00  0.00    +0.000 C 
ATOM     11  C   UNL     1     -10.174   3.248  19.351  0.00  0.00    +0.000 C 
ATOM     12  C   UNL     1      -9.459   4.545  17.296  0.00  0.00    +0.000 C 
ATOM     13  C   UNL     1      -6.980   4.571  16.810  0.00  0.00    +0.000 C 
ATOM     14  C   UNL     1     -10.724   4.269  20.322  0.00  0.00    +0.000 C 
ATOM     15  C   UNL     1      -9.999   4.387  21.630  0.00  0.00    +0.000 C 
ATOM     16  C   UNL     1      -8.343   5.224  16.659  0.00  0.00    +0.000 C 
ATOM     17  C   UNL     1      -7.244   2.364  17.289  0.00  0.00    +0.000 C 
ATOM     18  C   UNL     1     -11.150   2.236  19.161  0.00  0.00    +0.000 C 
ATOM     19  C   UNL     1     -10.851   4.645  16.672  0.00  0.00    +0.000 C 
ATOM     20  C   UNL     1     -12.148   3.662  20.549  0.00  0.00    +0.000 C 
ATOM     21  C   UNL     1     -12.284   2.396  19.757  0.00  0.00    +0.000 C 
ATOM     22  C   UNL     1     -13.243   1.284  20.029  0.00  0.00    +0.000 C 
ENDROOT
BRANCH  13  23
ATOM     23  C   UNL     1      -5.763   5.341  16.246  0.00  0.00    +0.000 C 
ATOM     24  C   UNL     1      -5.307   5.276  14.789  0.00  0.00    +0.000 C 
ATOM     25  C   UNL     1      -4.821   5.915  17.021  0.00  0.00    +0.000 C 
ENDBRANCH  13  23
BRANCH  14  26
ATOM     26  O   UNL     1     -10.776   5.553  19.736  0.00  0.00    +0.000 OA
ATOM     27  H   UNL     1     -11.468   6.058  20.207  0.00  0.00    +0.000 HD
ENDBRANCH  14  26
BRANCH  15  28
ATOM     28  O   UNL     1     -10.718   4.918  22.704  0.00  0.00    +0.000 OA
ATOM     29  H   UNL     1     -11.256   5.710  22.491  0.00  0.00    +0.000 HD
ENDBRANCH  15  28
BRANCH  17  30
ATOM     30  C   UNL     1      -6.878   1.024  16.841  0.00  0.00    +0.000 C 
ATOM     31  C   UNL     1      -6.579  -0.078  16.472  0.00  0.00    +0.000 C 
BRANCH  31  32
ATOM     32  C   UNL     1      -6.197  -1.483  15.999  0.00  0.00    +0.000 C 
ATOM     33  C   UNL     1      -5.897  -2.585  15.627  0.00  0.00    +0.000 C 
BRANCH  33  34
ATOM     34  C   UNL     1      -5.516  -3.990  15.150  0.00  0.00    +0.000 C 
ATOM     35  C   UNL     1      -5.135  -5.394  14.675  0.00  0.00    +0.000 C 
BRANCH  35  36
ATOM     36  C   UNL     1      -4.755  -6.800  14.199  0.00  0.00    +0.000 C 
ATOM     37  C   UNL     1      -4.377  -8.206  13.723  0.00  0.00    +0.000 C 
ATOM     38  C   UNL     1      -3.999  -9.613  13.247  0.00  0.00    +0.000 C 
ENDBRANCH  35  36
ENDBRANCH  33  34
ENDBRANCH  31  32
ENDBRANCH  17  30
BRANCH  16  39
ATOM     39  O   UNL     1      -8.611   6.391  15.923  0.00  0.00    +0.000 OA
BRANCH  39  41
ATOM     40  O   UNL     1     -10.127   7.798  16.923  0.00  0.00    +0.000 OA
ATOM     41  C   UNL     1      -8.980   7.463  16.685  0.00  0.00    +0.000 C 
BRANCH  41  42
ATOM     42  C   UNL     1      -7.788   8.195  17.150  0.00  0.00    +0.000 A 
ATOM     43  C   UNL     1      -7.417   8.207  18.494  0.00  0.00    +0.000 A 
ATOM     44  C   UNL     1      -7.027   8.884  16.206  0.00  0.00    +0.000 A 
ATOM     45  C   UNL     1      -6.282   8.909  18.894  0.00  0.00    +0.000 A 
ATOM     46  C   UNL     1      -5.893   9.584  16.609  0.00  0.00    +0.000 A 
ATOM     47  C   UNL     1      -5.522   9.597  17.952  0.00  0.00    +0.000 A 
ENDBRANCH  41  42
ENDBRANCH  39  41
ENDBRANCH  16  39
BRANCH   9  48
ATOM     48  C   UNL     1      -7.951   4.429  23.096  0.00  0.00    +0.000 C 
BRANCH  48  49
ATOM     49  O   UNL     1      -7.421   4.679  24.290  0.00  0.00    +0.000 OA
ATOM     50  H   UNL     1      -6.669   4.086  24.459  0.00  0.00    +0.000 HD
ENDBRANCH  48  49
ENDBRANCH   9  48
TORSDOF 12
ENDMDL
MODEL 6
REMARK VINA RESULT:      -5.2     21.247     24.226
REMARK  Name = 5358691_Yuanhuacine.pdbqt.pdb
REMARK  12 active torsions:
REMARK  status: ('A' for Active; 'I' for Inactive)
REMARK    1  A    between atoms: C_9  and  C_48
REMARK    2  A    between atoms: C_13  and  C_23
REMARK    3  A    between atoms: C_14  and  O_26
REMARK    4  A    between atoms: C_15  and  O_28
REMARK    5  A    between atoms: C_16  and  O_39
REMARK    6  A    between atoms: C_17  and  C_30
REMARK    7  A    between atoms: C_31  and  C_32
REMARK    8  A    between atoms: C_33  and  C_34
REMARK    9  A    between atoms: C_35  and  C_36
REMARK   10  A    between atoms: O_39  and  C_41
REMARK   11  A    between atoms: C_41  and  C_42
REMARK   12  A    between atoms: C_48  and  O_49
REMARK                            x       y       z     vdW  Elec       q    Type
REMARK                         _______ _______ _______ _____ _____    ______ ____
ROOT
ATOM      1  O   UNL     1      -3.174   6.520  19.065  0.00  0.00    +0.000 OA
ATOM      2  O   UNL     1      -5.222   7.386  16.361  0.00  0.00    +0.000 OA
ATOM      3  O   UNL     1      -6.106   8.053  18.460  0.00  0.00    +0.000 OA
ATOM      4  O   UNL     1      -7.553   7.629  16.733  0.00  0.00    +0.000 OA
ATOM      5  O   UNL     1      -1.421   2.934  15.721  0.00  0.00    +0.000 OA
ATOM      6  C   UNL     1      -5.312   5.927  18.303  0.00  0.00    +0.000 C 
ATOM      7  C   UNL     1      -5.113   5.992  16.781  0.00  0.00    +0.000 C 
ATOM      8  C   UNL     1      -4.284   5.745  19.288  0.00  0.00    +0.000 C 
ATOM      9  C   UNL     1      -2.958   5.124  19.312  0.00  0.00    +0.000 C 
ATOM     10  C   UNL     1      -6.509   6.725  18.591  0.00  0.00    +0.000 C 
ATOM     11  C   UNL     1      -3.755   5.512  16.368  0.00  0.00    +0.000 C 
ATOM     12  C   UNL     1      -6.251   5.177  16.096  0.00  0.00    +0.000 C 
ATOM     13  C   UNL     1      -7.724   6.514  17.654  0.00  0.00    +0.000 C 
ATOM     14  C   UNL     1      -3.206   4.191  16.859  0.00  0.00    +0.000 C 
ATOM     15  C   UNL     1      -2.547   4.216  18.207  0.00  0.00    +0.000 C 
ATOM     16  C   UNL     1      -7.537   5.299  16.763  0.00  0.00    +0.000 C 
ATOM     17  C   UNL     1      -6.258   8.140  17.038  0.00  0.00    +0.000 C 
ATOM     18  C   UNL     1      -3.031   5.898  15.210  0.00  0.00    +0.000 C 
ATOM     19  C   UNL     1      -6.178   4.500  14.727  0.00  0.00    +0.000 C 
ATOM     20  C   UNL     1      -2.139   3.930  15.744  0.00  0.00    +0.000 C 
ATOM     21  C   UNL     1      -2.141   5.072  14.773  0.00  0.00    +0.000 C 
ATOM     22  C   UNL     1      -1.019   5.462  13.868  0.00  0.00    +0.000 C 
ENDROOT
BRANCH  13  23
ATOM     23  C   UNL     1      -9.036   6.596  18.467  0.00  0.00    +0.000 C 
ATOM     24  C   UNL     1     -10.401   6.919  17.862  0.00  0.00    +0.000 C 
ATOM     25  C   UNL     1      -9.075   6.674  19.813  0.00  0.00    +0.000 C 
ENDBRANCH  13  23
BRANCH  14  26
ATOM     26  O   UNL     1      -4.209   3.199  16.883  0.00  0.00    +0.000 OA
ATOM     27  H   UNL     1      -3.954   2.512  16.236  0.00  0.00    +0.000 HD
ENDBRANCH  14  26
BRANCH  15  28
ATOM     28  O   UNL     1      -1.627   3.200  18.478  0.00  0.00    +0.000 OA
ATOM     29  H   UNL     1      -1.299   2.717  17.689  0.00  0.00    +0.000 HD
ENDBRANCH  15  28
BRANCH  17  30
ATOM     30  C   UNL     1      -6.175   9.535  16.618  0.00  0.00    +0.000 C 
ATOM     31  C   UNL     1      -6.108  10.683  16.274  0.00  0.00    +0.000 C 
BRANCH  31  32
ATOM     32  C   UNL     1      -6.020  12.147  15.837  0.00  0.00    +0.000 C 
ATOM     33  C   UNL     1      -5.953  13.296  15.493  0.00  0.00    +0.000 C 
BRANCH  33  34
ATOM     34  C   UNL     1      -5.868  14.760  15.053  0.00  0.00    +0.000 C 
ATOM     35  C   UNL     1      -5.782  16.224  14.612  0.00  0.00    +0.000 C 
BRANCH  35  36
ATOM     36  C   UNL     1      -5.698  17.689  14.170  0.00  0.00    +0.000 C 
ATOM     37  C   UNL     1      -5.614  19.152  13.727  0.00  0.00    +0.000 C 
ATOM     38  C   UNL     1      -5.532  20.617  13.284  0.00  0.00    +0.000 C 
ENDBRANCH  35  36
ENDBRANCH  33  34
ENDBRANCH  31  32
ENDBRANCH  17  30
BRANCH  16  39
ATOM     39  O   UNL     1      -8.513   4.322  16.500  0.00  0.00    +0.000 OA
BRANCH  39  41
ATOM     40  O   UNL     1      -7.635   2.224  16.832  0.00  0.00    +0.000 OA
ATOM     41  C   UNL     1      -8.338   3.155  17.187  0.00  0.00    +0.000 C 
BRANCH  41  42
ATOM     42  C   UNL     1      -9.159   3.153  18.411  0.00  0.00    +0.000 A 
ATOM     43  C   UNL     1      -8.584   3.032  19.676  0.00  0.00    +0.000 A 
ATOM     44  C   UNL     1     -10.541   3.279  18.279  0.00  0.00    +0.000 A 
ATOM     45  C   UNL     1      -9.394   3.036  20.810  0.00  0.00    +0.000 A 
ATOM     46  C   UNL     1     -11.348   3.283  19.413  0.00  0.00    +0.000 A 
ATOM     47  C   UNL     1     -10.775   3.162  20.677  0.00  0.00    +0.000 A 
ENDBRANCH  41  42
ENDBRANCH  39  41
ENDBRANCH  16  39
BRANCH   9  48
ATOM     48  C   UNL     1      -2.309   4.950  20.604  0.00  0.00    +0.000 C 
BRANCH  48  49
ATOM     49  O   UNL     1      -1.711   4.787  21.782  0.00  0.00    +0.000 OA
ATOM     50  H   UNL     1      -1.144   3.997  21.769  0.00  0.00    +0.000 HD
ENDBRANCH  48  49
ENDBRANCH   9  48
TORSDOF 12
ENDMDL
MODEL 7
REMARK VINA RESULT:      -5.2      4.084      9.851
REMARK  Name = 5358691_Yuanhuacine.pdbqt.pdb
REMARK  12 active torsions:
REMARK  status: ('A' for Active; 'I' for Inactive)
REMARK    1  A    between atoms: C_9  and  C_48
REMARK    2  A    between atoms: C_13  and  C_23
REMARK    3  A    between atoms: C_14  and  O_26
REMARK    4  A    between atoms: C_15  and  O_28
REMARK    5  A    between atoms: C_16  and  O_39
REMARK    6  A    between atoms: C_17  and  C_30
REMARK    7  A    between atoms: C_31  and  C_32
REMARK    8  A    between atoms: C_33  and  C_34
REMARK    9  A    between atoms: C_35  and  C_36
REMARK   10  A    between atoms: O_39  and  C_41
REMARK   11  A    between atoms: C_41  and  C_42
REMARK   12  A    between atoms: C_48  and  O_49
REMARK                            x       y       z     vdW  Elec       q    Type
REMARK                         _______ _______ _______ _____ _____    ______ ____
ROOT
ATOM      1  O   UNL     1     -16.855   2.263  -5.822  0.00  0.00    +0.000 OA
ATOM      2  O   UNL     1     -15.933   2.342  -2.445  0.00  0.00    +0.000 OA
ATOM      3  O   UNL     1     -18.095   3.233  -2.849  0.00  0.00    +0.000 OA
ATOM      4  O   UNL     1     -16.906   3.988  -1.040  0.00  0.00    +0.000 OA
ATOM      5  O   UNL     1     -11.698   2.153  -6.533  0.00  0.00    +0.000 OA
ATOM      6  C   UNL     1     -16.419   3.925  -4.225  0.00  0.00    +0.000 C 
ATOM      7  C   UNL     1     -15.310   3.258  -3.398  0.00  0.00    +0.000 C 
ATOM      8  C   UNL     1     -16.775   3.611  -5.579  0.00  0.00    +0.000 C 
ATOM      9  C   UNL     1     -16.081   3.048  -6.739  0.00  0.00    +0.000 C 
ATOM     10  C   UNL     1     -17.425   4.385  -3.260  0.00  0.00    +0.000 C 
ATOM     11  C   UNL     1     -14.382   2.446  -4.248  0.00  0.00    +0.000 C 
ATOM     12  C   UNL     1     -14.553   4.362  -2.600  0.00  0.00    +0.000 C 
ATOM     13  C   UNL     1     -16.893   5.091  -1.989  0.00  0.00    +0.000 C 
ATOM     14  C   UNL     1     -13.755   3.022  -5.498  0.00  0.00    +0.000 C 
ATOM     15  C   UNL     1     -14.596   2.962  -6.739  0.00  0.00    +0.000 C 
ATOM     16  C   UNL     1     -15.417   5.424  -2.111  0.00  0.00    +0.000 C 
ATOM     17  C   UNL     1     -17.154   2.837  -1.844  0.00  0.00    +0.000 C 
ATOM     18  C   UNL     1     -13.621   1.319  -3.842  0.00  0.00    +0.000 C 
ATOM     19  C   UNL     1     -13.104   4.293  -2.115  0.00  0.00    +0.000 C 
ATOM     20  C   UNL     1     -12.527   2.062  -5.632  0.00  0.00    +0.000 C 
ATOM     21  C   UNL     1     -12.561   1.049  -4.527  0.00  0.00    +0.000 C 
ATOM     22  C   UNL     1     -11.894  -0.287  -4.534  0.00  0.00    +0.000 C 
ENDROOT
BRANCH  13  23
ATOM     23  C   UNL     1     -17.844   6.244  -1.590  0.00  0.00    +0.000 C 
ATOM     24  C   UNL     1     -18.655   7.070  -2.587  0.00  0.00    +0.000 C 
ATOM     25  C   UNL     1     -17.843   6.823  -0.372  0.00  0.00    +0.000 C 
ENDBRANCH  13  23
BRANCH  14  26
ATOM     26  O   UNL     1     -13.366   4.365  -5.301  0.00  0.00    +0.000 OA
ATOM     27  H   UNL     1     -13.366   4.799  -6.177  0.00  0.00    +0.000 HD
ENDBRANCH  14  26
BRANCH  15  28
ATOM     28  O   UNL     1     -13.919   3.013  -7.961  0.00  0.00    +0.000 OA
ATOM     29  H   UNL     1     -14.322   2.480  -8.680  0.00  0.00    +0.000 HD
ENDBRANCH  15  28
BRANCH  17  30
ATOM     30  C   UNL     1     -17.732   1.783  -1.017  0.00  0.00    +0.000 C 
ATOM     31  C   UNL     1     -18.210   0.917  -0.336  0.00  0.00    +0.000 C 
BRANCH  31  32
ATOM     32  C   UNL     1     -18.819  -0.188   0.531  0.00  0.00    +0.000 C 
ATOM     33  C   UNL     1     -19.298  -1.053   1.211  0.00  0.00    +0.000 C 
BRANCH  33  34
ATOM     34  C   UNL     1     -19.907  -2.157   2.082  0.00  0.00    +0.000 C 
ATOM     35  C   UNL     1     -20.516  -3.260   2.951  0.00  0.00    +0.000 C 
BRANCH  35  36
ATOM     36  C   UNL     1     -21.124  -4.365   3.821  0.00  0.00    +0.000 C 
ATOM     37  C   UNL     1     -21.731  -5.470   4.691  0.00  0.00    +0.000 C 
ATOM     38  C   UNL     1     -22.337  -6.574   5.563  0.00  0.00    +0.000 C 
ENDBRANCH  35  36
ENDBRANCH  33  34
ENDBRANCH  31  32
ENDBRANCH  17  30
BRANCH  16  39
ATOM     39  O   UNL     1     -14.824   6.646  -1.751  0.00  0.00    +0.000 OA
BRANCH  39  41
ATOM     40  O   UNL     1     -15.146   7.501  -3.860  0.00  0.00    +0.000 OA
ATOM     41  C   UNL     1     -15.011   7.650  -2.657  0.00  0.00    +0.000 C 
BRANCH  41  42
ATOM     42  C   UNL     1     -14.983   8.961  -1.982  0.00  0.00    +0.000 A 
ATOM     43  C   UNL     1     -15.118   9.072  -0.599  0.00  0.00    +0.000 A 
ATOM     44  C   UNL     1     -14.814  10.102  -2.764  0.00  0.00    +0.000 A 
ATOM     45  C   UNL     1     -15.085  10.328   0.003  0.00  0.00    +0.000 A 
ATOM     46  C   UNL     1     -14.781  11.357  -2.160  0.00  0.00    +0.000 A 
ATOM     47  C   UNL     1     -14.916  11.469  -0.778  0.00  0.00    +0.000 A 
ENDBRANCH  41  42
ENDBRANCH  39  41
ENDBRANCH  16  39
BRANCH   9  48
ATOM     48  C   UNL     1     -16.754   3.099  -8.029  0.00  0.00    +0.000 C 
BRANCH  48  49
ATOM     49  O   UNL     1     -17.374   3.143  -9.205  0.00  0.00    +0.000 OA
ATOM     50  H   UNL     1     -18.165   2.576  -9.195  0.00  0.00    +0.000 HD
ENDBRANCH  48  49
ENDBRANCH   9  48
TORSDOF 12
ENDMDL
MODEL 8
REMARK VINA RESULT:      -5.1     23.413     27.044
REMARK  Name = 5358691_Yuanhuacine.pdbqt.pdb
REMARK  12 active torsions:
REMARK  status: ('A' for Active; 'I' for Inactive)
REMARK    1  A    between atoms: C_9  and  C_48
REMARK    2  A    between atoms: C_13  and  C_23
REMARK    3  A    between atoms: C_14  and  O_26
REMARK    4  A    between atoms: C_15  and  O_28
REMARK    5  A    between atoms: C_16  and  O_39
REMARK    6  A    between atoms: C_17  and  C_30
REMARK    7  A    between atoms: C_31  and  C_32
REMARK    8  A    between atoms: C_33  and  C_34
REMARK    9  A    between atoms: C_35  and  C_36
REMARK   10  A    between atoms: O_39  and  C_41
REMARK   11  A    between atoms: C_41  and  C_42
REMARK   12  A    between atoms: C_48  and  O_49
REMARK                            x       y       z     vdW  Elec       q    Type
REMARK                         _______ _______ _______ _____ _____    ______ ____
ROOT
ATOM      1  O   UNL     1     -11.407   3.450  25.461  0.00  0.00    +0.000 OA
ATOM      2  O   UNL     1     -12.832   1.586  22.861  0.00  0.00    +0.000 OA
ATOM      3  O   UNL     1     -10.473   1.360  22.996  0.00  0.00    +0.000 OA
ATOM      4  O   UNL     1     -11.499   1.078  20.965  0.00  0.00    +0.000 OA
ATOM      5  O   UNL     1     -15.754   6.267  24.920  0.00  0.00    +0.000 OA
ATOM      6  C   UNL     1     -11.317   3.470  23.116  0.00  0.00    +0.000 C 
ATOM      7  C   UNL     1     -12.748   3.041  22.761  0.00  0.00    +0.000 C 
ATOM      8  C   UNL     1     -10.890   4.067  24.350  0.00  0.00    +0.000 C 
ATOM      9  C   UNL     1     -11.523   4.877  25.393  0.00  0.00    +0.000 C 
ATOM     10  C   UNL     1     -10.426   2.593  22.347  0.00  0.00    +0.000 C 
ATOM     11  C   UNL     1     -13.760   3.607  23.709  0.00  0.00    +0.000 C 
ATOM     12  C   UNL     1     -13.038   3.453  21.286  0.00  0.00    +0.000 C 
ATOM     13  C   UNL     1     -10.803   2.352  20.865  0.00  0.00    +0.000 C 
ATOM     14  C   UNL     1     -13.780   5.081  24.047  0.00  0.00    +0.000 C 
ATOM     15  C   UNL     1     -12.840   5.518  25.132  0.00  0.00    +0.000 C 
ATOM     16  C   UNL     1     -11.892   3.305  20.403  0.00  0.00    +0.000 C 
ATOM     17  C   UNL     1     -11.667   0.880  22.367  0.00  0.00    +0.000 C 
ATOM     18  C   UNL     1     -15.024   3.053  24.036  0.00  0.00    +0.000 C 
ATOM     19  C   UNL     1     -14.412   3.749  20.685  0.00  0.00    +0.000 C 
ATOM     20  C   UNL     1     -15.262   5.209  24.534  0.00  0.00    +0.000 C 
ATOM     21  C   UNL     1     -15.928   3.868  24.468  0.00  0.00    +0.000 C 
ATOM     22  C   UNL     1     -17.128   3.439  25.246  0.00  0.00    +0.000 C 
ENDROOT
BRANCH  13  23
ATOM     23  C   UNL     1      -9.521   2.276  20.002  0.00  0.00    +0.000 C 
ATOM     24  C   UNL     1      -8.381   3.291  20.069  0.00  0.00    +0.000 C 
ATOM     25  C   UNL     1      -9.401   1.486  18.915  0.00  0.00    +0.000 C 
ENDBRANCH  13  23
BRANCH  14  26
ATOM     26  O   UNL     1     -13.522   5.871  22.905  0.00  0.00    +0.000 OA
ATOM     27  H   UNL     1     -14.277   6.483  22.799  0.00  0.00    +0.000 HD
ENDBRANCH  14  26
BRANCH  15  28
ATOM     28  O   UNL     1     -13.156   6.703  25.801  0.00  0.00    +0.000 OA
ATOM     29  H   UNL     1     -13.321   7.476  25.219  0.00  0.00    +0.000 HD
ENDBRANCH  15  28
BRANCH  17  30
ATOM     30  C   UNL     1     -11.830  -0.544  22.640  0.00  0.00    +0.000 C 
ATOM     31  C   UNL     1     -11.962  -1.716  22.862  0.00  0.00    +0.000 C 
BRANCH  31  32
ATOM     32  C   UNL     1     -12.130  -3.211  23.146  0.00  0.00    +0.000 C 
ATOM     33  C   UNL     1     -12.262  -4.383  23.368  0.00  0.00    +0.000 C 
BRANCH  33  34
ATOM     34  C   UNL     1     -12.433  -5.879  23.652  0.00  0.00    +0.000 C 
ATOM     35  C   UNL     1     -12.605  -7.373  23.936  0.00  0.00    +0.000 C 
BRANCH  35  36
ATOM     36  C   UNL     1     -12.779  -8.869  24.219  0.00  0.00    +0.000 C 
ATOM     37  C   UNL     1     -12.950 -10.365  24.502  0.00  0.00    +0.000 C 
ATOM     38  C   UNL     1     -13.121 -11.861  24.785  0.00  0.00    +0.000 C 
ENDBRANCH  35  36
ENDBRANCH  33  34
ENDBRANCH  31  32
ENDBRANCH  17  30
BRANCH  16  39
ATOM     39  O   UNL     1     -11.898   4.008  19.187  0.00  0.00    +0.000 OA
BRANCH  39  41
ATOM     40  O   UNL     1     -11.573   6.031  20.228  0.00  0.00    +0.000 OA
ATOM     41  C   UNL     1     -11.424   5.286  19.274  0.00  0.00    +0.000 C 
BRANCH  41  42
ATOM     42  C   UNL     1     -10.738   5.664  18.026  0.00  0.00    +0.000 A 
ATOM     43  C   UNL     1     -10.178   6.930  17.855  0.00  0.00    +0.000 A 
ATOM     44  C   UNL     1     -10.657   4.718  17.005  0.00  0.00    +0.000 A 
ATOM     45  C   UNL     1      -9.536   7.249  16.660  0.00  0.00    +0.000 A 
ATOM     46  C   UNL     1     -10.014   5.039  15.812  0.00  0.00    +0.000 A 
ATOM     47  C   UNL     1      -9.455   6.303  15.641  0.00  0.00    +0.000 A 
ENDBRANCH  41  42
ENDBRANCH  39  41
ENDBRANCH  16  39
BRANCH   9  48
ATOM     48  C   UNL     1     -10.664   5.487  26.400  0.00  0.00    +0.000 C 
BRANCH  48  49
ATOM     49  O   UNL     1      -9.877   6.045  27.315  0.00  0.00    +0.000 OA
ATOM     50  H   UNL     1     -10.088   6.989  27.415  0.00  0.00    +0.000 HD
ENDBRANCH  48  49
ENDBRANCH   9  48
TORSDOF 12
ENDMDL
MODEL 9
REMARK VINA RESULT:      -5.0     13.096     19.253
REMARK  Name = 5358691_Yuanhuacine.pdbqt.pdb
REMARK  12 active torsions:
REMARK  status: ('A' for Active; 'I' for Inactive)
REMARK    1  A    between atoms: C_9  and  C_48
REMARK    2  A    between atoms: C_13  and  C_23
REMARK    3  A    between atoms: C_14  and  O_26
REMARK    4  A    between atoms: C_15  and  O_28
REMARK    5  A    between atoms: C_16  and  O_39
REMARK    6  A    between atoms: C_17  and  C_30
REMARK    7  A    between atoms: C_31  and  C_32
REMARK    8  A    between atoms: C_33  and  C_34
REMARK    9  A    between atoms: C_35  and  C_36
REMARK   10  A    between atoms: O_39  and  C_41
REMARK   11  A    between atoms: C_41  and  C_42
REMARK   12  A    between atoms: C_48  and  O_49
REMARK                            x       y       z     vdW  Elec       q    Type
REMARK                         _______ _______ _______ _____ _____    ______ ____
ROOT
ATOM      1  O   UNL     1     -24.520  12.619   8.403  0.00  0.00    +0.000 OA
ATOM      2  O   UNL     1     -26.571  15.263   7.373  0.00  0.00    +0.000 OA
ATOM      3  O   UNL     1     -26.814  13.313   6.043  0.00  0.00    +0.000 OA
ATOM      4  O   UNL     1     -27.248  15.358   5.101  0.00  0.00    +0.000 OA
ATOM      5  O   UNL     1     -21.703  16.490  10.453  0.00  0.00    +0.000 OA
ATOM      6  C   UNL     1     -24.691  13.989   6.506  0.00  0.00    +0.000 C 
ATOM      7  C   UNL     1     -25.130  15.318   7.139  0.00  0.00    +0.000 C 
ATOM      8  C   UNL     1     -24.001  12.919   7.169  0.00  0.00    +0.000 C 
ATOM      9  C   UNL     1     -23.101  12.809   8.319  0.00  0.00    +0.000 C 
ATOM     10  C   UNL     1     -25.639  13.724   5.417  0.00  0.00    +0.000 C 
ATOM     11  C   UNL     1     -24.476  15.555   8.466  0.00  0.00    +0.000 C 
ATOM     12  C   UNL     1     -24.836  16.469   6.131  0.00  0.00    +0.000 C 
ATOM     13  C   UNL     1     -25.995  14.922   4.503  0.00  0.00    +0.000 C 
ATOM     14  C   UNL     1     -22.980  15.423   8.638  0.00  0.00    +0.000 C 
ATOM     15  C   UNL     1     -22.468  14.033   8.880  0.00  0.00    +0.000 C 
ATOM     16  C   UNL     1     -25.069  16.102   4.743  0.00  0.00    +0.000 C 
ATOM     17  C   UNL     1     -27.329  14.621   6.319  0.00  0.00    +0.000 C 
ATOM     18  C   UNL     1     -24.986  16.328   9.540  0.00  0.00    +0.000 C 
ATOM     19  C   UNL     1     -24.572  17.933   6.483  0.00  0.00    +0.000 C 
ATOM     20  C   UNL     1     -22.794  16.296   9.923  0.00  0.00    +0.000 C 
ATOM     21  C   UNL     1     -24.129  16.807  10.378  0.00  0.00    +0.000 C 
ATOM     22  C   UNL     1     -24.477  17.258  11.758  0.00  0.00    +0.000 C 
ENDROOT
BRANCH  13  23
ATOM     23  C   UNL     1     -26.156  14.440   3.042  0.00  0.00    +0.000 C 
ATOM     24  C   UNL     1     -26.882  15.229   1.954  0.00  0.00    +0.000 C 
ATOM     25  C   UNL     1     -25.930  13.170   2.648  0.00  0.00    +0.000 C 
ENDBRANCH  13  23
BRANCH  14  26
ATOM     26  O   UNL     1     -22.289  15.954   7.527  0.00  0.00    +0.000 OA
ATOM     27  H   UNL     1     -22.854  16.651   7.140  0.00  0.00    +0.000 HD
ENDBRANCH  14  26
BRANCH  15  28
ATOM     28  O   UNL     1     -21.228  13.919   9.514  0.00  0.00    +0.000 OA
ATOM     29  H   UNL     1     -20.679  13.163   9.216  0.00  0.00    +0.000 HD
ENDBRANCH  15  28
BRANCH  17  30
ATOM     30  C   UNL     1     -28.724  14.524   6.735  0.00  0.00    +0.000 C 
ATOM     31  C   UNL     1     -29.871  14.444   7.079  0.00  0.00    +0.000 C 
BRANCH  31  32
ATOM     32  C   UNL     1     -31.334  14.343   7.519  0.00  0.00    +0.000 C 
ATOM     33  C   UNL     1     -32.482  14.264   7.864  0.00  0.00    +0.000 C 
BRANCH  33  34
ATOM     34  C   UNL     1     -33.946  14.166   8.302  0.00  0.00    +0.000 C 
ATOM     35  C   UNL     1     -35.410  14.068   8.739  0.00  0.00    +0.000 C 
BRANCH  35  36
ATOM     36  C   UNL     1     -36.875  13.969   9.176  0.00  0.00    +0.000 C 
ATOM     37  C   UNL     1     -38.340  13.870   9.612  0.00  0.00    +0.000 C 
ATOM     38  C   UNL     1     -39.806  13.771  10.047  0.00  0.00    +0.000 C 
ENDBRANCH  35  36
ENDBRANCH  33  34
ENDBRANCH  31  32
ENDBRANCH  17  30
BRANCH  16  39
ATOM     39  O   UNL     1     -24.467  16.883   3.742  0.00  0.00    +0.000 OA
BRANCH  39  41
ATOM     40  O   UNL     1     -22.255  17.441   4.019  0.00  0.00    +0.000 OA
ATOM     41  C   UNL     1     -23.122  16.688   3.610  0.00  0.00    +0.000 C 
BRANCH  41  42
ATOM     42  C   UNL     1     -22.857  15.449   2.857  0.00  0.00    +0.000 A 
ATOM     43  C   UNL     1     -22.339  14.313   3.479  0.00  0.00    +0.000 A 
ATOM     44  C   UNL     1     -23.139  15.433   1.492  0.00  0.00    +0.000 A 
ATOM     45  C   UNL     1     -22.103  13.160   2.733  0.00  0.00    +0.000 A 
ATOM     46  C   UNL     1     -22.903  14.279   0.749  0.00  0.00    +0.000 A 
ATOM     47  C   UNL     1     -22.385  13.144   1.370  0.00  0.00    +0.000 A 
ENDBRANCH  41  42
ENDBRANCH  39  41
ENDBRANCH  16  39
BRANCH   9  48
ATOM     48  C   UNL     1     -22.423  11.539   8.537  0.00  0.00    +0.000 C 
BRANCH  48  49
ATOM     49  O   UNL     1     -21.805  10.379   8.742  0.00  0.00    +0.000 OA
ATOM     50  H   UNL     1     -22.171   9.691   8.160  0.00  0.00    +0.000 HD
ENDBRANCH  48  49
ENDBRANCH   9  48
TORSDOF 12
ENDMDL
