MODEL 1
REMARK VINA RESULT:      -5.1      0.000      0.000
REMARK  Name = 5386_Tegafur.pdbqt.pdb
REMARK  1 active torsions:
REMARK  status: ('A' for Active; 'I' for Inactive)
REMARK    1  A    between atoms: N_4  and  C_12
REMARK                            x       y       z     vdW  Elec       q    Type
REMARK                         _______ _______ _______ _____ _____    ______ ____
ROOT
ATOM      1  F   UNL     1     -21.461  16.893   8.569  0.00  0.00    +0.000 F 
ATOM      2  O   UNL     1     -23.809  12.901  11.408  0.00  0.00    +0.000 OA
ATOM      3  O   UNL     1     -22.622  17.327  11.112  0.00  0.00    +0.000 OA
ATOM      4  N   UNL     1     -22.904  13.672   9.362  0.00  0.00    +0.000 N 
ATOM      5  N   UNL     1     -23.275  15.120  11.176  0.00  0.00    +0.000 N 
ATOM      6  C   UNL     1     -23.370  13.794  10.692  0.00  0.00    +0.000 C 
ATOM      7  C   UNL     1     -22.449  14.792   8.764  0.00  0.00    +0.000 C 
ATOM      8  C   UNL     1     -22.328  16.026   9.118  0.00  0.00    +0.000 C 
ATOM      9  C   UNL     1     -22.746  16.250  10.540  0.00  0.00    +0.000 C 
ATOM     10  H   UNL     1     -23.560  15.248  12.137  0.00  0.00    +0.000 HD
ENDROOT
BRANCH   4  12
ATOM     11  O   UNL     1     -21.986  11.465   8.946  0.00  0.00    +0.000 OA
ATOM     12  C   UNL     1     -22.888  12.498   8.667  0.00  0.00    +0.000 C 
ATOM     13  C   UNL     1     -23.710  12.090   7.582  0.00  0.00    +0.000 C 
ATOM     14  C   UNL     1     -23.551  10.727   6.907  0.00  0.00    +0.000 C 
ATOM     15  C   UNL     1     -22.462  10.672   7.977  0.00  0.00    +0.000 C 
ENDBRANCH   4  12
TORSDOF 1
ENDMDL
MODEL 2
REMARK VINA RESULT:      -4.5      9.266      9.963
REMARK  Name = 5386_Tegafur.pdbqt.pdb
REMARK  1 active torsions:
REMARK  status: ('A' for Active; 'I' for Inactive)
REMARK    1  A    between atoms: N_4  and  C_12
REMARK                            x       y       z     vdW  Elec       q    Type
REMARK                         _______ _______ _______ _____ _____    ______ ____
ROOT
ATOM      1  F   UNL     1     -25.867   9.711  19.140  0.00  0.00    +0.000 F 
ATOM      2  O   UNL     1     -24.144   7.260  14.610  0.00  0.00    +0.000 OA
ATOM      3  O   UNL     1     -27.605   9.116  16.989  0.00  0.00    +0.000 OA
ATOM      4  N   UNL     1     -23.630   8.360  16.640  0.00  0.00    +0.000 N 
ATOM      5  N   UNL     1     -25.822   8.276  15.798  0.00  0.00    +0.000 N 
ATOM      6  C   UNL     1     -24.471   7.908  15.598  0.00  0.00    +0.000 C 
ATOM      7  C   UNL     1     -24.209   9.050  17.644  0.00  0.00    +0.000 C 
ATOM      8  C   UNL     1     -25.412   9.432  17.908  0.00  0.00    +0.000 C 
ATOM      9  C   UNL     1     -26.395   8.951  16.884  0.00  0.00    +0.000 C 
ATOM     10  H   UNL     1     -26.468   7.941  15.098  0.00  0.00    +0.000 HD
ENDROOT
BRANCH   4  12
ATOM     11  O   UNL     1     -21.736   6.899  17.051  0.00  0.00    +0.000 OA
ATOM     12  C   UNL     1     -22.285   8.133  16.684  0.00  0.00    +0.000 C 
ATOM     13  C   UNL     1     -21.217   9.027  16.399  0.00  0.00    +0.000 C 
ATOM     14  C   UNL     1     -19.750   8.606  16.506  0.00  0.00    +0.000 C 
ATOM     15  C   UNL     1     -20.473   7.321  16.906  0.00  0.00    +0.000 C 
ENDBRANCH   4  12
TORSDOF 1
ENDMDL
MODEL 3
REMARK VINA RESULT:      -4.4      2.611      3.697
REMARK  Name = 5386_Tegafur.pdbqt.pdb
REMARK  1 active torsions:
REMARK  status: ('A' for Active; 'I' for Inactive)
REMARK    1  A    between atoms: N_4  and  C_12
REMARK                            x       y       z     vdW  Elec       q    Type
REMARK                         _______ _______ _______ _____ _____    ______ ____
ROOT
ATOM      1  F   UNL     1     -23.987  14.538   6.325  0.00  0.00    +0.000 F 
ATOM      2  O   UNL     1     -21.789  10.151   8.653  0.00  0.00    +0.000 OA
ATOM      3  O   UNL     1     -22.262  14.716   8.559  0.00  0.00    +0.000 OA
ATOM      4  N   UNL     1     -23.366  11.071   7.150  0.00  0.00    +0.000 N 
ATOM      5  N   UNL     1     -22.126  12.419   8.622  0.00  0.00    +0.000 N 
ATOM      6  C   UNL     1     -22.388  11.104   8.171  0.00  0.00    +0.000 C 
ATOM      7  C   UNL     1     -23.890  12.251   6.760  0.00  0.00    +0.000 C 
ATOM      8  C   UNL     1     -23.719  13.481   7.109  0.00  0.00    +0.000 C 
ATOM      9  C   UNL     1     -22.655  13.629   8.154  0.00  0.00    +0.000 C 
ATOM     10  H   UNL     1     -21.405  12.496   9.325  0.00  0.00    +0.000 HD
ENDROOT
BRANCH   4  12
ATOM     11  O   UNL     1     -23.668   8.663   7.137  0.00  0.00    +0.000 OA
ATOM     12  C   UNL     1     -23.796   9.925   6.546  0.00  0.00    +0.000 C 
ATOM     13  C   UNL     1     -24.413   9.761   5.277  0.00  0.00    +0.000 C 
ATOM     14  C   UNL     1     -24.830   8.389   4.743  0.00  0.00    +0.000 C 
ATOM     15  C   UNL     1     -24.232   8.027   6.102  0.00  0.00    +0.000 C 
ENDBRANCH   4  12
TORSDOF 1
ENDMDL
MODEL 4
REMARK VINA RESULT:      -4.1     19.045     20.333
REMARK  Name = 5386_Tegafur.pdbqt.pdb
REMARK  1 active torsions:
REMARK  status: ('A' for Active; 'I' for Inactive)
REMARK    1  A    between atoms: N_4  and  C_12
REMARK                            x       y       z     vdW  Elec       q    Type
REMARK                         _______ _______ _______ _____ _____    ______ ____
ROOT
ATOM      1  F   UNL     1      -7.147   1.040  17.399  0.00  0.00    +0.000 F 
ATOM      2  O   UNL     1      -5.619   5.107  14.140  0.00  0.00    +0.000 OA
ATOM      3  O   UNL     1      -5.399   0.648  15.210  0.00  0.00    +0.000 OA
ATOM      4  N   UNL     1      -7.050   4.304  15.844  0.00  0.00    +0.000 N 
ATOM      5  N   UNL     1      -5.610   2.874  14.659  0.00  0.00    +0.000 N 
ATOM      6  C   UNL     1      -6.071   4.200  14.829  0.00  0.00    +0.000 C 
ATOM      7  C   UNL     1      -7.393   3.170  16.488  0.00  0.00    +0.000 C 
ATOM      8  C   UNL     1      -7.035   1.933  16.403  0.00  0.00    +0.000 C 
ATOM      9  C   UNL     1      -5.954   1.726  15.386  0.00  0.00    +0.000 C 
ATOM     10  H   UNL     1      -4.881   2.756  13.970  0.00  0.00    +0.000 HD
ENDROOT
BRANCH   4  12
ATOM     11  O   UNL     1      -7.001   6.462  16.953  0.00  0.00    +0.000 OA
ATOM     12  C   UNL     1      -7.651   5.475  16.203  0.00  0.00    +0.000 C 
ATOM     13  C   UNL     1      -8.971   5.924  15.927  0.00  0.00    +0.000 C 
ATOM     14  C   UNL     1      -9.492   7.277  16.416  0.00  0.00    +0.000 C 
ATOM     15  C   UNL     1      -8.065   7.277  16.961  0.00  0.00    +0.000 C 
ENDBRANCH   4  12
TORSDOF 1
ENDMDL
MODEL 5
REMARK VINA RESULT:      -4.0     12.510     14.748
REMARK  Name = 5386_Tegafur.pdbqt.pdb
REMARK  1 active torsions:
REMARK  status: ('A' for Active; 'I' for Inactive)
REMARK    1  A    between atoms: N_4  and  C_12
REMARK                            x       y       z     vdW  Elec       q    Type
REMARK                         _______ _______ _______ _____ _____    ______ ____
ROOT
ATOM      1  F   UNL     1     -17.852   6.822  -4.543  0.00  0.00    +0.000 F 
ATOM      2  O   UNL     1     -17.413   5.028   0.565  0.00  0.00    +0.000 OA
ATOM      3  O   UNL     1     -18.313   4.119  -3.845  0.00  0.00    +0.000 OA
ATOM      4  N   UNL     1     -17.038   6.744  -1.020  0.00  0.00    +0.000 N 
ATOM      5  N   UNL     1     -17.767   4.604  -1.661  0.00  0.00    +0.000 N 
ATOM      6  C   UNL     1     -17.395   5.446  -0.587  0.00  0.00    +0.000 C 
ATOM      7  C   UNL     1     -17.103   6.992  -2.344  0.00  0.00    +0.000 C 
ATOM      8  C   UNL     1     -17.423   6.298  -3.383  0.00  0.00    +0.000 C 
ATOM      9  C   UNL     1     -17.872   4.914  -3.024  0.00  0.00    +0.000 C 
ATOM     10  H   UNL     1     -18.068   3.677  -1.397  0.00  0.00    +0.000 HD
ENDROOT
BRANCH   4  12
ATOM     11  O   UNL     1     -17.419   8.174   0.904  0.00  0.00    +0.000 OA
ATOM     12  C   UNL     1     -16.644   7.744  -0.179  0.00  0.00    +0.000 C 
ATOM     13  C   UNL     1     -15.455   8.522  -0.211  0.00  0.00    +0.000 C 
ATOM     14  C   UNL     1     -15.171   9.620   0.816  0.00  0.00    +0.000 C 
ATOM     15  C   UNL     1     -16.533   9.105   1.279  0.00  0.00    +0.000 C 
ENDBRANCH   4  12
TORSDOF 1
ENDMDL
MODEL 6
REMARK VINA RESULT:      -3.6      3.253      4.698
REMARK  Name = 5386_Tegafur.pdbqt.pdb
REMARK  1 active torsions:
REMARK  status: ('A' for Active; 'I' for Inactive)
REMARK    1  A    between atoms: N_4  and  C_12
REMARK                            x       y       z     vdW  Elec       q    Type
REMARK                         _______ _______ _______ _____ _____    ______ ____
ROOT
ATOM      1  F   UNL     1     -23.424  14.498   6.081  0.00  0.00    +0.000 F 
ATOM      2  O   UNL     1     -23.029   9.250   7.425  0.00  0.00    +0.000 OA
ATOM      3  O   UNL     1     -22.469  13.651   8.606  0.00  0.00    +0.000 OA
ATOM      4  N   UNL     1     -23.837  10.907   5.943  0.00  0.00    +0.000 N 
ATOM      5  N   UNL     1     -22.850  11.463   8.002  0.00  0.00    +0.000 N 
ATOM      6  C   UNL     1     -23.235  10.421   7.126  0.00  0.00    +0.000 C 
ATOM      7  C   UNL     1     -23.953  12.245   5.815  0.00  0.00    +0.000 C 
ATOM      8  C   UNL     1     -23.639  13.258   6.550  0.00  0.00    +0.000 C 
ATOM      9  C   UNL     1     -22.940  12.848   7.811  0.00  0.00    +0.000 C 
ATOM     10  H   UNL     1     -22.380  11.164   8.844  0.00  0.00    +0.000 HD
ENDROOT
BRANCH   4  12
ATOM     11  O   UNL     1     -23.779  10.154   3.636  0.00  0.00    +0.000 OA
ATOM     12  C   UNL     1     -24.294  10.106   4.937  0.00  0.00    +0.000 C 
ATOM     13  C   UNL     1     -25.320   9.124   4.973  0.00  0.00    +0.000 C 
ATOM     14  C   UNL     1     -25.715   8.311   3.739  0.00  0.00    +0.000 C 
ATOM     15  C   UNL     1     -24.602   9.198   3.184  0.00  0.00    +0.000 C 
ENDBRANCH   4  12
TORSDOF 1
ENDMDL
MODEL 7
REMARK VINA RESULT:      -3.6      9.265     11.109
REMARK  Name = 5386_Tegafur.pdbqt.pdb
REMARK  1 active torsions:
REMARK  status: ('A' for Active; 'I' for Inactive)
REMARK    1  A    between atoms: N_4  and  C_12
REMARK                            x       y       z     vdW  Elec       q    Type
REMARK                         _______ _______ _______ _____ _____    ______ ____
ROOT
ATOM      1  F   UNL     1     -22.350   9.537  17.534  0.00  0.00    +0.000 F 
ATOM      2  O   UNL     1     -27.737   9.995  17.015  0.00  0.00    +0.000 OA
ATOM      3  O   UNL     1     -23.742   8.542  15.281  0.00  0.00    +0.000 OA
ATOM      4  N   UNL     1     -25.811  10.159  18.379  0.00  0.00    +0.000 N 
ATOM      5  N   UNL     1     -25.730   9.209  16.231  0.00  0.00    +0.000 N 
ATOM      6  C   UNL     1     -26.542   9.814  17.219  0.00  0.00    +0.000 C 
ATOM      7  C   UNL     1     -24.492   9.878  18.383  0.00  0.00    +0.000 C 
ATOM      8  C   UNL     1     -23.677   9.333  17.544  0.00  0.00    +0.000 C 
ATOM      9  C   UNL     1     -24.348   8.980  16.252  0.00  0.00    +0.000 C 
ATOM     10  H   UNL     1     -26.201   8.980  15.368  0.00  0.00    +0.000 HD
ENDROOT
BRANCH   4  12
ATOM     11  O   UNL     1     -26.818  12.081  19.467  0.00  0.00    +0.000 OA
ATOM     12  C   UNL     1     -26.363  10.757  19.475  0.00  0.00    +0.000 C 
ATOM     13  C   UNL     1     -26.577  10.221  20.773  0.00  0.00    +0.000 C 
ATOM     14  C   UNL     1     -27.208  11.040  21.900  0.00  0.00    +0.000 C 
ATOM     15  C   UNL     1     -27.201  12.046  20.750  0.00  0.00    +0.000 C 
ENDBRANCH   4  12
TORSDOF 1
ENDMDL
MODEL 8
REMARK VINA RESULT:      -3.5     15.579     16.433
REMARK  Name = 5386_Tegafur.pdbqt.pdb
REMARK  1 active torsions:
REMARK  status: ('A' for Active; 'I' for Inactive)
REMARK    1  A    between atoms: N_4  and  C_12
REMARK                            x       y       z     vdW  Elec       q    Type
REMARK                         _______ _______ _______ _____ _____    ______ ____
ROOT
ATOM      1  F   UNL     1     -10.685  17.220  20.859  0.00  0.00    +0.000 F 
ATOM      2  O   UNL     1     -13.865  21.604  20.452  0.00  0.00    +0.000 OA
ATOM      3  O   UNL     1      -9.927  19.505  19.374  0.00  0.00    +0.000 OA
ATOM      4  N   UNL     1     -13.609  19.338  21.079  0.00  0.00    +0.000 N 
ATOM      5  N   UNL     1     -11.952  20.482  19.867  0.00  0.00    +0.000 N 
ATOM      6  C   UNL     1     -13.227  20.558  20.477  0.00  0.00    +0.000 C 
ATOM      7  C   UNL     1     -12.739  18.310  20.997  0.00  0.00    +0.000 C 
ATOM      8  C   UNL     1     -11.574  18.147  20.468  0.00  0.00    +0.000 C 
ATOM      9  C   UNL     1     -11.052  19.408  19.847  0.00  0.00    +0.000 C 
ATOM     10  H   UNL     1     -11.620  21.343  19.457  0.00  0.00    +0.000 HD
ENDROOT
BRANCH   4  12
ATOM     11  O   UNL     1     -14.864  18.877  23.105  0.00  0.00    +0.000 OA
ATOM     12  C   UNL     1     -14.791  19.151  21.734  0.00  0.00    +0.000 C 
ATOM     13  C   UNL     1     -16.114  19.180  21.216  0.00  0.00    +0.000 C 
ATOM     14  C   UNL     1     -17.341  18.941  22.099  0.00  0.00    +0.000 C 
ATOM     15  C   UNL     1     -16.201  18.804  23.107  0.00  0.00    +0.000 C 
ENDBRANCH   4  12
TORSDOF 1
ENDMDL
MODEL 9
REMARK VINA RESULT:      -3.5     23.709     24.611
REMARK  Name = 5386_Tegafur.pdbqt.pdb
REMARK  1 active torsions:
REMARK  status: ('A' for Active; 'I' for Inactive)
REMARK    1  A    between atoms: N_4  and  C_12
REMARK                            x       y       z     vdW  Elec       q    Type
REMARK                         _______ _______ _______ _____ _____    ______ ____
ROOT
ATOM      1  F   UNL     1      -2.685  -4.238   9.171  0.00  0.00    +0.000 F 
ATOM      2  O   UNL     1      -6.549  -1.533  11.864  0.00  0.00    +0.000 OA
ATOM      3  O   UNL     1      -2.377  -1.536   9.949  0.00  0.00    +0.000 OA
ATOM      4  N   UNL     1      -5.900  -3.439  10.623  0.00  0.00    +0.000 N 
ATOM      5  N   UNL     1      -4.509  -1.556  10.817  0.00  0.00    +0.000 N 
ATOM      6  C   UNL     1      -5.749  -2.142  11.163  0.00  0.00    +0.000 C 
ATOM      7  C   UNL     1      -4.880  -3.923   9.885  0.00  0.00    +0.000 C 
ATOM      8  C   UNL     1      -3.730  -3.469   9.518  0.00  0.00    +0.000 C 
ATOM      9  C   UNL     1      -3.449  -2.112  10.089  0.00  0.00    +0.000 C 
ATOM     10  H   UNL     1      -4.339  -0.642  11.213  0.00  0.00    +0.000 HD
ENDROOT
BRANCH   4  12
ATOM     11  O   UNL     1      -8.169  -4.081  10.045  0.00  0.00    +0.000 OA
ATOM     12  C   UNL     1      -7.006  -4.217  10.812  0.00  0.00    +0.000 C 
ATOM     13  C   UNL     1      -7.217  -5.254  11.760  0.00  0.00    +0.000 C 
ATOM     14  C   UNL     1      -8.534  -6.029  11.841  0.00  0.00    +0.000 C 
ATOM     15  C   UNL     1      -8.814  -5.058  10.696  0.00  0.00    +0.000 C 
ENDBRANCH   4  12
TORSDOF 1
ENDMDL
