MODEL 1
REMARK VINA RESULT:      -6.8      0.000      0.000
REMARK  Name = 5470187_Zerumbone.pdbqt.pdb
REMARK  0 active torsions:
REMARK  status: ('A' for Active; 'I' for Inactive)
REMARK                            x       y       z     vdW  Elec       q    Type
REMARK                         _______ _______ _______ _____ _____    ______ ____
ROOT
ATOM      1  O   UNL     1     -13.935  12.476  -5.594  0.00  0.00    +0.000 OA
ATOM      2  C   UNL     1     -15.496   8.276  -3.645  0.00  0.00    +0.000 C 
ATOM      3  C   UNL     1     -15.610   8.259  -2.167  0.00  0.00    +0.000 C 
ATOM      4  C   UNL     1     -16.880   8.012  -4.286  0.00  0.00    +0.000 C 
ATOM      5  C   UNL     1     -14.467   7.210  -4.099  0.00  0.00    +0.000 C 
ATOM      6  C   UNL     1     -15.010   9.643  -4.018  0.00  0.00    +0.000 C 
ATOM      7  C   UNL     1     -15.588   8.645  -0.678  0.00  0.00    +0.000 C 
ATOM      8  C   UNL     1     -15.434   9.350   0.404  0.00  0.00    +0.000 C 
ATOM      9  C   UNL     1     -14.941  10.646   0.105  0.00  0.00    +0.000 C 
ATOM     10  C   UNL     1     -14.468  11.804  -0.777  0.00  0.00    +0.000 C 
ATOM     11  C   UNL     1     -14.613  10.763  -4.228  0.00  0.00    +0.000 C 
ATOM     12  C   UNL     1     -16.334   9.139   1.576  0.00  0.00    +0.000 C 
ATOM     13  C   UNL     1     -14.116  12.580  -2.049  0.00  0.00    +0.000 C 
ATOM     14  C   UNL     1     -13.886  13.030  -3.248  0.00  0.00    +0.000 C 
ATOM     15  C   UNL     1     -14.127  12.129  -4.434  0.00  0.00    +0.000 C 
ATOM     16  C   UNL     1     -13.373  14.445  -3.365  0.00  0.00    +0.000 C 
ENDROOT
TORSDOF 0
ENDMDL
MODEL 2
REMARK VINA RESULT:      -6.0      2.182      4.715
REMARK  Name = 5470187_Zerumbone.pdbqt.pdb
REMARK  0 active torsions:
REMARK  status: ('A' for Active; 'I' for Inactive)
REMARK                            x       y       z     vdW  Elec       q    Type
REMARK                         _______ _______ _______ _____ _____    ______ ____
ROOT
ATOM      1  O   UNL     1     -15.145  11.959  -0.612  0.00  0.00    +0.000 OA
ATOM      2  C   UNL     1     -14.570  10.358  -5.193  0.00  0.00    +0.000 C 
ATOM      3  C   UNL     1     -14.576   8.885  -5.362  0.00  0.00    +0.000 C 
ATOM      4  C   UNL     1     -15.730  10.989  -6.000  0.00  0.00    +0.000 C 
ATOM      5  C   UNL     1     -13.205  10.928  -5.654  0.00  0.00    +0.000 C 
ATOM      6  C   UNL     1     -14.761  10.619  -3.730  0.00  0.00    +0.000 C 
ATOM      7  C   UNL     1     -14.637   7.368  -5.111  0.00  0.00    +0.000 C 
ATOM      8  C   UNL     1     -14.747   6.232  -4.489  0.00  0.00    +0.000 C 
ATOM      9  C   UNL     1     -14.895   6.425  -3.092  0.00  0.00    +0.000 C 
ATOM     10  C   UNL     1     -15.037   7.210  -1.786  0.00  0.00    +0.000 C 
ATOM     11  C   UNL     1     -14.913  10.737  -2.538  0.00  0.00    +0.000 C 
ATOM     12  C   UNL     1     -15.389   5.063  -5.160  0.00  0.00    +0.000 C 
ATOM     13  C   UNL     1     -15.141   8.416  -0.847  0.00  0.00    +0.000 C 
ATOM     14  C   UNL     1     -15.205   9.575  -0.260  0.00  0.00    +0.000 C 
ATOM     15  C   UNL     1     -15.094  10.831  -1.089  0.00  0.00    +0.000 C 
ATOM     16  C   UNL     1     -15.378   9.577   1.240  0.00  0.00    +0.000 C 
ENDROOT
TORSDOF 0
ENDMDL
MODEL 3
REMARK VINA RESULT:      -5.3      2.181      2.982
REMARK  Name = 5470187_Zerumbone.pdbqt.pdb
REMARK  0 active torsions:
REMARK  status: ('A' for Active; 'I' for Inactive)
REMARK                            x       y       z     vdW  Elec       q    Type
REMARK                         _______ _______ _______ _____ _____    ______ ____
ROOT
ATOM      1  O   UNL     1     -15.517   8.327  -6.472  0.00  0.00    +0.000 OA
ATOM      2  C   UNL     1     -17.060   6.025  -2.448  0.00  0.00    +0.000 C 
ATOM      3  C   UNL     1     -16.778   6.716  -1.167  0.00  0.00    +0.000 C 
ATOM      4  C   UNL     1     -18.587   5.852  -2.630  0.00  0.00    +0.000 C 
ATOM      5  C   UNL     1     -16.344   4.651  -2.465  0.00  0.00    +0.000 C 
ATOM      6  C   UNL     1     -16.509   6.899  -3.532  0.00  0.00    +0.000 C 
ATOM      7  C   UNL     1     -16.307   7.723  -0.102  0.00  0.00    +0.000 C 
ATOM      8  C   UNL     1     -15.777   8.781   0.436  0.00  0.00    +0.000 C 
ATOM      9  C   UNL     1     -15.209   9.626  -0.551  0.00  0.00    +0.000 C 
ATOM     10  C   UNL     1     -14.835  10.092  -1.960  0.00  0.00    +0.000 C 
ATOM     11  C   UNL     1     -16.033   7.660  -4.340  0.00  0.00    +0.000 C 
ATOM     12  C   UNL     1     -16.352   9.363   1.684  0.00  0.00    +0.000 C 
ATOM     13  C   UNL     1     -14.732  10.085  -3.488  0.00  0.00    +0.000 C 
ATOM     14  C   UNL     1     -14.771   9.861  -4.770  0.00  0.00    +0.000 C 
ATOM     15  C   UNL     1     -15.439   8.610  -5.282  0.00  0.00    +0.000 C 
ATOM     16  C   UNL     1     -14.119  10.887  -5.665  0.00  0.00    +0.000 C 
ENDROOT
TORSDOF 0
ENDMDL
MODEL 4
REMARK VINA RESULT:      -5.2      2.683      4.007
REMARK  Name = 5470187_Zerumbone.pdbqt.pdb
REMARK  0 active torsions:
REMARK  status: ('A' for Active; 'I' for Inactive)
REMARK                            x       y       z     vdW  Elec       q    Type
REMARK                         _______ _______ _______ _____ _____    ______ ____
ROOT
ATOM      1  O   UNL     1     -13.967   6.435  -7.090  0.00  0.00    +0.000 OA
ATOM      2  C   UNL     1     -14.730   5.382  -2.380  0.00  0.00    +0.000 C 
ATOM      3  C   UNL     1     -14.955   6.548  -1.492  0.00  0.00    +0.000 C 
ATOM      4  C   UNL     1     -15.968   4.454  -2.359  0.00  0.00    +0.000 C 
ATOM      5  C   UNL     1     -13.462   4.620  -1.923  0.00  0.00    +0.000 C 
ATOM      6  C   UNL     1     -14.524   5.932  -3.758  0.00  0.00    +0.000 C 
ATOM      7  C   UNL     1     -15.137   7.973  -0.939  0.00  0.00    +0.000 C 
ATOM      8  C   UNL     1     -15.227   9.269  -0.896  0.00  0.00    +0.000 C 
ATOM      9  C   UNL     1     -15.004   9.840  -2.174  0.00  0.00    +0.000 C 
ATOM     10  C   UNL     1     -14.725   9.860  -3.679  0.00  0.00    +0.000 C 
ATOM     11  C   UNL     1     -14.364   6.460  -4.832  0.00  0.00    +0.000 C 
ATOM     12  C   UNL     1     -16.151   9.930   0.074  0.00  0.00    +0.000 C 
ATOM     13  C   UNL     1     -14.450   9.328  -5.088  0.00  0.00    +0.000 C 
ATOM     14  C   UNL     1     -14.227   8.650  -6.177  0.00  0.00    +0.000 C 
ATOM     15  C   UNL     1     -14.171   7.145  -6.111  0.00  0.00    +0.000 C 
ATOM     16  C   UNL     1     -14.026   9.439  -7.448  0.00  0.00    +0.000 C 
ENDROOT
TORSDOF 0
ENDMDL
MODEL 5
REMARK VINA RESULT:      -5.2      3.104      5.102
REMARK  Name = 5470187_Zerumbone.pdbqt.pdb
REMARK  0 active torsions:
REMARK  status: ('A' for Active; 'I' for Inactive)
REMARK                            x       y       z     vdW  Elec       q    Type
REMARK                         _______ _______ _______ _____ _____    ______ ____
ROOT
ATOM      1  O   UNL     1     -14.900  10.347  -0.771  0.00  0.00    +0.000 OA
ATOM      2  C   UNL     1     -15.572   7.010  -4.276  0.00  0.00    +0.000 C 
ATOM      3  C   UNL     1     -16.355   5.815  -3.881  0.00  0.00    +0.000 C 
ATOM      4  C   UNL     1     -16.290   7.757  -5.426  0.00  0.00    +0.000 C 
ATOM      5  C   UNL     1     -14.147   6.578  -4.705  0.00  0.00    +0.000 C 
ATOM      6  C   UNL     1     -15.494   7.887  -3.064  0.00  0.00    +0.000 C 
ATOM      7  C   UNL     1     -17.179   4.780  -3.093  0.00  0.00    +0.000 C 
ATOM      8  C   UNL     1     -17.818   4.210  -2.116  0.00  0.00    +0.000 C 
ATOM      9  C   UNL     1     -17.744   4.987  -0.932  0.00  0.00    +0.000 C 
ATOM     10  C   UNL     1     -17.362   6.180  -0.053  0.00  0.00    +0.000 C 
ATOM     11  C   UNL     1     -15.476   8.527  -2.041  0.00  0.00    +0.000 C 
ATOM     12  C   UNL     1     -19.021   3.368  -2.389  0.00  0.00    +0.000 C 
ATOM     13  C   UNL     1     -16.756   7.531   0.340  0.00  0.00    +0.000 C 
ATOM     14  C   UNL     1     -16.166   8.687   0.434  0.00  0.00    +0.000 C 
ATOM     15  C   UNL     1     -15.478   9.265  -0.777  0.00  0.00    +0.000 C 
ATOM     16  C   UNL     1     -16.204   9.370   1.779  0.00  0.00    +0.000 C 
ENDROOT
TORSDOF 0
ENDMDL
MODEL 6
REMARK VINA RESULT:      -5.2      2.675      5.071
REMARK  Name = 5470187_Zerumbone.pdbqt.pdb
REMARK  0 active torsions:
REMARK  status: ('A' for Active; 'I' for Inactive)
REMARK                            x       y       z     vdW  Elec       q    Type
REMARK                         _______ _______ _______ _____ _____    ______ ____
ROOT
ATOM      1  O   UNL     1     -19.664   7.694  -3.852  0.00  0.00    +0.000 OA
ATOM      2  C   UNL     1     -17.468   9.186   0.250  0.00  0.00    +0.000 C 
ATOM      3  C   UNL     1     -16.312  10.094   0.064  0.00  0.00    +0.000 C 
ATOM      4  C   UNL     1     -18.570   9.893   1.075  0.00  0.00    +0.000 C 
ATOM      5  C   UNL     1     -16.999   7.888   0.955  0.00  0.00    +0.000 C 
ATOM      6  C   UNL     1     -17.980   8.863  -1.120  0.00  0.00    +0.000 C 
ATOM      7  C   UNL     1     -15.212  10.982  -0.545  0.00  0.00    +0.000 C 
ATOM      8  C   UNL     1     -14.484  11.602  -1.426  0.00  0.00    +0.000 C 
ATOM      9  C   UNL     1     -14.909  11.300  -2.745  0.00  0.00    +0.000 C 
ATOM     10  C   UNL     1     -15.775  10.663  -3.834  0.00  0.00    +0.000 C 
ATOM     11  C   UNL     1     -18.323   8.653  -2.258  0.00  0.00    +0.000 C 
ATOM     12  C   UNL     1     -13.892  12.936  -1.113  0.00  0.00    +0.000 C 
ATOM     13  C   UNL     1     -16.894   9.830  -4.465  0.00  0.00    +0.000 C 
ATOM     14  C   UNL     1     -17.907   9.069  -4.764  0.00  0.00    +0.000 C 
ATOM     15  C   UNL     1     -18.698   8.423  -3.655  0.00  0.00    +0.000 C 
ATOM     16  C   UNL     1     -18.212   8.877  -6.230  0.00  0.00    +0.000 C 
ENDROOT
TORSDOF 0
ENDMDL
MODEL 7
REMARK VINA RESULT:      -4.8     12.630     14.066
REMARK  Name = 5470187_Zerumbone.pdbqt.pdb
REMARK  0 active torsions:
REMARK  status: ('A' for Active; 'I' for Inactive)
REMARK                            x       y       z     vdW  Elec       q    Type
REMARK                         _______ _______ _______ _____ _____    ______ ____
ROOT
ATOM      1  O   UNL     1     -22.717  18.375   5.987  0.00  0.00    +0.000 OA
ATOM      2  C   UNL     1     -21.872  15.437   9.798  0.00  0.00    +0.000 C 
ATOM      3  C   UNL     1     -22.153  13.999   9.572  0.00  0.00    +0.000 C 
ATOM      4  C   UNL     1     -20.379  15.637  10.151  0.00  0.00    +0.000 C 
ATOM      5  C   UNL     1     -22.783  15.971  10.933  0.00  0.00    +0.000 C 
ATOM      6  C   UNL     1     -22.195  16.139   8.515  0.00  0.00    +0.000 C 
ATOM      7  C   UNL     1     -22.553  12.650   8.948  0.00  0.00    +0.000 C 
ATOM      8  C   UNL     1     -22.960  11.775   8.077  0.00  0.00    +0.000 C 
ATOM      9  C   UNL     1     -23.312  12.397   6.852  0.00  0.00    +0.000 C 
ATOM     10  C   UNL     1     -23.495  13.546   5.858  0.00  0.00    +0.000 C 
ATOM     11  C   UNL     1     -22.484  16.623   7.448  0.00  0.00    +0.000 C 
ATOM     12  C   UNL     1     -22.409  10.388   8.086  0.00  0.00    +0.000 C 
ATOM     13  C   UNL     1     -23.472  14.973   5.303  0.00  0.00    +0.000 C 
ATOM     14  C   UNL     1     -23.363  16.246   5.058  0.00  0.00    +0.000 C 
ATOM     15  C   UNL     1     -22.850  17.166   6.138  0.00  0.00    +0.000 C 
ATOM     16  C   UNL     1     -23.777  16.719   3.685  0.00  0.00    +0.000 C 
ENDROOT
TORSDOF 0
ENDMDL
MODEL 8
REMARK VINA RESULT:      -4.7     21.449     25.191
REMARK  Name = 5470187_Zerumbone.pdbqt.pdb
REMARK  0 active torsions:
REMARK  status: ('A' for Active; 'I' for Inactive)
REMARK                            x       y       z     vdW  Elec       q    Type
REMARK                         _______ _______ _______ _____ _____    ______ ____
ROOT
ATOM      1  O   UNL     1     -13.333   6.332  24.530  0.00  0.00    +0.000 OA
ATOM      2  C   UNL     1      -9.636   8.588  22.269  0.00  0.00    +0.000 C 
ATOM      3  C   UNL     1      -9.379   8.155  20.874  0.00  0.00    +0.000 C 
ATOM      4  C   UNL     1      -9.989  10.094  22.300  0.00  0.00    +0.000 C 
ATOM      5  C   UNL     1      -8.388   8.297  23.140  0.00  0.00    +0.000 C 
ATOM      6  C   UNL     1     -10.797   7.777  22.757  0.00  0.00    +0.000 C 
ATOM      7  C   UNL     1      -9.445   7.446  19.509  0.00  0.00    +0.000 C 
ATOM      8  C   UNL     1      -9.835   6.650  18.559  0.00  0.00    +0.000 C 
ATOM      9  C   UNL     1     -10.915   5.834  18.986  0.00  0.00    +0.000 C 
ATOM     10  C   UNL     1     -11.985   5.302  19.941  0.00  0.00    +0.000 C 
ATOM     11  C   UNL     1     -11.731   7.080  23.070  0.00  0.00    +0.000 C 
ATOM     12  C   UNL     1      -9.728   7.069  17.131  0.00  0.00    +0.000 C 
ATOM     13  C   UNL     1     -12.820   5.161  21.217  0.00  0.00    +0.000 C 
ATOM     14  C   UNL     1     -13.381   5.225  22.390  0.00  0.00    +0.000 C 
ATOM     15  C   UNL     1     -12.860   6.210  23.406  0.00  0.00    +0.000 C 
ATOM     16  C   UNL     1     -14.529   4.281  22.654  0.00  0.00    +0.000 C 
ENDROOT
TORSDOF 0
ENDMDL
MODEL 9
REMARK VINA RESULT:      -4.7     20.375     23.802
REMARK  Name = 5470187_Zerumbone.pdbqt.pdb
REMARK  0 active torsions:
REMARK  status: ('A' for Active; 'I' for Inactive)
REMARK                            x       y       z     vdW  Elec       q    Type
REMARK                         _______ _______ _______ _____ _____    ______ ____
ROOT
ATOM      1  O   UNL     1     -11.136   5.427  23.519  0.00  0.00    +0.000 OA
ATOM      2  C   UNL     1     -10.544   2.368  19.755  0.00  0.00    +0.000 C 
ATOM      3  C   UNL     1     -10.427   3.007  18.423  0.00  0.00    +0.000 C 
ATOM      4  C   UNL     1      -9.260   1.566  20.072  0.00  0.00    +0.000 C 
ATOM      5  C   UNL     1     -11.790   1.447  19.780  0.00  0.00    +0.000 C 
ATOM      6  C   UNL     1     -10.714   3.479  20.746  0.00  0.00    +0.000 C 
ATOM      7  C   UNL     1     -10.351   4.029  17.274  0.00  0.00    +0.000 C 
ATOM      8  C   UNL     1     -10.335   5.165  16.643  0.00  0.00    +0.000 C 
ATOM      9  C   UNL     1     -10.527   6.250  17.536  0.00  0.00    +0.000 C 
ATOM     10  C   UNL     1     -10.734   6.944  18.884  0.00  0.00    +0.000 C 
ATOM     11  C   UNL     1     -10.851   4.433  21.472  0.00  0.00    +0.000 C 
ATOM     12  C   UNL     1      -9.497   5.338  15.419  0.00  0.00    +0.000 C 
ATOM     13  C   UNL     1     -10.911   7.104  20.397  0.00  0.00    +0.000 C 
ATOM     14  C   UNL     1     -11.043   6.991  21.687  0.00  0.00    +0.000 C 
ATOM     15  C   UNL     1     -11.019   5.619  22.314  0.00  0.00    +0.000 C 
ATOM     16  C   UNL     1     -11.226   8.266  22.474  0.00  0.00    +0.000 C 
ENDROOT
TORSDOF 0
ENDMDL
