MODEL 1
REMARK VINA RESULT:      -5.7      0.000      0.000
REMARK  Name = 5azacytidine.pdbqt.pdb
REMARK  5 active torsions:
REMARK  status: ('A' for Active; 'I' for Inactive)
REMARK    1  A    between atoms: C2*_2  and  O2*_16
REMARK    2  A    between atoms: C3*_3  and  O3*_21
REMARK    3  A    between atoms: C4*_4  and  C5*_18
REMARK    4  A    between atoms: C1*_5  and  N_6
REMARK    5  A    between atoms: C5*_18  and  O5*_19
REMARK                            x       y       z     vdW  Elec       q    Type
REMARK                         _______ _______ _______ _____ _____    ______ ____
ROOT
ATOM      1  O4* UNL     1     -21.973  13.787   8.628  0.00  0.00    +0.000 OA
ATOM      2  C2* UNL     1     -23.856  13.356   9.888  0.00  0.00    +0.000 A 
ATOM      3  C3* UNL     1     -23.168  14.469  10.469  0.00  0.00    +0.000 A 
ATOM      4  C4* UNL     1     -22.007  14.731   9.669  0.00  0.00    +0.000 A 
ATOM      5  C1* UNL     1     -23.083  12.925   8.748  0.00  0.00    +0.000 A 
ENDROOT
BRANCH   5   6
ATOM      6  N   UNL     1     -23.257  11.874   7.898  0.00  0.00    +0.000 N 
ATOM      7  C   UNL     1     -22.659  10.622   7.972  0.00  0.00    +0.000 A 
ATOM      8  O   UNL     1     -21.840  10.310   8.834  0.00  0.00    +0.000 OA
ATOM      9  N   UNL     1     -23.039   9.727   6.975  0.00  0.00    +0.000 NA
ATOM     10  C   UNL     1     -23.898  10.085   6.053  0.00  0.00    +0.000 A 
ATOM     11  N   UNL     1     -24.467  11.343   5.968  0.00  0.00    +0.000 NA
ATOM     12  C   UNL     1     -24.081  11.988   6.859  0.00  0.00    +0.000 A 
ATOM     13  N   UNL     1     -24.242   9.178   5.104  0.00  0.00    +0.000 N 
ATOM     14  H   UNL     1     -24.553   9.583   4.231  0.00  0.00    +0.000 HD
ATOM     15  H   UNL     1     -23.577   8.419   5.009  0.00  0.00    +0.000 HD
ENDBRANCH   5   6
BRANCH   2  16
ATOM     16  O2* UNL     1     -24.612  12.537  10.680  0.00  0.00    +0.000 OA
ATOM     17  H2* UNL     1     -25.218  13.046  11.261  0.00  0.00    +0.000 HD
ENDBRANCH   2  16
BRANCH   3  18
ATOM     18  O3* UNL     1     -23.189  14.684  11.820  0.00  0.00    +0.000 OA
ATOM     19  H3* UNL     1     -22.710  13.968  12.276  0.00  0.00    +0.000 HD
ENDBRANCH   3  18
BRANCH   4  20
ATOM     20  C5* UNL     1     -20.899  15.535   9.996  0.00  0.00    +0.000 C 
BRANCH  20  21
ATOM     21  O5* UNL     1     -19.848  16.287  10.311  0.00  0.00    +0.000 OA
ATOM     22  H5* UNL     1     -20.142  17.179  10.565  0.00  0.00    +0.000 HD
ENDBRANCH  20  21
ENDBRANCH   4  20
TORSDOF 5
ENDMDL
MODEL 2
REMARK VINA RESULT:      -4.9     20.549     22.132
REMARK  Name = 5azacytidine.pdbqt.pdb
REMARK  5 active torsions:
REMARK  status: ('A' for Active; 'I' for Inactive)
REMARK    1  A    between atoms: C2*_2  and  O2*_16
REMARK    2  A    between atoms: C3*_3  and  O3*_21
REMARK    3  A    between atoms: C4*_4  and  C5*_18
REMARK    4  A    between atoms: C1*_5  and  N_6
REMARK    5  A    between atoms: C5*_18  and  O5*_19
REMARK                            x       y       z     vdW  Elec       q    Type
REMARK                         _______ _______ _______ _____ _____    ______ ____
ROOT
ATOM      1  O4* UNL     1      -4.074  15.042   1.865  0.00  0.00    +0.000 OA
ATOM      2  C2* UNL     1      -2.825  13.906   0.294  0.00  0.00    +0.000 A 
ATOM      3  C3* UNL     1      -4.170  14.006  -0.185  0.00  0.00    +0.000 A 
ATOM      4  C4* UNL     1      -4.930  14.723   0.798  0.00  0.00    +0.000 A 
ATOM      5  C1* UNL     1      -2.784  14.540   1.590  0.00  0.00    +0.000 A 
ENDROOT
BRANCH   5   6
ATOM      6  N   UNL     1      -1.772  14.656   2.495  0.00  0.00    +0.000 N 
ATOM      7  C   UNL     1      -1.812  14.346   3.849  0.00  0.00    +0.000 A 
ATOM      8  O   UNL     1      -2.821  13.942   4.424  0.00  0.00    +0.000 OA
ATOM      9  N   UNL     1      -0.616  14.544   4.534  0.00  0.00    +0.000 NA
ATOM     10  C   UNL     1       0.442  14.994   3.909  0.00  0.00    +0.000 A 
ATOM     11  N   UNL     1       0.467  15.330   2.566  0.00  0.00    +0.000 NA
ATOM     12  C   UNL     1      -0.582  15.108   2.108  0.00  0.00    +0.000 A 
ATOM     13  N   UNL     1       1.586  15.168   4.617  0.00  0.00    +0.000 N 
ATOM     14  H   UNL     1       2.214  15.862   4.235  0.00  0.00    +0.000 HD
ATOM     15  H   UNL     1       1.438  15.231   5.617  0.00  0.00    +0.000 HD
ENDBRANCH   5   6
BRANCH   2  16
ATOM     16  O2* UNL     1      -2.046  12.849  -0.088  0.00  0.00    +0.000 OA
ATOM     17  H2* UNL     1      -1.228  12.782   0.451  0.00  0.00    +0.000 HD
ENDBRANCH   2  16
BRANCH   3  18
ATOM     18  O3* UNL     1      -4.719  13.020  -0.957  0.00  0.00    +0.000 OA
ATOM     19  H3* UNL     1      -5.588  12.762  -0.596  0.00  0.00    +0.000 HD
ENDBRANCH   3  18
BRANCH   4  20
ATOM     20  C5* UNL     1      -6.331  14.826   0.896  0.00  0.00    +0.000 C 
BRANCH  20  21
ATOM     21  O5* UNL     1      -7.654  14.913   0.994  0.00  0.00    +0.000 OA
ATOM     22  H5* UNL     1      -7.954  14.502   1.823  0.00  0.00    +0.000 HD
ENDBRANCH  20  21
ENDBRANCH   4  20
TORSDOF 5
ENDMDL
MODEL 3
REMARK VINA RESULT:      -4.5     12.941     14.437
REMARK  Name = 5azacytidine.pdbqt.pdb
REMARK  5 active torsions:
REMARK  status: ('A' for Active; 'I' for Inactive)
REMARK    1  A    between atoms: C2*_2  and  O2*_16
REMARK    2  A    between atoms: C3*_3  and  O3*_21
REMARK    3  A    between atoms: C4*_4  and  C5*_18
REMARK    4  A    between atoms: C1*_5  and  N_6
REMARK    5  A    between atoms: C5*_18  and  O5*_19
REMARK                            x       y       z     vdW  Elec       q    Type
REMARK                         _______ _______ _______ _____ _____    ______ ____
ROOT
ATOM      1  O4* UNL     1     -15.340  11.378  -0.798  0.00  0.00    +0.000 OA
ATOM      2  C2* UNL     1     -15.103  10.128  -2.722  0.00  0.00    +0.000 A 
ATOM      3  C3* UNL     1     -15.556   9.263  -1.675  0.00  0.00    +0.000 A 
ATOM      4  C4* UNL     1     -15.709  10.057  -0.490  0.00  0.00    +0.000 A 
ATOM      5  C1* UNL     1     -14.949  11.444  -2.153  0.00  0.00    +0.000 A 
ENDROOT
BRANCH   5   6
ATOM      6  N   UNL     1     -14.482  12.603  -2.697  0.00  0.00    +0.000 N 
ATOM      7  C   UNL     1     -13.628  13.527  -2.107  0.00  0.00    +0.000 A 
ATOM      8  O   UNL     1     -13.199  13.421  -0.960  0.00  0.00    +0.000 OA
ATOM      9  N   UNL     1     -13.295  14.617  -2.908  0.00  0.00    +0.000 NA
ATOM     10  C   UNL     1     -13.778  14.723  -4.120  0.00  0.00    +0.000 A 
ATOM     11  N   UNL     1     -14.652  13.814  -4.691  0.00  0.00    +0.000 NA
ATOM     12  C   UNL     1     -14.839  12.950  -3.931  0.00  0.00    +0.000 A 
ATOM     13  N   UNL     1     -13.422  15.800  -4.865  0.00  0.00    +0.000 N 
ATOM     14  H   UNL     1     -14.091  16.054  -5.580  0.00  0.00    +0.000 HD
ATOM     15  H   UNL     1     -13.071  16.575  -4.315  0.00  0.00    +0.000 HD
ENDBRANCH   5   6
BRANCH   2  16
ATOM     16  O2* UNL     1     -14.344   9.618  -3.740  0.00  0.00    +0.000 OA
ATOM     17  H2* UNL     1     -14.817   8.912  -4.232  0.00  0.00    +0.000 HD
ENDBRANCH   2  16
BRANCH   3  18
ATOM     18  O3* UNL     1     -15.180   7.949  -1.632  0.00  0.00    +0.000 OA
ATOM     19  H3* UNL     1     -15.287   7.545  -2.513  0.00  0.00    +0.000 HD
ENDBRANCH   3  18
BRANCH   4  20
ATOM     20  C5* UNL     1     -15.865   9.606   0.835  0.00  0.00    +0.000 C 
BRANCH  20  21
ATOM     21  O5* UNL     1     -16.014   9.189   2.088  0.00  0.00    +0.000 OA
ATOM     22  H5* UNL     1     -16.957   9.186   2.328  0.00  0.00    +0.000 HD
ENDBRANCH  20  21
ENDBRANCH   4  20
TORSDOF 5
ENDMDL
MODEL 4
REMARK VINA RESULT:      -4.3     18.948     19.687
REMARK  Name = 5azacytidine.pdbqt.pdb
REMARK  5 active torsions:
REMARK  status: ('A' for Active; 'I' for Inactive)
REMARK    1  A    between atoms: C2*_2  and  O2*_16
REMARK    2  A    between atoms: C3*_3  and  O3*_21
REMARK    3  A    between atoms: C4*_4  and  C5*_18
REMARK    4  A    between atoms: C1*_5  and  N_6
REMARK    5  A    between atoms: C5*_18  and  O5*_19
REMARK                            x       y       z     vdW  Elec       q    Type
REMARK                         _______ _______ _______ _____ _____    ______ ____
ROOT
ATOM      1  O4* UNL     1      -4.744  17.426   3.024  0.00  0.00    +0.000 OA
ATOM      2  C2* UNL     1      -4.102  15.429   3.982  0.00  0.00    +0.000 A 
ATOM      3  C3* UNL     1      -3.780  16.489   4.889  0.00  0.00    +0.000 A 
ATOM      4  C4* UNL     1      -4.195  17.722   4.284  0.00  0.00    +0.000 A 
ATOM      5  C1* UNL     1      -4.684  16.033   2.809  0.00  0.00    +0.000 A 
ENDROOT
BRANCH   5   6
ATOM      6  N   UNL     1      -5.095  15.482   1.632  0.00  0.00    +0.000 N 
ATOM      7  C   UNL     1      -4.403  14.574   0.838  0.00  0.00    +0.000 A 
ATOM      8  O   UNL     1      -3.274  14.167   1.100  0.00  0.00    +0.000 OA
ATOM      9  N   UNL     1      -5.078  14.160  -0.307  0.00  0.00    +0.000 NA
ATOM     10  C   UNL     1      -6.273  14.621  -0.579  0.00  0.00    +0.000 A 
ATOM     11  N   UNL     1      -6.944  15.548   0.200  0.00  0.00    +0.000 NA
ATOM     12  C   UNL     1      -6.285  15.801   1.127  0.00  0.00    +0.000 A 
ATOM     13  N   UNL     1      -6.893  14.185  -1.705  0.00  0.00    +0.000 N 
ATOM     14  H   UNL     1      -7.577  14.828  -2.081  0.00  0.00    +0.000 HD
ATOM     15  H   UNL     1      -6.259  13.789  -2.389  0.00  0.00    +0.000 HD
ENDBRANCH   5   6
BRANCH   2  16
ATOM     16  O2* UNL     1      -3.356  14.282   3.988  0.00  0.00    +0.000 OA
ATOM     17  H2* UNL     1      -3.777  13.574   4.524  0.00  0.00    +0.000 HD
ENDBRANCH   2  16
BRANCH   3  18
ATOM     18  O3* UNL     1      -2.690  16.408   5.710  0.00  0.00    +0.000 OA
ATOM     19  H3* UNL     1      -2.160  17.224   5.638  0.00  0.00    +0.000 HD
ENDBRANCH   3  18
BRANCH   4  20
ATOM     20  C5* UNL     1      -3.844  19.030   4.667  0.00  0.00    +0.000 C 
BRANCH  20  21
ATOM     21  O5* UNL     1      -3.522  20.267   5.033  0.00  0.00    +0.000 OA
ATOM     22  H5* UNL     1      -2.978  20.687   4.345  0.00  0.00    +0.000 HD
ENDBRANCH  20  21
ENDBRANCH   4  20
TORSDOF 5
ENDMDL
MODEL 5
REMARK VINA RESULT:      -4.2     17.791     18.878
REMARK  Name = 5azacytidine.pdbqt.pdb
REMARK  5 active torsions:
REMARK  status: ('A' for Active; 'I' for Inactive)
REMARK    1  A    between atoms: C2*_2  and  O2*_16
REMARK    2  A    between atoms: C3*_3  and  O3*_21
REMARK    3  A    between atoms: C4*_4  and  C5*_18
REMARK    4  A    between atoms: C1*_5  and  N_6
REMARK    5  A    between atoms: C5*_18  and  O5*_19
REMARK                            x       y       z     vdW  Elec       q    Type
REMARK                         _______ _______ _______ _____ _____    ______ ____
ROOT
ATOM      1  O4* UNL     1     -11.246   1.735   0.442  0.00  0.00    +0.000 OA
ATOM      2  C2* UNL     1     -11.957  -0.315   1.223  0.00  0.00    +0.000 A 
ATOM      3  C3* UNL     1     -12.848   0.106   0.185  0.00  0.00    +0.000 A 
ATOM      4  C4* UNL     1     -12.386   1.376  -0.298  0.00  0.00    +0.000 A 
ATOM      5  C1* UNL     1     -10.972   0.726   1.389  0.00  0.00    +0.000 A 
ENDROOT
BRANCH   5   6
ATOM      6  N   UNL     1      -9.951   0.855   2.283  0.00  0.00    +0.000 N 
ATOM      7  C   UNL     1     -10.024   0.749   3.667  0.00  0.00    +0.000 A 
ATOM      8  O   UNL     1     -11.071   0.551   4.280  0.00  0.00    +0.000 OA
ATOM      9  N   UNL     1      -8.811   0.905   4.334  0.00  0.00    +0.000 NA
ATOM     10  C   UNL     1      -7.710   1.137   3.665  0.00  0.00    +0.000 A 
ATOM     11  N   UNL     1      -7.649   1.270   2.289  0.00  0.00    +0.000 NA
ATOM     12  C   UNL     1      -8.717   1.107   1.852  0.00  0.00    +0.000 A 
ATOM     13  N   UNL     1      -6.551   1.278   4.358  0.00  0.00    +0.000 N 
ATOM     14  H   UNL     1      -5.848   1.834   3.889  0.00  0.00    +0.000 HD
ATOM     15  H   UNL     1      -6.688   1.502   5.336  0.00  0.00    +0.000 HD
ENDBRANCH   5   6
BRANCH   2  16
ATOM     16  O2* UNL     1     -12.417  -1.128   2.222  0.00  0.00    +0.000 OA
ATOM     17  H2* UNL     1     -13.312  -0.862   2.529  0.00  0.00    +0.000 HD
ENDBRANCH   2  16
BRANCH   3  18
ATOM     18  O3* UNL     1     -14.174  -0.227   0.214  0.00  0.00    +0.000 OA
ATOM     19  H3* UNL     1     -14.601   0.183   0.989  0.00  0.00    +0.000 HD
ENDBRANCH   3  18
BRANCH   4  20
ATOM     20  C5* UNL     1     -13.080   2.293  -1.109  0.00  0.00    +0.000 C 
BRANCH  20  21
ATOM     21  O5* UNL     1     -13.729   3.166  -1.874  0.00  0.00    +0.000 OA
ATOM     22  H5* UNL     1     -14.566   3.423  -1.449  0.00  0.00    +0.000 HD
ENDBRANCH  20  21
ENDBRANCH   4  20
TORSDOF 5
ENDMDL
MODEL 6
REMARK VINA RESULT:      -4.2     18.027     19.764
REMARK  Name = 5azacytidine.pdbqt.pdb
REMARK  5 active torsions:
REMARK  status: ('A' for Active; 'I' for Inactive)
REMARK    1  A    between atoms: C2*_2  and  O2*_16
REMARK    2  A    between atoms: C3*_3  and  O3*_21
REMARK    3  A    between atoms: C4*_4  and  C5*_18
REMARK    4  A    between atoms: C1*_5  and  N_6
REMARK    5  A    between atoms: C5*_18  and  O5*_19
REMARK                            x       y       z     vdW  Elec       q    Type
REMARK                         _______ _______ _______ _____ _____    ______ ____
ROOT
ATOM      1  O4* UNL     1     -13.672  16.615  25.431  0.00  0.00    +0.000 OA
ATOM      2  C2* UNL     1     -14.810  17.957  26.923  0.00  0.00    +0.000 A 
ATOM      3  C3* UNL     1     -14.339  16.801  27.624  0.00  0.00    +0.000 A 
ATOM      4  C4* UNL     1     -13.625  15.983  26.686  0.00  0.00    +0.000 A 
ATOM      5  C1* UNL     1     -14.404  17.816  25.545  0.00  0.00    +0.000 A 
ENDROOT
BRANCH   5   6
ATOM      6  N   UNL     1     -14.656  18.596  24.456  0.00  0.00    +0.000 N 
ATOM      7  C   UNL     1     -13.767  19.437  23.797  0.00  0.00    +0.000 A 
ATOM      8  O   UNL     1     -12.604  19.610  24.155  0.00  0.00    +0.000 OA
ATOM      9  N   UNL     1     -14.294  20.101  22.693  0.00  0.00    +0.000 NA
ATOM     10  C   UNL     1     -15.542  19.919  22.340  0.00  0.00    +0.000 A 
ATOM     11  N   UNL     1     -16.430  19.103  23.018  0.00  0.00    +0.000 NA
ATOM     12  C   UNL     1     -15.868  18.599  23.906  0.00  0.00    +0.000 A 
ATOM     13  N   UNL     1     -16.010  20.585  21.254  0.00  0.00    +0.000 N 
ATOM     14  H   UNL     1     -17.009  20.742  21.258  0.00  0.00    +0.000 HD
ATOM     15  H   UNL     1     -15.452  21.393  21.003  0.00  0.00    +0.000 HD
ENDBRANCH   5   6
BRANCH   2  16
ATOM     16  O2* UNL     1     -15.945  18.591  27.347  0.00  0.00    +0.000 OA
ATOM     17  H2* UNL     1     -16.616  18.660  26.632  0.00  0.00    +0.000 HD
ENDBRANCH   2  16
BRANCH   3  18
ATOM     18  O3* UNL     1     -15.048  16.270  28.666  0.00  0.00    +0.000 OA
ATOM     19  H3* UNL     1     -14.463  16.150  29.437  0.00  0.00    +0.000 HD
ENDBRANCH   3  18
BRANCH   4  20
ATOM     20  C5* UNL     1     -13.227  14.642  26.842  0.00  0.00    +0.000 C 
BRANCH  20  21
ATOM     21  O5* UNL     1     -12.850  13.377  26.999  0.00  0.00    +0.000 OA
ATOM     22  H5* UNL     1     -12.881  13.135  27.941  0.00  0.00    +0.000 HD
ENDBRANCH  20  21
ENDBRANCH   4  20
TORSDOF 5
ENDMDL
MODEL 7
REMARK VINA RESULT:      -4.0     17.298     18.274
REMARK  Name = 5azacytidine.pdbqt.pdb
REMARK  5 active torsions:
REMARK  status: ('A' for Active; 'I' for Inactive)
REMARK    1  A    between atoms: C2*_2  and  O2*_16
REMARK    2  A    between atoms: C3*_3  and  O3*_21
REMARK    3  A    between atoms: C4*_4  and  C5*_18
REMARK    4  A    between atoms: C1*_5  and  N_6
REMARK    5  A    between atoms: C5*_18  and  O5*_19
REMARK                            x       y       z     vdW  Elec       q    Type
REMARK                         _______ _______ _______ _____ _____    ______ ____
ROOT
ATOM      1  O4* UNL     1     -10.055   6.016  18.819  0.00  0.00    +0.000 OA
ATOM      2  C2* UNL     1     -11.068   3.975  18.459  0.00  0.00    +0.000 A 
ATOM      3  C3* UNL     1     -11.685   4.592  19.594  0.00  0.00    +0.000 A 
ATOM      4  C4* UNL     1     -11.052   5.863  19.798  0.00  0.00    +0.000 A 
ATOM      5  C1* UNL     1     -10.033   4.868  17.998  0.00  0.00    +0.000 A 
ENDROOT
BRANCH   5   6
ATOM      6  N   UNL     1      -9.111   4.729  17.004  0.00  0.00    +0.000 N 
ATOM      7  C   UNL     1      -9.322   4.846  15.636  0.00  0.00    +0.000 A 
ATOM      8  O   UNL     1     -10.422   5.068  15.134  0.00  0.00    +0.000 OA
ATOM      9  N   UNL     1      -8.187   4.675  14.848  0.00  0.00    +0.000 NA
ATOM     10  C   UNL     1      -7.027   4.419  15.399  0.00  0.00    +0.000 A 
ATOM     11  N   UNL     1      -6.829   4.274  16.761  0.00  0.00    +0.000 NA
ATOM     12  C   UNL     1      -7.844   4.453  17.306  0.00  0.00    +0.000 A 
ATOM     13  N   UNL     1      -5.948   4.263  14.591  0.00  0.00    +0.000 N 
ATOM     14  H   UNL     1      -5.211   3.692  14.983  0.00  0.00    +0.000 HD
ATOM     15  H   UNL     1      -6.188   4.050  13.631  0.00  0.00    +0.000 HD
ENDBRANCH   5   6
BRANCH   2  16
ATOM     16  O2* UNL     1     -11.027   2.611  18.368  0.00  0.00    +0.000 OA
ATOM     17  H2* UNL     1     -11.760   2.188  18.867  0.00  0.00    +0.000 HD
ENDBRANCH   2  16
BRANCH   3  18
ATOM     18  O3* UNL     1     -12.168   3.841  20.630  0.00  0.00    +0.000 OA
ATOM     19  H3* UNL     1     -12.374   2.940  20.318  0.00  0.00    +0.000 HD
ENDBRANCH   3  18
BRANCH   4  20
ATOM     20  C5* UNL     1     -11.130   6.692  20.933  0.00  0.00    +0.000 C 
BRANCH  20  21
ATOM     21  O5* UNL     1     -11.204   7.482  22.000  0.00  0.00    +0.000 OA
ATOM     22  H5* UNL     1     -10.655   7.124  22.718  0.00  0.00    +0.000 HD
ENDBRANCH  20  21
ENDBRANCH   4  20
TORSDOF 5
ENDMDL
MODEL 8
REMARK VINA RESULT:      -3.8     18.281     19.449
REMARK  Name = 5azacytidine.pdbqt.pdb
REMARK  5 active torsions:
REMARK  status: ('A' for Active; 'I' for Inactive)
REMARK    1  A    between atoms: C2*_2  and  O2*_16
REMARK    2  A    between atoms: C3*_3  and  O3*_21
REMARK    3  A    between atoms: C4*_4  and  C5*_18
REMARK    4  A    between atoms: C1*_5  and  N_6
REMARK    5  A    between atoms: C5*_18  and  O5*_19
REMARK                            x       y       z     vdW  Elec       q    Type
REMARK                         _______ _______ _______ _____ _____    ______ ____
ROOT
ATOM      1  O4* UNL     1     -12.100  16.506  22.979  0.00  0.00    +0.000 OA
ATOM      2  C2* UNL     1     -11.983  16.990  25.231  0.00  0.00    +0.000 A 
ATOM      3  C3* UNL     1     -11.108  15.890  24.960  0.00  0.00    +0.000 A 
ATOM      4  C4* UNL     1     -11.184  15.609  23.555  0.00  0.00    +0.000 A 
ATOM      5  C1* UNL     1     -12.616  17.350  23.985  0.00  0.00    +0.000 A 
ENDROOT
BRANCH   5   6
ATOM      6  N   UNL     1     -13.577  18.275  23.707  0.00  0.00    +0.000 N 
ATOM      7  C   UNL     1     -13.404  19.516  23.105  0.00  0.00    +0.000 A 
ATOM      8  O   UNL     1     -12.309  19.961  22.767  0.00  0.00    +0.000 OA
ATOM      9  N   UNL     1     -14.573  20.250  22.923  0.00  0.00    +0.000 NA
ATOM     10  C   UNL     1     -15.728  19.768  23.308  0.00  0.00    +0.000 A 
ATOM     11  N   UNL     1     -15.890  18.544  23.934  0.00  0.00    +0.000 NA
ATOM     12  C   UNL     1     -14.848  18.027  24.015  0.00  0.00    +0.000 A 
ATOM     13  N   UNL     1     -16.841  20.517  23.106  0.00  0.00    +0.000 N 
ATOM     14  H   UNL     1     -17.599  20.322  23.746  0.00  0.00    +0.000 HD
ATOM     15  H   UNL     1     -16.647  21.501  22.963  0.00  0.00    +0.000 HD
ENDBRANCH   5   6
BRANCH   2  16
ATOM     16  O2* UNL     1     -12.556  17.110  26.467  0.00  0.00    +0.000 OA
ATOM     17  H2* UNL     1     -11.947  17.527  27.115  0.00  0.00    +0.000 HD
ENDBRANCH   2  16
BRANCH   3  18
ATOM     18  O3* UNL     1     -10.894  14.912  25.890  0.00  0.00    +0.000 OA
ATOM     19  H3* UNL     1      -9.968  14.606  25.843  0.00  0.00    +0.000 HD
ENDBRANCH   3  18
BRANCH   4  20
ATOM     20  C5* UNL     1     -10.722  14.463  22.880  0.00  0.00    +0.000 C 
BRANCH  20  21
ATOM     21  O5* UNL     1     -10.295  13.375  22.246  0.00  0.00    +0.000 OA
ATOM     22  H5* UNL     1     -11.016  12.725  22.177  0.00  0.00    +0.000 HD
ENDBRANCH  20  21
ENDBRANCH   4  20
TORSDOF 5
ENDMDL
MODEL 9
REMARK VINA RESULT:      -3.8      9.396     11.361
REMARK  Name = 5azacytidine.pdbqt.pdb
REMARK  5 active torsions:
REMARK  status: ('A' for Active; 'I' for Inactive)
REMARK    1  A    between atoms: C2*_2  and  O2*_16
REMARK    2  A    between atoms: C3*_3  and  O3*_21
REMARK    3  A    between atoms: C4*_4  and  C5*_18
REMARK    4  A    between atoms: C1*_5  and  N_6
REMARK    5  A    between atoms: C5*_18  and  O5*_19
REMARK                            x       y       z     vdW  Elec       q    Type
REMARK                         _______ _______ _______ _____ _____    ______ ____
ROOT
ATOM      1  O4* UNL     1     -17.147  10.526  -1.110  0.00  0.00    +0.000 OA
ATOM      2  C2* UNL     1     -16.818   8.600   0.115  0.00  0.00    +0.000 A 
ATOM      3  C3* UNL     1     -15.636   8.854  -0.652  0.00  0.00    +0.000 A 
ATOM      4  C4* UNL     1     -15.853  10.060  -1.399  0.00  0.00    +0.000 A 
ATOM      5  C1* UNL     1     -17.764   9.642  -0.199  0.00  0.00    +0.000 A 
ENDROOT
BRANCH   5   6
ATOM      6  N   UNL     1     -19.054   9.827   0.200  0.00  0.00    +0.000 N 
ATOM      7  C   UNL     1     -20.195   9.240  -0.334  0.00  0.00    +0.000 A 
ATOM      8  O   UNL     1     -20.178   8.473  -1.294  0.00  0.00    +0.000 OA
ATOM      9  N   UNL     1     -21.387   9.596   0.290  0.00  0.00    +0.000 NA
ATOM     10  C   UNL     1     -21.387  10.430   1.300  0.00  0.00    +0.000 A 
ATOM     11  N   UNL     1     -20.250  11.035   1.807  0.00  0.00    +0.000 NA
ATOM     12  C   UNL     1     -19.325  10.647   1.213  0.00  0.00    +0.000 A 
ATOM     13  N   UNL     1     -22.573  10.745   1.878  0.00  0.00    +0.000 N 
ATOM     14  H   UNL     1     -22.588  11.644   2.341  0.00  0.00    +0.000 HD
ATOM     15  H   UNL     1     -23.375  10.555   1.289  0.00  0.00    +0.000 HD
ENDBRANCH   5   6
BRANCH   2  16
ATOM     16  O2* UNL     1     -17.146   7.314   0.446  0.00  0.00    +0.000 OA
ATOM     17  H2* UNL     1     -17.576   6.841  -0.299  0.00  0.00    +0.000 HD
ENDBRANCH   2  16
BRANCH   3  18
ATOM     18  O3* UNL     1     -14.869   7.828  -1.128  0.00  0.00    +0.000 OA
ATOM     19  H3* UNL     1     -14.869   7.091  -0.489  0.00  0.00    +0.000 HD
ENDBRANCH   3  18
BRANCH   4  20
ATOM     20  C5* UNL     1     -15.097  10.550  -2.482  0.00  0.00    +0.000 C 
BRANCH  20  21
ATOM     21  O5* UNL     1     -14.386  11.022  -3.501  0.00  0.00    +0.000 OA
ATOM     22  H5* UNL     1     -13.436  10.950  -3.305  0.00  0.00    +0.000 HD
ENDBRANCH  20  21
ENDBRANCH   4  20
TORSDOF 5
ENDMDL
