MODEL 1
REMARK VINA RESULT:      -6.0      0.000      0.000
REMARK  Name = 60953_Capecitabine.pdbqt.pdb
REMARK  6 active torsions:
REMARK  status: ('A' for Active; 'I' for Inactive)
REMARK    1  A    between atoms: N_4  and  C_16
REMARK    2  A    between atoms: C_11  and  O_23
REMARK    3  A    between atoms: C_14  and  O_19
REMARK    4  A    between atoms: C_15  and  O_21
REMARK    5  A    between atoms: O_23  and  C_24
REMARK    6  A    between atoms: C_25  and  C_26
REMARK                            x       y       z     vdW  Elec       q    Type
REMARK                         _______ _______ _______ _____ _____    ______ ____
ROOT
ATOM      1  F   UNL     1     -24.820  13.647   7.045  0.00  0.00    +0.000 F 
ATOM      2  O   UNL     1     -20.349  14.680   9.809  0.00  0.00    +0.000 OA
ATOM      3  O   UNL     1     -21.457  10.303   8.597  0.00  0.00    +0.000 OA
ATOM      4  N   UNL     1     -22.367  15.454   8.958  0.00  0.00    +0.000 N 
ATOM      5  N   UNL     1     -21.776  13.128   8.916  0.00  0.00    +0.000 NA
ATOM      6  N   UNL     1     -23.275  11.597   7.938  0.00  0.00    +0.000 N 
ATOM      7  C   UNL     1     -23.515  15.056   8.372  0.00  0.00    +0.000 C 
ATOM      8  C   UNL     1     -21.427  14.439   9.271  0.00  0.00    +0.000 C 
ATOM      9  C   UNL     1     -23.962  13.894   8.049  0.00  0.00    +0.000 C 
ATOM     10  C   UNL     1     -22.914  12.865   8.343  0.00  0.00    +0.000 C 
ATOM     11  C   UNL     1     -22.547  10.435   8.061  0.00  0.00    +0.000 C 
ATOM     12  H   UNL     1     -24.162  11.477   7.468  0.00  0.00    +0.000 HD
ENDROOT
BRANCH   4  16
ATOM     13  O   UNL     1     -22.036  17.720   8.176  0.00  0.00    +0.000 OA
ATOM     14  C   UNL     1     -22.148  17.516  10.471  0.00  0.00    +0.000 A 
ATOM     15  C   UNL     1     -21.889  18.887  10.153  0.00  0.00    +0.000 A 
ATOM     16  C   UNL     1     -22.212  16.789   9.224  0.00  0.00    +0.000 A 
ATOM     17  C   UNL     1     -21.835  18.998   8.721  0.00  0.00    +0.000 A 
ATOM     18  C   UNL     1     -21.363  20.108   7.846  0.00  0.00    +0.000 C 
BRANCH  14  19
ATOM     19  O   UNL     1     -21.706  17.006  11.658  0.00  0.00    +0.000 OA
ATOM     20  H   UNL     1     -21.334  16.102  11.558  0.00  0.00    +0.000 HD
ENDBRANCH  14  19
BRANCH  15  21
ATOM     21  O   UNL     1     -21.172  19.686  11.004  0.00  0.00    +0.000 OA
ATOM     22  H   UNL     1     -21.737  20.398  11.361  0.00  0.00    +0.000 HD
ENDBRANCH  15  21
ENDBRANCH   4  16
BRANCH  11  23
ATOM     23  O   UNL     1     -23.258   9.417   7.488  0.00  0.00    +0.000 OA
BRANCH  23  24
ATOM     24  C   UNL     1     -23.664   9.627   6.237  0.00  0.00    +0.000 C 
ATOM     25  C   UNL     1     -24.132   9.867   4.798  0.00  0.00    +0.000 C 
BRANCH  25  26
ATOM     26  C   UNL     1     -24.599  10.104   3.359  0.00  0.00    +0.000 C 
ATOM     27  C   UNL     1     -25.062  10.336   1.918  0.00  0.00    +0.000 C 
ATOM     28  C   UNL     1     -25.522  10.555   0.473  0.00  0.00    +0.000 C 
ENDBRANCH  25  26
ENDBRANCH  23  24
ENDBRANCH  11  23
TORSDOF 6
ENDMDL
MODEL 2
REMARK VINA RESULT:      -5.8      3.783      9.250
REMARK  Name = 60953_Capecitabine.pdbqt.pdb
REMARK  6 active torsions:
REMARK  status: ('A' for Active; 'I' for Inactive)
REMARK    1  A    between atoms: N_4  and  C_16
REMARK    2  A    between atoms: C_11  and  O_23
REMARK    3  A    between atoms: C_14  and  O_19
REMARK    4  A    between atoms: C_15  and  O_21
REMARK    5  A    between atoms: O_23  and  C_24
REMARK    6  A    between atoms: C_25  and  C_26
REMARK                            x       y       z     vdW  Elec       q    Type
REMARK                         _______ _______ _______ _____ _____    ______ ____
ROOT
ATOM      1  F   UNL     1     -24.240  17.367  11.867  0.00  0.00    +0.000 F 
ATOM      2  O   UNL     1     -19.908  14.952   9.841  0.00  0.00    +0.000 OA
ATOM      3  O   UNL     1     -19.482  18.531  12.818  0.00  0.00    +0.000 OA
ATOM      4  N   UNL     1     -22.215  15.221   9.808  0.00  0.00    +0.000 N 
ATOM      5  N   UNL     1     -20.785  16.653  11.098  0.00  0.00    +0.000 NA
ATOM      6  N   UNL     1     -21.765  18.352  12.404  0.00  0.00    +0.000 N 
ATOM      7  C   UNL     1     -23.220  15.982  10.288  0.00  0.00    +0.000 C 
ATOM      8  C   UNL     1     -20.902  15.569  10.217  0.00  0.00    +0.000 C 
ATOM      9  C   UNL     1     -23.230  17.018  11.051  0.00  0.00    +0.000 C 
ATOM     10  C   UNL     1     -21.832  17.310  11.502  0.00  0.00    +0.000 C 
ATOM     11  C   UNL     1     -20.641  18.871  13.006  0.00  0.00    +0.000 C 
ATOM     12  H   UNL     1     -22.626  18.791  12.697  0.00  0.00    +0.000 HD
ENDROOT
BRANCH   4  16
ATOM     13  O   UNL     1     -22.258  12.856   9.296  0.00  0.00    +0.000 OA
ATOM     14  C   UNL     1     -23.125  14.202   7.635  0.00  0.00    +0.000 A 
ATOM     15  C   UNL     1     -23.154  12.847   7.177  0.00  0.00    +0.000 A 
ATOM     16  C   UNL     1     -22.536  14.198   8.955  0.00  0.00    +0.000 A 
ATOM     17  C   UNL     1     -22.623  12.022   8.228  0.00  0.00    +0.000 A 
ATOM     18  C   UNL     1     -22.191  10.596   8.224  0.00  0.00    +0.000 C 
BRANCH  14  19
ATOM     19  O   UNL     1     -23.017  15.216   6.727  0.00  0.00    +0.000 OA
ATOM     20  H   UNL     1     -22.842  14.884   5.818  0.00  0.00    +0.000 HD
ENDBRANCH  14  19
BRANCH  15  21
ATOM     21  O   UNL     1     -23.037  12.549   5.845  0.00  0.00    +0.000 OA
ATOM     22  H   UNL     1     -22.488  11.751   5.721  0.00  0.00    +0.000 HD
ENDBRANCH  15  21
ENDBRANCH   4  16
BRANCH  11  23
ATOM     23  O   UNL     1     -21.029  19.864  13.862  0.00  0.00    +0.000 OA
BRANCH  23  24
ATOM     24  C   UNL     1     -22.186  19.667  14.491  0.00  0.00    +0.000 C 
ATOM     25  C   UNL     1     -23.516  19.441  15.217  0.00  0.00    +0.000 C 
BRANCH  25  26
ATOM     26  C   UNL     1     -24.845  19.217  15.943  0.00  0.00    +0.000 C 
ATOM     27  C   UNL     1     -26.175  18.986  16.667  0.00  0.00    +0.000 C 
ATOM     28  C   UNL     1     -27.504  18.743  17.390  0.00  0.00    +0.000 C 
ENDBRANCH  25  26
ENDBRANCH  23  24
ENDBRANCH  11  23
TORSDOF 6
ENDMDL
MODEL 3
REMARK VINA RESULT:      -5.6     12.831     15.725
REMARK  Name = 60953_Capecitabine.pdbqt.pdb
REMARK  6 active torsions:
REMARK  status: ('A' for Active; 'I' for Inactive)
REMARK    1  A    between atoms: N_4  and  C_16
REMARK    2  A    between atoms: C_11  and  O_23
REMARK    3  A    between atoms: C_14  and  O_19
REMARK    4  A    between atoms: C_15  and  O_21
REMARK    5  A    between atoms: O_23  and  C_24
REMARK    6  A    between atoms: C_25  and  C_26
REMARK                            x       y       z     vdW  Elec       q    Type
REMARK                         _______ _______ _______ _____ _____    ______ ____
ROOT
ATOM      1  F   UNL     1     -14.671  10.284  -4.632  0.00  0.00    +0.000 F 
ATOM      2  O   UNL     1     -16.126   9.874   0.507  0.00  0.00    +0.000 OA
ATOM      3  O   UNL     1     -14.386  13.873  -1.178  0.00  0.00    +0.000 OA
ATOM      4  N   UNL     1     -15.728   8.816  -1.523  0.00  0.00    +0.000 N 
ATOM      5  N   UNL     1     -15.157  11.118  -1.154  0.00  0.00    +0.000 NA
ATOM      6  N   UNL     1     -14.208  12.347  -2.925  0.00  0.00    +0.000 N 
ATOM      7  C   UNL     1     -15.219   9.006  -2.757  0.00  0.00    +0.000 C 
ATOM      8  C   UNL     1     -15.694   9.928  -0.642  0.00  0.00    +0.000 C 
ATOM      9  C   UNL     1     -14.661  10.023  -3.314  0.00  0.00    +0.000 C 
ATOM     10  C   UNL     1     -14.702  11.184  -2.370  0.00  0.00    +0.000 C 
ATOM     11  C   UNL     1     -14.102  13.584  -2.330  0.00  0.00    +0.000 C 
ATOM     12  H   UNL     1     -13.903  12.327  -3.888  0.00  0.00    +0.000 HD
ENDROOT
BRANCH   4  16
ATOM     13  O   UNL     1     -15.589   6.407  -1.712  0.00  0.00    +0.000 OA
ATOM     14  C   UNL     1     -17.356   7.158  -0.434  0.00  0.00    +0.000 A 
ATOM     15  C   UNL     1     -17.432   5.731  -0.513  0.00  0.00    +0.000 A 
ATOM     16  C   UNL     1     -16.212   7.572  -1.212  0.00  0.00    +0.000 A 
ATOM     17  C   UNL     1     -16.317   5.280  -1.300  0.00  0.00    +0.000 A 
ATOM     18  C   UNL     1     -16.027   3.952  -1.910  0.00  0.00    +0.000 C 
BRANCH  14  19
ATOM     19  O   UNL     1     -18.502   7.883  -0.269  0.00  0.00    +0.000 OA
ATOM     20  H   UNL     1     -19.284   7.309  -0.108  0.00  0.00    +0.000 HD
ENDBRANCH  14  19
BRANCH  15  21
ATOM     21  O   UNL     1     -18.638   5.083  -0.464  0.00  0.00    +0.000 OA
ATOM     22  H   UNL     1     -18.835   4.798   0.449  0.00  0.00    +0.000 HD
ENDBRANCH  15  21
ENDBRANCH   4  16
BRANCH  11  23
ATOM     23  O   UNL     1     -13.601  14.463  -3.250  0.00  0.00    +0.000 OA
BRANCH  23  24
ATOM     24  C   UNL     1     -12.503  14.068  -3.890  0.00  0.00    +0.000 C 
ATOM     25  C   UNL     1     -11.239  13.611  -4.626  0.00  0.00    +0.000 C 
BRANCH  25  26
ATOM     26  C   UNL     1      -9.976  13.152  -5.361  0.00  0.00    +0.000 C 
ATOM     27  C   UNL     1      -8.715  12.687  -6.095  0.00  0.00    +0.000 C 
ATOM     28  C   UNL     1      -7.459  12.210  -6.832  0.00  0.00    +0.000 C 
ENDBRANCH  25  26
ENDBRANCH  23  24
ENDBRANCH  11  23
TORSDOF 6
ENDMDL
MODEL 4
REMARK VINA RESULT:      -5.6     13.285     14.567
REMARK  Name = 60953_Capecitabine.pdbqt.pdb
REMARK  6 active torsions:
REMARK  status: ('A' for Active; 'I' for Inactive)
REMARK    1  A    between atoms: N_4  and  C_16
REMARK    2  A    between atoms: C_11  and  O_23
REMARK    3  A    between atoms: C_14  and  O_19
REMARK    4  A    between atoms: C_15  and  O_21
REMARK    5  A    between atoms: O_23  and  C_24
REMARK    6  A    between atoms: C_25  and  C_26
REMARK                            x       y       z     vdW  Elec       q    Type
REMARK                         _______ _______ _______ _____ _____    ______ ____
ROOT
ATOM      1  F   UNL     1     -14.587  10.055  -4.287  0.00  0.00    +0.000 F 
ATOM      2  O   UNL     1     -13.822  14.317  -1.132  0.00  0.00    +0.000 OA
ATOM      3  O   UNL     1     -15.086  10.195   0.675  0.00  0.00    +0.000 OA
ATOM      4  N   UNL     1     -14.023  13.464  -3.284  0.00  0.00    +0.000 N 
ATOM      5  N   UNL     1     -14.494  12.138  -1.340  0.00  0.00    +0.000 NA
ATOM      6  N   UNL     1     -15.135   9.889  -1.631  0.00  0.00    +0.000 N 
ATOM      7  C   UNL     1     -14.360  12.358  -3.979  0.00  0.00    +0.000 C 
ATOM      8  C   UNL     1     -14.100  13.374  -1.870  0.00  0.00    +0.000 C 
ATOM      9  C   UNL     1     -14.780  11.200  -3.610  0.00  0.00    +0.000 C 
ATOM     10  C   UNL     1     -14.787  11.134  -2.113  0.00  0.00    +0.000 C 
ATOM     11  C   UNL     1     -15.240   9.496  -0.315  0.00  0.00    +0.000 C 
ATOM     12  H   UNL     1     -15.316   9.150  -2.295  0.00  0.00    +0.000 HD
ENDROOT
BRANCH   4  16
ATOM     13  O   UNL     1     -12.427  15.225  -3.743  0.00  0.00    +0.000 OA
ATOM     14  C   UNL     1     -14.351  15.334  -5.010  0.00  0.00    +0.000 A 
ATOM     15  C   UNL     1     -13.533  16.461  -5.337  0.00  0.00    +0.000 A 
ATOM     16  C   UNL     1     -13.660  14.580  -3.990  0.00  0.00    +0.000 A 
ATOM     17  C   UNL     1     -12.334  16.370  -4.549  0.00  0.00    +0.000 A 
ATOM     18  C   UNL     1     -11.258  17.368  -4.291  0.00  0.00    +0.000 C 
BRANCH  14  19
ATOM     19  O   UNL     1     -15.708  15.430  -5.136  0.00  0.00    +0.000 OA
ATOM     20  H   UNL     1     -16.121  15.881  -4.365  0.00  0.00    +0.000 HD
ENDBRANCH  14  19
BRANCH  15  21
ATOM     21  O   UNL     1     -14.090  17.647  -5.736  0.00  0.00    +0.000 OA
ATOM     22  H   UNL     1     -13.459  18.381  -5.609  0.00  0.00    +0.000 HD
ENDBRANCH  15  21
ENDBRANCH   4  16
BRANCH  11  23
ATOM     23  O   UNL     1     -15.565   8.169  -0.286  0.00  0.00    +0.000 OA
BRANCH  23  24
ATOM     24  C   UNL     1     -15.251   7.472  -1.376  0.00  0.00    +0.000 C 
ATOM     25  C   UNL     1     -14.892   6.670  -2.632  0.00  0.00    +0.000 C 
BRANCH  25  26
ATOM     26  C   UNL     1     -14.535   5.869  -3.887  0.00  0.00    +0.000 C 
ATOM     27  C   UNL     1     -14.174   5.064  -5.139  0.00  0.00    +0.000 C 
ATOM     28  C   UNL     1     -13.808   4.249  -6.384  0.00  0.00    +0.000 C 
ENDBRANCH  25  26
ENDBRANCH  23  24
ENDBRANCH  11  23
TORSDOF 6
ENDMDL
MODEL 5
REMARK VINA RESULT:      -5.4     12.500     13.857
REMARK  Name = 60953_Capecitabine.pdbqt.pdb
REMARK  6 active torsions:
REMARK  status: ('A' for Active; 'I' for Inactive)
REMARK    1  A    between atoms: N_4  and  C_16
REMARK    2  A    between atoms: C_11  and  O_23
REMARK    3  A    between atoms: C_14  and  O_19
REMARK    4  A    between atoms: C_15  and  O_21
REMARK    5  A    between atoms: O_23  and  C_24
REMARK    6  A    between atoms: C_25  and  C_26
REMARK                            x       y       z     vdW  Elec       q    Type
REMARK                         _______ _______ _______ _____ _____    ______ ____
ROOT
ATOM      1  F   UNL     1     -14.438   9.957  -4.218  0.00  0.00    +0.000 F 
ATOM      2  O   UNL     1     -13.885  14.288  -1.114  0.00  0.00    +0.000 OA
ATOM      3  O   UNL     1     -15.072  10.158   0.726  0.00  0.00    +0.000 OA
ATOM      4  N   UNL     1     -14.004  13.396  -3.256  0.00  0.00    +0.000 N 
ATOM      5  N   UNL     1     -14.486  12.087  -1.304  0.00  0.00    +0.000 NA
ATOM      6  N   UNL     1     -15.051   9.816  -1.575  0.00  0.00    +0.000 N 
ATOM      7  C   UNL     1     -14.289  12.271  -3.942  0.00  0.00    +0.000 C 
ATOM      8  C   UNL     1     -14.116  13.326  -1.843  0.00  0.00    +0.000 C 
ATOM      9  C   UNL     1     -14.683  11.106  -3.565  0.00  0.00    +0.000 C 
ATOM     10  C   UNL     1     -14.728  11.063  -2.068  0.00  0.00    +0.000 C 
ATOM     11  C   UNL     1     -15.178   9.440  -0.256  0.00  0.00    +0.000 C 
ATOM     12  H   UNL     1     -15.192   9.061  -2.232  0.00  0.00    +0.000 HD
ENDROOT
BRANCH   4  16
ATOM     13  O   UNL     1     -12.429  15.171  -3.734  0.00  0.00    +0.000 OA
ATOM     14  C   UNL     1     -14.361  15.253  -4.991  0.00  0.00    +0.000 A 
ATOM     15  C   UNL     1     -13.555  16.387  -5.329  0.00  0.00    +0.000 A 
ATOM     16  C   UNL     1     -13.656  14.512  -3.970  0.00  0.00    +0.000 A 
ATOM     17  C   UNL     1     -12.352  16.312  -4.547  0.00  0.00    +0.000 A 
ATOM     18  C   UNL     1     -11.284  17.322  -4.301  0.00  0.00    +0.000 C 
BRANCH  14  19
ATOM     19  O   UNL     1     -15.719  15.335  -5.110  0.00  0.00    +0.000 OA
ATOM     20  H   UNL     1     -16.001  15.525  -6.033  0.00  0.00    +0.000 HD
ENDBRANCH  14  19
BRANCH  15  21
ATOM     21  O   UNL     1     -14.127  17.565  -5.732  0.00  0.00    +0.000 OA
ATOM     22  H   UNL     1     -14.696  17.419  -6.512  0.00  0.00    +0.000 HD
ENDBRANCH  15  21
ENDBRANCH   4  16
BRANCH  11  23
ATOM     23  O   UNL     1     -15.464   8.104  -0.214  0.00  0.00    +0.000 OA
BRANCH  23  24
ATOM     24  C   UNL     1     -16.591   7.734  -0.819  0.00  0.00    +0.000 C 
ATOM     25  C   UNL     1     -17.887   7.308  -1.518  0.00  0.00    +0.000 C 
BRANCH  25  26
ATOM     26  C   UNL     1     -19.181   6.883  -2.217  0.00  0.00    +0.000 C 
ATOM     27  C   UNL     1     -20.471   6.456  -2.922  0.00  0.00    +0.000 C 
ATOM     28  C   UNL     1     -21.757   6.017  -3.633  0.00  0.00    +0.000 C 
ENDBRANCH  25  26
ENDBRANCH  23  24
ENDBRANCH  11  23
TORSDOF 6
ENDMDL
MODEL 6
REMARK VINA RESULT:      -5.3     18.167     21.067
REMARK  Name = 60953_Capecitabine.pdbqt.pdb
REMARK  6 active torsions:
REMARK  status: ('A' for Active; 'I' for Inactive)
REMARK    1  A    between atoms: N_4  and  C_16
REMARK    2  A    between atoms: C_11  and  O_23
REMARK    3  A    between atoms: C_14  and  O_19
REMARK    4  A    between atoms: C_15  and  O_21
REMARK    5  A    between atoms: O_23  and  C_24
REMARK    6  A    between atoms: C_25  and  C_26
REMARK                            x       y       z     vdW  Elec       q    Type
REMARK                         _______ _______ _______ _____ _____    ______ ____
ROOT
ATOM      1  F   UNL     1      -7.414   0.941  -0.638  0.00  0.00    +0.000 F 
ATOM      2  O   UNL     1     -11.971   0.974   2.179  0.00  0.00    +0.000 OA
ATOM      3  O   UNL     1      -7.981  -0.534   4.094  0.00  0.00    +0.000 OA
ATOM      4  N   UNL     1     -10.919   1.221   0.122  0.00  0.00    +0.000 N 
ATOM      5  N   UNL     1      -9.757   0.403   2.055  0.00  0.00    +0.000 NA
ATOM      6  N   UNL     1      -7.467  -0.118   1.863  0.00  0.00    +0.000 N 
ATOM      7  C   UNL     1      -9.743   1.053  -0.516  0.00  0.00    +0.000 C 
ATOM      8  C   UNL     1     -10.955   0.868   1.496  0.00  0.00    +0.000 C 
ATOM      9  C   UNL     1      -8.607   0.594  -0.125  0.00  0.00    +0.000 C 
ATOM     10  C   UNL     1      -8.677   0.291   1.340  0.00  0.00    +0.000 C 
ATOM     11  C   UNL     1      -7.191  -0.473   3.165  0.00  0.00    +0.000 C 
ATOM     12  H   UNL     1      -6.664  -0.148   1.251  0.00  0.00    +0.000 HD
ENDROOT
BRANCH   4  16
ATOM     13  O   UNL     1     -11.893   2.915  -1.308  0.00  0.00    +0.000 OA
ATOM     14  C   UNL     1     -13.316   1.173  -0.795  0.00  0.00    +0.000 A 
ATOM     15  C   UNL     1     -14.035   2.125  -1.586  0.00  0.00    +0.000 A 
ATOM     16  C   UNL     1     -11.982   1.693  -0.604  0.00  0.00    +0.000 A 
ATOM     17  C   UNL     1     -13.131   3.195  -1.907  0.00  0.00    +0.000 A 
ATOM     18  C   UNL     1     -13.383   4.545  -2.482  0.00  0.00    +0.000 C 
BRANCH  14  19
ATOM     19  O   UNL     1     -13.994   0.394   0.099  0.00  0.00    +0.000 OA
ATOM     20  H   UNL     1     -14.159  -0.511  -0.248  0.00  0.00    +0.000 HD
ENDBRANCH  14  19
BRANCH  15  21
ATOM     21  O   UNL     1     -15.386   2.292  -1.434  0.00  0.00    +0.000 OA
ATOM     22  H   UNL     1     -15.790   1.486  -1.062  0.00  0.00    +0.000 HD
ENDBRANCH  15  21
ENDBRANCH   4  16
BRANCH  11  23
ATOM     23  O   UNL     1      -5.859  -0.769   3.257  0.00  0.00    +0.000 OA
BRANCH  23  24
ATOM     24  C   UNL     1      -5.027   0.263   3.139  0.00  0.00    +0.000 C 
ATOM     25  C   UNL     1      -4.071   1.453   3.001  0.00  0.00    +0.000 C 
BRANCH  25  26
ATOM     26  C   UNL     1      -3.116   2.642   2.861  0.00  0.00    +0.000 C 
ATOM     27  C   UNL     1      -2.165   3.834   2.727  0.00  0.00    +0.000 C 
ATOM     28  C   UNL     1      -1.216   5.032   2.604  0.00  0.00    +0.000 C 
ENDBRANCH  25  26
ENDBRANCH  23  24
ENDBRANCH  11  23
TORSDOF 6
ENDMDL
MODEL 7
REMARK VINA RESULT:      -5.2     13.939     15.171
REMARK  Name = 60953_Capecitabine.pdbqt.pdb
REMARK  6 active torsions:
REMARK  status: ('A' for Active; 'I' for Inactive)
REMARK    1  A    between atoms: N_4  and  C_16
REMARK    2  A    between atoms: C_11  and  O_23
REMARK    3  A    between atoms: C_14  and  O_19
REMARK    4  A    between atoms: C_15  and  O_21
REMARK    5  A    between atoms: O_23  and  C_24
REMARK    6  A    between atoms: C_25  and  C_26
REMARK                            x       y       z     vdW  Elec       q    Type
REMARK                         _______ _______ _______ _____ _____    ______ ____
ROOT
ATOM      1  F   UNL     1     -14.200  10.137  -4.754  0.00  0.00    +0.000 F 
ATOM      2  O   UNL     1     -13.718  14.332  -1.457  0.00  0.00    +0.000 OA
ATOM      3  O   UNL     1     -16.413  10.687  -0.316  0.00  0.00    +0.000 OA
ATOM      4  N   UNL     1     -13.309  13.408  -3.549  0.00  0.00    +0.000 N 
ATOM      5  N   UNL     1     -14.726  12.334  -1.938  0.00  0.00    +0.000 NA
ATOM      6  N   UNL     1     -15.691  10.256  -2.486  0.00  0.00    +0.000 N 
ATOM      7  C   UNL     1     -13.604  12.356  -4.340  0.00  0.00    +0.000 C 
ATOM      8  C   UNL     1     -13.909  13.424  -2.263  0.00  0.00    +0.000 C 
ATOM      9  C   UNL     1     -14.370  11.336  -4.172  0.00  0.00    +0.000 C 
ATOM     10  C   UNL     1     -14.931  11.368  -2.784  0.00  0.00    +0.000 C 
ATOM     11  C   UNL     1     -16.346   9.975  -1.307  0.00  0.00    +0.000 C 
ATOM     12  H   UNL     1     -15.776   9.530  -3.184  0.00  0.00    +0.000 HD
ENDROOT
BRANCH   4  16
ATOM     13  O   UNL     1     -12.973  15.671  -4.340  0.00  0.00    +0.000 OA
ATOM     14  C   UNL     1     -11.086  14.348  -4.420  0.00  0.00    +0.000 A 
ATOM     15  C   UNL     1     -10.761  15.628  -4.971  0.00  0.00    +0.000 A 
ATOM     16  C   UNL     1     -12.482  14.378  -4.052  0.00  0.00    +0.000 A 
ATOM     17  C   UNL     1     -11.944  16.442  -4.902  0.00  0.00    +0.000 A 
ATOM     18  C   UNL     1     -12.265  17.751  -5.536  0.00  0.00    +0.000 C 
BRANCH  14  19
ATOM     19  O   UNL     1     -10.406  13.241  -4.845  0.00  0.00    +0.000 OA
ATOM     20  H   UNL     1      -9.913  12.805  -4.115  0.00  0.00    +0.000 HD
ENDBRANCH  14  19
BRANCH  15  21
ATOM     21  O   UNL     1      -9.807  15.756  -5.946  0.00  0.00    +0.000 OA
ATOM     22  H   UNL     1     -10.133  15.393  -6.792  0.00  0.00    +0.000 HD
ENDBRANCH  15  21
ENDBRANCH   4  16
BRANCH  11  23
ATOM     23  O   UNL     1     -16.940   8.750  -1.424  0.00  0.00    +0.000 OA
BRANCH  23  24
ATOM     24  C   UNL     1     -16.116   7.723  -1.618  0.00  0.00    +0.000 C 
ATOM     25  C   UNL     1     -15.165   6.542  -1.841  0.00  0.00    +0.000 C 
BRANCH  25  26
ATOM     26  C   UNL     1     -14.214   5.363  -2.066  0.00  0.00    +0.000 C 
ATOM     27  C   UNL     1     -13.260   4.186  -2.285  0.00  0.00    +0.000 C 
ATOM     28  C   UNL     1     -12.304   3.006  -2.491  0.00  0.00    +0.000 C 
ENDBRANCH  25  26
ENDBRANCH  23  24
ENDBRANCH  11  23
TORSDOF 6
ENDMDL
MODEL 8
REMARK VINA RESULT:      -5.1      2.522      8.965
REMARK  Name = 60953_Capecitabine.pdbqt.pdb
REMARK  6 active torsions:
REMARK  status: ('A' for Active; 'I' for Inactive)
REMARK    1  A    between atoms: N_4  and  C_16
REMARK    2  A    between atoms: C_11  and  O_23
REMARK    3  A    between atoms: C_14  and  O_19
REMARK    4  A    between atoms: C_15  and  O_21
REMARK    5  A    between atoms: O_23  and  C_24
REMARK    6  A    between atoms: C_25  and  C_26
REMARK                            x       y       z     vdW  Elec       q    Type
REMARK                         _______ _______ _______ _____ _____    ______ ____
ROOT
ATOM      1  F   UNL     1     -24.744  14.394   6.640  0.00  0.00    +0.000 F 
ATOM      2  O   UNL     1     -22.081   9.971   8.070  0.00  0.00    +0.000 OA
ATOM      3  O   UNL     1     -20.889  14.148   9.798  0.00  0.00    +0.000 OA
ATOM      4  N   UNL     1     -23.649  10.967   6.675  0.00  0.00    +0.000 N 
ATOM      5  N   UNL     1     -22.265  12.252   8.156  0.00  0.00    +0.000 NA
ATOM      6  N   UNL     1     -22.546  14.590   8.225  0.00  0.00    +0.000 N 
ATOM      7  C   UNL     1     -24.160  12.158   6.304  0.00  0.00    +0.000 C 
ATOM      8  C   UNL     1     -22.624  10.993   7.656  0.00  0.00    +0.000 C 
ATOM      9  C   UNL     1     -23.879  13.365   6.650  0.00  0.00    +0.000 C 
ATOM     10  C   UNL     1     -22.838  13.337   7.726  0.00  0.00    +0.000 C 
ATOM     11  C   UNL     1     -21.640  14.913   9.211  0.00  0.00    +0.000 C 
ATOM     12  H   UNL     1     -23.058  15.382   7.863  0.00  0.00    +0.000 HD
ENDROOT
BRANCH   4  16
ATOM     13  O   UNL     1     -24.082   8.586   6.713  0.00  0.00    +0.000 OA
ATOM     14  C   UNL     1     -24.726   9.637   4.763  0.00  0.00    +0.000 A 
ATOM     15  C   UNL     1     -24.979   8.235   4.624  0.00  0.00    +0.000 A 
ATOM     16  C   UNL     1     -24.138   9.841   6.067  0.00  0.00    +0.000 A 
ATOM     17  C   UNL     1     -24.585   7.599   5.851  0.00  0.00    +0.000 A 
ATOM     18  C   UNL     1     -24.392   6.160   6.186  0.00  0.00    +0.000 C 
BRANCH  14  19
ATOM     19  O   UNL     1     -24.458  10.385   3.652  0.00  0.00    +0.000 OA
ATOM     20  H   UNL     1     -23.589  10.840   3.712  0.00  0.00    +0.000 HD
ENDBRANCH  14  19
BRANCH  15  21
ATOM     21  O   UNL     1     -24.920   7.625   3.399  0.00  0.00    +0.000 OA
ATOM     22  H   UNL     1     -24.838   8.290   2.690  0.00  0.00    +0.000 HD
ENDBRANCH  15  21
ENDBRANCH   4  16
BRANCH  11  23
ATOM     23  O   UNL     1     -21.700  16.261   9.427  0.00  0.00    +0.000 OA
BRANCH  23  24
ATOM     24  C   UNL     1     -22.675  16.675  10.233  0.00  0.00    +0.000 C 
ATOM     25  C   UNL     1     -23.796  17.151  11.163  0.00  0.00    +0.000 C 
BRANCH  25  26
ATOM     26  C   UNL     1     -24.916  17.624  12.094  0.00  0.00    +0.000 C 
ATOM     27  C   UNL     1     -26.033  18.103  13.025  0.00  0.00    +0.000 C 
ATOM     28  C   UNL     1     -27.149  18.596  13.954  0.00  0.00    +0.000 C 
ENDBRANCH  25  26
ENDBRANCH  23  24
ENDBRANCH  11  23
TORSDOF 6
ENDMDL
MODEL 9
REMARK VINA RESULT:      -5.0      2.541      8.448
REMARK  Name = 60953_Capecitabine.pdbqt.pdb
REMARK  6 active torsions:
REMARK  status: ('A' for Active; 'I' for Inactive)
REMARK    1  A    between atoms: N_4  and  C_16
REMARK    2  A    between atoms: C_11  and  O_23
REMARK    3  A    between atoms: C_14  and  O_19
REMARK    4  A    between atoms: C_15  and  O_21
REMARK    5  A    between atoms: O_23  and  C_24
REMARK    6  A    between atoms: C_25  and  C_26
REMARK                            x       y       z     vdW  Elec       q    Type
REMARK                         _______ _______ _______ _____ _____    ______ ____
ROOT
ATOM      1  F   UNL     1     -24.898  14.138   6.045  0.00  0.00    +0.000 F 
ATOM      2  O   UNL     1     -22.412   9.814   8.001  0.00  0.00    +0.000 OA
ATOM      3  O   UNL     1     -21.348  14.094   9.552  0.00  0.00    +0.000 OA
ATOM      4  N   UNL     1     -23.839  10.719   6.406  0.00  0.00    +0.000 N 
ATOM      5  N   UNL     1     -22.585  12.096   7.920  0.00  0.00    +0.000 NA
ATOM      6  N   UNL     1     -22.851  14.434   7.808  0.00  0.00    +0.000 N 
ATOM      7  C   UNL     1     -24.304  11.884   5.912  0.00  0.00    +0.000 C 
ATOM      8  C   UNL     1     -22.908  10.807   7.473  0.00  0.00    +0.000 C 
ATOM      9  C   UNL     1     -24.046  13.110   6.202  0.00  0.00    +0.000 C 
ATOM     10  C   UNL     1     -23.107  13.151   7.368  0.00  0.00    +0.000 C 
ATOM     11  C   UNL     1     -22.036  14.819   8.849  0.00  0.00    +0.000 C 
ATOM     12  H   UNL     1     -23.321  15.202   7.350  0.00  0.00    +0.000 HD
ENDROOT
BRANCH   4  16
ATOM     13  O   UNL     1     -24.245   8.336   6.543  0.00  0.00    +0.000 OA
ATOM     14  C   UNL     1     -24.792   9.277   4.509  0.00  0.00    +0.000 A 
ATOM     15  C   UNL     1     -25.021   7.866   4.429  0.00  0.00    +0.000 A 
ATOM     16  C   UNL     1     -24.280   9.556   5.831  0.00  0.00    +0.000 A 
ATOM     17  C   UNL     1     -24.687   7.299   5.707  0.00  0.00    +0.000 A 
ATOM     18  C   UNL     1     -24.496   5.882   6.126  0.00  0.00    +0.000 C 
BRANCH  14  19
ATOM     19  O   UNL     1     -24.473   9.971   3.377  0.00  0.00    +0.000 OA
ATOM     20  H   UNL     1     -24.798  10.898   3.406  0.00  0.00    +0.000 HD
ENDBRANCH  14  19
BRANCH  15  21
ATOM     21  O   UNL     1     -24.886   7.195   3.243  0.00  0.00    +0.000 OA
ATOM     22  H   UNL     1     -24.892   7.821   2.494  0.00  0.00    +0.000 HD
ENDBRANCH  15  21
ENDBRANCH   4  16
BRANCH  11  23
ATOM     23  O   UNL     1     -22.104  16.179   8.970  0.00  0.00    +0.000 OA
BRANCH  23  24
ATOM     24  C   UNL     1     -21.927  16.869   7.845  0.00  0.00    +0.000 C 
ATOM     25  C   UNL     1     -21.724  17.662   6.550  0.00  0.00    +0.000 C 
BRANCH  25  26
ATOM     26  C   UNL     1     -21.520  18.453   5.254  0.00  0.00    +0.000 C 
ATOM     27  C   UNL     1     -21.317  19.237   3.955  0.00  0.00    +0.000 C 
ATOM     28  C   UNL     1     -21.119  20.013   2.648  0.00  0.00    +0.000 C 
ENDBRANCH  25  26
ENDBRANCH  23  24
ENDBRANCH  11  23
TORSDOF 6
ENDMDL
