MODEL 1
REMARK VINA RESULT:      -5.4      0.000      0.000
REMARK  Name = 6223_Gliotoxin.pdbqt.pdb
REMARK  3 active torsions:
REMARK  status: ('A' for Active; 'I' for Inactive)
REMARK    1  A    between atoms: C_10  and  C_21
REMARK    2  A    between atoms: C_14  and  O_19
REMARK    3  A    between atoms: C_21  and  O_22
REMARK                            x       y       z     vdW  Elec       q    Type
REMARK                         _______ _______ _______ _____ _____    ______ ____
ROOT
ATOM      1  S   UNL     1     -17.113  10.727  -3.709  0.00  0.00    +0.000 S 
ATOM      2  S   UNL     1     -17.593  10.146  -1.787  0.00  0.00    +0.000 S 
ATOM      3  O   UNL     1     -14.764  11.869  -0.315  0.00  0.00    +0.000 OA
ATOM      4  O   UNL     1     -14.579   8.274  -4.146  0.00  0.00    +0.000 OA
ATOM      5  N   UNL     1     -14.716  11.384  -2.561  0.00  0.00    +0.000 N 
ATOM      6  N   UNL     1     -15.193   8.784  -1.934  0.00  0.00    +0.000 N 
ATOM      7  C   UNL     1     -15.298  10.542  -3.652  0.00  0.00    +0.000 C 
ATOM      8  C   UNL     1     -13.903  12.394  -3.077  0.00  0.00    +0.000 A 
ATOM      9  C   UNL     1     -14.639  11.103  -4.829  0.00  0.00    +0.000 C 
ATOM     10  C   UNL     1     -15.895   9.806  -1.090  0.00  0.00    +0.000 C 
ATOM     11  C   UNL     1     -13.764  12.163  -4.557  0.00  0.00    +0.000 A 
ATOM     12  C   UNL     1     -15.062  11.119  -1.242  0.00  0.00    +0.000 C 
ATOM     13  C   UNL     1     -14.953   9.092  -3.304  0.00  0.00    +0.000 C 
ATOM     14  C   UNL     1     -13.561  13.714  -2.495  0.00  0.00    +0.000 A 
ATOM     15  C   UNL     1     -13.576  13.258  -5.237  0.00  0.00    +0.000 A 
ATOM     16  C   UNL     1     -13.305  14.690  -3.519  0.00  0.00    +0.000 A 
ATOM     17  C   UNL     1     -14.954   7.468  -1.342  0.00  0.00    +0.000 C 
ATOM     18  C   UNL     1     -13.288  14.677  -4.722  0.00  0.00    +0.000 A 
ENDROOT
BRANCH  14  19
ATOM     19  O   UNL     1     -13.955  14.100  -1.247  0.00  0.00    +0.000 OA
ATOM     20  H   UNL     1     -13.481  14.892  -0.922  0.00  0.00    +0.000 HD
ENDBRANCH  14  19
BRANCH  10  21
ATOM     21  C   UNL     1     -16.038   9.439   0.345  0.00  0.00    +0.000 C 
BRANCH  21  22
ATOM     22  O   UNL     1     -16.168   9.128   1.637  0.00  0.00    +0.000 OA
ATOM     23  H   UNL     1     -16.993   8.633   1.801  0.00  0.00    +0.000 HD
ENDBRANCH  21  22
ENDBRANCH  10  21
TORSDOF 3
ENDMDL
MODEL 2
REMARK VINA RESULT:      -5.4      3.673      5.353
REMARK  Name = 6223_Gliotoxin.pdbqt.pdb
REMARK  3 active torsions:
REMARK  status: ('A' for Active; 'I' for Inactive)
REMARK    1  A    between atoms: C_10  and  C_21
REMARK    2  A    between atoms: C_14  and  O_19
REMARK    3  A    between atoms: C_21  and  O_22
REMARK                            x       y       z     vdW  Elec       q    Type
REMARK                         _______ _______ _______ _____ _____    ______ ____
ROOT
ATOM      1  S   UNL     1     -17.945   7.294  -3.843  0.00  0.00    +0.000 S 
ATOM      2  S   UNL     1     -18.937   5.616  -3.165  0.00  0.00    +0.000 S 
ATOM      3  O   UNL     1     -17.453   5.793   0.138  0.00  0.00    +0.000 OA
ATOM      4  O   UNL     1     -14.871   5.612  -4.439  0.00  0.00    +0.000 OA
ATOM      5  N   UNL     1     -16.432   6.907  -1.594  0.00  0.00    +0.000 N 
ATOM      6  N   UNL     1     -16.387   4.568  -2.975  0.00  0.00    +0.000 N 
ATOM      7  C   UNL     1     -16.308   7.024  -3.081  0.00  0.00    +0.000 C 
ATOM      8  C   UNL     1     -15.791   7.963  -0.945  0.00  0.00    +0.000 A 
ATOM      9  C   UNL     1     -15.433   8.187  -3.204  0.00  0.00    +0.000 C 
ATOM     10  C   UNL     1     -17.604   4.814  -2.133  0.00  0.00    +0.000 C 
ATOM     11  C   UNL     1     -15.047   8.759  -1.984  0.00  0.00    +0.000 A 
ATOM     12  C   UNL     1     -17.164   5.856  -1.056  0.00  0.00    +0.000 C 
ATOM     13  C   UNL     1     -15.742   5.690  -3.570  0.00  0.00    +0.000 C 
ATOM     14  C   UNL     1     -16.064   8.552   0.387  0.00  0.00    +0.000 A 
ATOM     15  C   UNL     1     -14.921  10.018  -1.680  0.00  0.00    +0.000 A 
ATOM     16  C   UNL     1     -15.715   9.946   0.427  0.00  0.00    +0.000 A 
ATOM     17  C   UNL     1     -16.043   3.178  -3.274  0.00  0.00    +0.000 C 
ATOM     18  C   UNL     1     -15.244  10.728  -0.355  0.00  0.00    +0.000 A 
ENDROOT
BRANCH  14  19
ATOM     19  O   UNL     1     -16.989   8.039   1.250  0.00  0.00    +0.000 OA
ATOM     20  H   UNL     1     -17.692   7.528   0.801  0.00  0.00    +0.000 HD
ENDBRANCH  14  19
BRANCH  10  21
ATOM     21  C   UNL     1     -18.172   3.600  -1.487  0.00  0.00    +0.000 C 
BRANCH  21  22
ATOM     22  O   UNL     1     -18.668   2.500  -0.915  0.00  0.00    +0.000 OA
ATOM     23  H   UNL     1     -18.386   1.696  -1.390  0.00  0.00    +0.000 HD
ENDBRANCH  21  22
ENDBRANCH  10  21
TORSDOF 3
ENDMDL
MODEL 3
REMARK VINA RESULT:      -4.6      4.585      5.971
REMARK  Name = 6223_Gliotoxin.pdbqt.pdb
REMARK  3 active torsions:
REMARK  status: ('A' for Active; 'I' for Inactive)
REMARK    1  A    between atoms: C_10  and  C_21
REMARK    2  A    between atoms: C_14  and  O_19
REMARK    3  A    between atoms: C_21  and  O_22
REMARK                            x       y       z     vdW  Elec       q    Type
REMARK                         _______ _______ _______ _____ _____    ______ ____
ROOT
ATOM      1  S   UNL     1     -17.598   7.678  -4.022  0.00  0.00    +0.000 S 
ATOM      2  S   UNL     1     -19.638   7.796  -4.312  0.00  0.00    +0.000 S 
ATOM      3  O   UNL     1     -20.291   8.855  -0.906  0.00  0.00    +0.000 OA
ATOM      4  O   UNL     1     -17.702   4.525  -2.386  0.00  0.00    +0.000 OA
ATOM      5  N   UNL     1     -18.295   7.817  -1.378  0.00  0.00    +0.000 N 
ATOM      6  N   UNL     1     -19.705   5.755  -2.448  0.00  0.00    +0.000 N 
ATOM      7  C   UNL     1     -17.557   6.950  -2.349  0.00  0.00    +0.000 C 
ATOM      8  C   UNL     1     -17.436   8.349  -0.415  0.00  0.00    +0.000 A 
ATOM      9  C   UNL     1     -16.216   6.951  -1.770  0.00  0.00    +0.000 C 
ATOM     10  C   UNL     1     -20.262   7.128  -2.683  0.00  0.00    +0.000 C 
ATOM     11  C   UNL     1     -16.085   7.712  -0.600  0.00  0.00    +0.000 A 
ATOM     12  C   UNL     1     -19.657   8.024  -1.555  0.00  0.00    +0.000 C 
ATOM     13  C   UNL     1     -18.290   5.608  -2.369  0.00  0.00    +0.000 C 
ATOM     14  C   UNL     1     -17.568   9.596   0.375  0.00  0.00    +0.000 A 
ATOM     15  C   UNL     1     -15.098   8.476  -0.233  0.00  0.00    +0.000 A 
ATOM     16  C   UNL     1     -16.282  10.141   0.715  0.00  0.00    +0.000 A 
ATOM     17  C   UNL     1     -20.640   4.632  -2.490  0.00  0.00    +0.000 C 
ATOM     18  C   UNL     1     -15.142   9.813   0.523  0.00  0.00    +0.000 A 
ENDROOT
BRANCH  14  19
ATOM     19  O   UNL     1     -18.673  10.395   0.322  0.00  0.00    +0.000 OA
ATOM     20  H   UNL     1     -18.863  10.846   1.170  0.00  0.00    +0.000 HD
ENDBRANCH  14  19
BRANCH  10  21
ATOM     21  C   UNL     1     -21.748   7.209  -2.676  0.00  0.00    +0.000 C 
BRANCH  21  22
ATOM     22  O   UNL     1     -23.080   7.299  -2.677  0.00  0.00    +0.000 OA
ATOM     23  H   UNL     1     -23.383   8.050  -3.220  0.00  0.00    +0.000 HD
ENDBRANCH  21  22
ENDBRANCH  10  21
TORSDOF 3
ENDMDL
MODEL 4
REMARK VINA RESULT:      -4.5     26.593     28.903
REMARK  Name = 6223_Gliotoxin.pdbqt.pdb
REMARK  3 active torsions:
REMARK  status: ('A' for Active; 'I' for Inactive)
REMARK    1  A    between atoms: C_10  and  C_21
REMARK    2  A    between atoms: C_14  and  O_19
REMARK    3  A    between atoms: C_21  and  O_22
REMARK                            x       y       z     vdW  Elec       q    Type
REMARK                         _______ _______ _______ _____ _____    ______ ____
ROOT
ATOM      1  S   UNL     1     -10.918  18.240  25.319  0.00  0.00    +0.000 S 
ATOM      2  S   UNL     1     -12.135  19.861  24.929  0.00  0.00    +0.000 S 
ATOM      3  O   UNL     1     -15.141  18.159  26.030  0.00  0.00    +0.000 OA
ATOM      4  O   UNL     1     -11.780  16.490  22.349  0.00  0.00    +0.000 OA
ATOM      5  N   UNL     1     -13.302  16.901  25.466  0.00  0.00    +0.000 N 
ATOM      6  N   UNL     1     -13.267  18.167  23.062  0.00  0.00    +0.000 N 
ATOM      7  C   UNL     1     -11.996  16.887  24.736  0.00  0.00    +0.000 C 
ATOM      8  C   UNL     1     -13.459  15.758  26.250  0.00  0.00    +0.000 A 
ATOM      9  C   UNL     1     -11.483  15.567  25.093  0.00  0.00    +0.000 C 
ATOM     10  C   UNL     1     -13.648  19.007  24.244  0.00  0.00    +0.000 C 
ATOM     11  C   UNL     1     -12.318  14.826  25.941  0.00  0.00    +0.000 A 
ATOM     12  C   UNL     1     -14.141  18.000  25.332  0.00  0.00    +0.000 C 
ATOM     13  C   UNL     1     -12.328  17.113  23.259  0.00  0.00    +0.000 C 
ATOM     14  C   UNL     1     -14.262  15.565  27.480  0.00  0.00    +0.000 A 
ATOM     15  C   UNL     1     -11.988  14.060  26.940  0.00  0.00    +0.000 A 
ATOM     16  C   UNL     1     -13.682  14.567  28.337  0.00  0.00    +0.000 A 
ATOM     17  C   UNL     1     -13.749  18.592  21.748  0.00  0.00    +0.000 C 
ATOM     18  C   UNL     1     -12.718  13.851  28.277  0.00  0.00    +0.000 A 
ENDROOT
BRANCH  14  19
ATOM     19  O   UNL     1     -15.083  16.529  27.990  0.00  0.00    +0.000 OA
ATOM     20  H   UNL     1     -15.864  16.164  28.454  0.00  0.00    +0.000 HD
ENDBRANCH  14  19
BRANCH  10  21
ATOM     21  C   UNL     1     -14.688  20.034  23.970  0.00  0.00    +0.000 C 
BRANCH  21  22
ATOM     22  O   UNL     1     -15.629  20.946  23.710  0.00  0.00    +0.000 OA
ATOM     23  H   UNL     1     -16.478  20.707  24.127  0.00  0.00    +0.000 HD
ENDBRANCH  21  22
ENDBRANCH  10  21
TORSDOF 3
ENDMDL
MODEL 5
REMARK VINA RESULT:      -4.5     11.777     13.514
REMARK  Name = 6223_Gliotoxin.pdbqt.pdb
REMARK  3 active torsions:
REMARK  status: ('A' for Active; 'I' for Inactive)
REMARK    1  A    between atoms: C_10  and  C_21
REMARK    2  A    between atoms: C_14  and  O_19
REMARK    3  A    between atoms: C_21  and  O_22
REMARK                            x       y       z     vdW  Elec       q    Type
REMARK                         _______ _______ _______ _____ _____    ______ ____
ROOT
ATOM      1  S   UNL     1     -10.224  -1.782   1.975  0.00  0.00    +0.000 S 
ATOM      2  S   UNL     1      -9.911  -2.242  -0.013  0.00  0.00    +0.000 S 
ATOM      3  O   UNL     1      -7.439   0.371  -0.465  0.00  0.00    +0.000 OA
ATOM      4  O   UNL     1     -12.346   0.992   1.317  0.00  0.00    +0.000 OA
ATOM      5  N   UNL     1      -8.885   0.513   1.316  0.00  0.00    +0.000 N 
ATOM      6  N   UNL     1     -10.948   0.285  -0.437  0.00  0.00    +0.000 N 
ATOM      7  C   UNL     1     -10.184   0.041   1.888  0.00  0.00    +0.000 C 
ATOM      8  C   UNL     1      -8.146   1.233   2.256  0.00  0.00    +0.000 A 
ATOM      9  C   UNL     1     -10.158   0.665   3.209  0.00  0.00    +0.000 C 
ATOM     10  C   UNL     1      -9.728  -0.533  -0.743  0.00  0.00    +0.000 C 
ATOM     11  C   UNL     1      -9.010   1.425   3.473  0.00  0.00    +0.000 A 
ATOM     12  C   UNL     1      -8.554   0.168   0.011  0.00  0.00    +0.000 C 
ATOM     13  C   UNL     1     -11.275   0.521   0.929  0.00  0.00    +0.000 C 
ATOM     14  C   UNL     1      -6.680   1.430   2.347  0.00  0.00    +0.000 A 
ATOM     15  C   UNL     1      -8.332   1.517   4.580  0.00  0.00    +0.000 A 
ATOM     16  C   UNL     1      -6.257   1.609   3.709  0.00  0.00    +0.000 A 
ATOM     17  C   UNL     1     -11.820   0.640  -1.556  0.00  0.00    +0.000 C 
ATOM     18  C   UNL     1      -6.814   1.652   4.774  0.00  0.00    +0.000 A 
ENDROOT
BRANCH  14  19
ATOM     19  O   UNL     1      -5.809   0.973   1.401  0.00  0.00    +0.000 OA
ATOM     20  H   UNL     1      -4.899   1.313   1.519  0.00  0.00    +0.000 HD
ENDBRANCH  14  19
BRANCH  10  21
ATOM     21  C   UNL     1      -9.415  -0.669  -2.191  0.00  0.00    +0.000 C 
BRANCH  21  22
ATOM     22  O   UNL     1      -9.122  -0.775  -3.490  0.00  0.00    +0.000 OA
ATOM     23  H   UNL     1      -9.230  -1.693  -3.803  0.00  0.00    +0.000 HD
ENDBRANCH  21  22
ENDBRANCH  10  21
TORSDOF 3
ENDMDL
MODEL 6
REMARK VINA RESULT:      -4.3      5.603      7.474
REMARK  Name = 6223_Gliotoxin.pdbqt.pdb
REMARK  3 active torsions:
REMARK  status: ('A' for Active; 'I' for Inactive)
REMARK    1  A    between atoms: C_10  and  C_21
REMARK    2  A    between atoms: C_14  and  O_19
REMARK    3  A    between atoms: C_21  and  O_22
REMARK                            x       y       z     vdW  Elec       q    Type
REMARK                         _______ _______ _______ _____ _____    ______ ____
ROOT
ATOM      1  S   UNL     1     -15.007   4.350  -4.347  0.00  0.00    +0.000 S 
ATOM      2  S   UNL     1     -15.607   2.400  -4.034  0.00  0.00    +0.000 S 
ATOM      3  O   UNL     1     -17.593   3.238  -1.119  0.00  0.00    +0.000 OA
ATOM      4  O   UNL     1     -12.495   4.305  -1.834  0.00  0.00    +0.000 OA
ATOM      5  N   UNL     1     -15.965   4.707  -1.808  0.00  0.00    +0.000 N 
ATOM      6  N   UNL     1     -14.175   2.666  -1.685  0.00  0.00    +0.000 N 
ATOM      7  C   UNL     1     -14.721   4.875  -2.623  0.00  0.00    +0.000 C 
ATOM      8  C   UNL     1     -16.456   5.938  -1.371  0.00  0.00    +0.000 A 
ATOM      9  C   UNL     1     -14.493   6.312  -2.504  0.00  0.00    +0.000 C 
ATOM     10  C   UNL     1     -15.550   2.311  -2.170  0.00  0.00    +0.000 C 
ATOM     11  C   UNL     1     -15.448   6.993  -1.736  0.00  0.00    +0.000 A 
ATOM     12  C   UNL     1     -16.489   3.434  -1.626  0.00  0.00    +0.000 C 
ATOM     13  C   UNL     1     -13.668   3.963  -1.990  0.00  0.00    +0.000 C 
ATOM     14  C   UNL     1     -17.844   6.325  -1.021  0.00  0.00    +0.000 A 
ATOM     15  C   UNL     1     -15.977   8.164  -1.948  0.00  0.00    +0.000 A 
ATOM     16  C   UNL     1     -18.081   7.720  -1.276  0.00  0.00    +0.000 A 
ATOM     17  C   UNL     1     -13.376   1.600  -1.082  0.00  0.00    +0.000 C 
ATOM     18  C   UNL     1     -17.416   8.635  -1.685  0.00  0.00    +0.000 A 
ENDROOT
BRANCH  14  19
ATOM     19  O   UNL     1     -18.879   5.436  -0.995  0.00  0.00    +0.000 OA
ATOM     20  H   UNL     1     -19.607   5.674  -1.604  0.00  0.00    +0.000 HD
ENDBRANCH  14  19
BRANCH  10  21
ATOM     21  C   UNL     1     -16.034   0.970  -1.745  0.00  0.00    +0.000 C 
BRANCH  21  22
ATOM     22  O   UNL     1     -16.486  -0.227  -1.362  0.00  0.00    +0.000 OA
ATOM     23  H   UNL     1     -17.453  -0.214  -1.231  0.00  0.00    +0.000 HD
ENDBRANCH  21  22
ENDBRANCH  10  21
TORSDOF 3
ENDMDL
MODEL 7
REMARK VINA RESULT:      -4.2     26.588     29.119
REMARK  Name = 6223_Gliotoxin.pdbqt.pdb
REMARK  3 active torsions:
REMARK  status: ('A' for Active; 'I' for Inactive)
REMARK    1  A    between atoms: C_10  and  C_21
REMARK    2  A    between atoms: C_14  and  O_19
REMARK    3  A    between atoms: C_21  and  O_22
REMARK                            x       y       z     vdW  Elec       q    Type
REMARK                         _______ _______ _______ _____ _____    ______ ____
ROOT
ATOM      1  S   UNL     1     -29.266  13.046  23.876  0.00  0.00    +0.000 S 
ATOM      2  S   UNL     1     -28.928  11.071  23.382  0.00  0.00    +0.000 S 
ATOM      3  O   UNL     1     -25.461  11.161  24.436  0.00  0.00    +0.000 OA
ATOM      4  O   UNL     1     -27.745  14.359  20.944  0.00  0.00    +0.000 OA
ATOM      5  N   UNL     1     -26.532  13.145  23.987  0.00  0.00    +0.000 N 
ATOM      6  N   UNL     1     -27.177  12.156  21.539  0.00  0.00    +0.000 N 
ATOM      7  C   UNL     1     -27.699  13.788  23.305  0.00  0.00    +0.000 C 
ATOM      8  C   UNL     1     -25.859  14.051  24.807  0.00  0.00    +0.000 A 
ATOM      9  C   UNL     1     -27.548  15.177  23.730  0.00  0.00    +0.000 C 
ATOM     10  C   UNL     1     -27.203  11.176  22.675  0.00  0.00    +0.000 C 
ATOM     11  C   UNL     1     -26.454  15.414  24.574  0.00  0.00    +0.000 A 
ATOM     12  C   UNL     1     -26.288  11.793  23.782  0.00  0.00    +0.000 C 
ATOM     13  C   UNL     1     -27.528  13.510  21.810  0.00  0.00    +0.000 C 
ATOM     14  C   UNL     1     -25.038  13.796  26.014  0.00  0.00    +0.000 A 
ATOM     15  C   UNL     1     -26.383  16.195  25.613  0.00  0.00    +0.000 A 
ATOM     16  C   UNL     1     -25.086  14.904  26.928  0.00  0.00    +0.000 A 
ATOM     17  C   UNL     1     -26.962  11.624  20.194  0.00  0.00    +0.000 C 
ATOM     18  C   UNL     1     -25.618  15.982  26.930  0.00  0.00    +0.000 A 
ENDROOT
BRANCH  14  19
ATOM     19  O   UNL     1     -24.739  12.539  26.457  0.00  0.00    +0.000 OA
ATOM     20  H   UNL     1     -25.164  12.322  27.311  0.00  0.00    +0.000 HD
ENDBRANCH  14  19
BRANCH  10  21
ATOM     21  C   UNL     1     -26.750   9.803  22.325  0.00  0.00    +0.000 C 
BRANCH  21  22
ATOM     22  O   UNL     1     -26.349   8.564  22.029  0.00  0.00    +0.000 OA
ATOM     23  H   UNL     1     -26.475   7.961  22.785  0.00  0.00    +0.000 HD
ENDBRANCH  21  22
ENDBRANCH  10  21
TORSDOF 3
ENDMDL
MODEL 8
REMARK VINA RESULT:      -4.2     18.982     20.251
REMARK  Name = 6223_Gliotoxin.pdbqt.pdb
REMARK  3 active torsions:
REMARK  status: ('A' for Active; 'I' for Inactive)
REMARK    1  A    between atoms: C_10  and  C_21
REMARK    2  A    between atoms: C_14  and  O_19
REMARK    3  A    between atoms: C_21  and  O_22
REMARK                            x       y       z     vdW  Elec       q    Type
REMARK                         _______ _______ _______ _____ _____    ______ ____
ROOT
ATOM      1  S   UNL     1      -1.552  17.106  13.694  0.00  0.00    +0.000 S 
ATOM      2  S   UNL     1       0.367  17.309  12.963  0.00  0.00    +0.000 S 
ATOM      3  O   UNL     1      -0.598  16.508   9.562  0.00  0.00    +0.000 OA
ATOM      4  O   UNL     1      -1.456  13.556  13.827  0.00  0.00    +0.000 OA
ATOM      5  N   UNL     1      -1.992  15.889  11.282  0.00  0.00    +0.000 N 
ATOM      6  N   UNL     1       0.114  14.609  12.428  0.00  0.00    +0.000 N 
ATOM      7  C   UNL     1      -2.096  15.640  12.753  0.00  0.00    +0.000 C 
ATOM      8  C   UNL     1      -3.248  15.886  10.674  0.00  0.00    +0.000 A 
ATOM      9  C   UNL     1      -3.526  15.379  12.898  0.00  0.00    +0.000 C 
ATOM     10  C   UNL     1       0.425  15.903  11.735  0.00  0.00    +0.000 C 
ATOM     11  C   UNL     1      -4.257  15.455  11.704  0.00  0.00    +0.000 A 
ATOM     12  C   UNL     1      -0.743  16.127  10.722  0.00  0.00    +0.000 C 
ATOM     13  C   UNL     1      -1.156  14.472  13.059  0.00  0.00    +0.000 C 
ATOM     14  C   UNL     1      -3.694  16.566   9.436  0.00  0.00    +0.000 A 
ATOM     15  C   UNL     1      -5.443  15.955  11.508  0.00  0.00    +0.000 A 
ATOM     16  C   UNL     1      -5.092  16.896   9.491  0.00  0.00    +0.000 A 
ATOM     17  C   UNL     1       1.199  13.637  12.561  0.00  0.00    +0.000 C 
ATOM     18  C   UNL     1      -5.973  16.733  10.293  0.00  0.00    +0.000 A 
ENDROOT
BRANCH  14  19
ATOM     19  O   UNL     1      -2.846  17.261   8.623  0.00  0.00    +0.000 OA
ATOM     20  H   UNL     1      -3.301  17.697   7.874  0.00  0.00    +0.000 HD
ENDBRANCH  14  19
BRANCH  10  21
ATOM     21  C   UNL     1       1.739  15.938  11.038  0.00  0.00    +0.000 C 
BRANCH  21  22
ATOM     22  O   UNL     1       2.917  15.950  10.410  0.00  0.00    +0.000 OA
ATOM     23  H   UNL     1       3.604  16.376  10.955  0.00  0.00    +0.000 HD
ENDBRANCH  21  22
ENDBRANCH  10  21
TORSDOF 3
ENDMDL
MODEL 9
REMARK VINA RESULT:      -4.1     21.546     23.425
REMARK  Name = 6223_Gliotoxin.pdbqt.pdb
REMARK  3 active torsions:
REMARK  status: ('A' for Active; 'I' for Inactive)
REMARK    1  A    between atoms: C_10  and  C_21
REMARK    2  A    between atoms: C_14  and  O_19
REMARK    3  A    between atoms: C_21  and  O_22
REMARK                            x       y       z     vdW  Elec       q    Type
REMARK                         _______ _______ _______ _____ _____    ______ ____
ROOT
ATOM      1  S   UNL     1      -3.568  -3.328  13.211  0.00  0.00    +0.000 S 
ATOM      2  S   UNL     1      -4.861  -3.427  11.604  0.00  0.00    +0.000 S 
ATOM      3  O   UNL     1      -6.835  -0.601  12.726  0.00  0.00    +0.000 OA
ATOM      4  O   UNL     1      -5.771  -4.954  15.477  0.00  0.00    +0.000 OA
ATOM      5  N   UNL     1      -5.504  -1.694  14.248  0.00  0.00    +0.000 N 
ATOM      6  N   UNL     1      -6.735  -4.013  13.549  0.00  0.00    +0.000 N 
ATOM      7  C   UNL     1      -4.753  -2.953  14.548  0.00  0.00    +0.000 C 
ATOM      8  C   UNL     1      -5.206  -0.691  15.172  0.00  0.00    +0.000 A 
ATOM      9  C   UNL     1      -4.090  -2.599  15.801  0.00  0.00    +0.000 C 
ATOM     10  C   UNL     1      -6.486  -3.037  12.437  0.00  0.00    +0.000 C 
ATOM     11  C   UNL     1      -4.356  -1.300  16.255  0.00  0.00    +0.000 A 
ATOM     12  C   UNL     1      -6.326  -1.646  13.130  0.00  0.00    +0.000 C 
ATOM     13  C   UNL     1      -5.797  -4.069  14.620  0.00  0.00    +0.000 C 
ATOM     14  C   UNL     1      -5.265   0.781  15.013  0.00  0.00    +0.000 A 
ATOM     15  C   UNL     1      -3.541  -0.451  16.811  0.00  0.00    +0.000 A 
ATOM     16  C   UNL     1      -4.301   1.440  15.851  0.00  0.00    +0.000 A 
ATOM     17  C   UNL     1      -7.832  -4.966  13.376  0.00  0.00    +0.000 C 
ATOM     18  C   UNL     1      -3.481   1.077  16.652  0.00  0.00    +0.000 A 
ENDROOT
BRANCH  14  19
ATOM     19  O   UNL     1      -5.740   1.387  13.886  0.00  0.00    +0.000 OA
ATOM     20  H   UNL     1      -6.704   1.553  13.916  0.00  0.00    +0.000 HD
ENDBRANCH  14  19
BRANCH  10  21
ATOM     21  C   UNL     1      -7.550  -2.987  11.399  0.00  0.00    +0.000 C 
BRANCH  21  22
ATOM     22  O   UNL     1      -8.500  -2.925  10.463  0.00  0.00    +0.000 OA
ATOM     23  H   UNL     1      -8.501  -2.058  10.017  0.00  0.00    +0.000 HD
ENDBRANCH  21  22
ENDBRANCH  10  21
TORSDOF 3
ENDMDL
