MODEL 1
REMARK VINA RESULT:      -5.2      0.000      0.000
REMARK  Name = 6256_Trifluridine.pdbqt.pdb
REMARK  5 active torsions:
REMARK  status: ('A' for Active; 'I' for Inactive)
REMARK    1  A    between atoms: N_3  and  C1*_11
REMARK    2  A    between atoms: C_7  and  C_23
REMARK    3  A    between atoms: C3*_12  and  O3*_15
REMARK    4  A    between atoms: C4*_14  and  C5*_17
REMARK    5  A    between atoms: C5*_17  and  O5*_18
REMARK                            x       y       z     vdW  Elec       q    Type
REMARK                         _______ _______ _______ _____ _____    ______ ____
ROOT
ATOM      1  O   UNL     1     -13.891   4.977  23.735  0.00  0.00    +0.000 OA
ATOM      2  O   UNL     1     -18.396   5.760  23.346  0.00  0.00    +0.000 OA
ATOM      3  N   UNL     1     -14.936   4.465  21.672  0.00  0.00    +0.000 N 
ATOM      4  N   UNL     1     -16.141   5.353  23.477  0.00  0.00    +0.000 N 
ATOM      5  C   UNL     1     -16.141   4.500  21.070  0.00  0.00    +0.000 A 
ATOM      6  C   UNL     1     -14.876   4.925  23.007  0.00  0.00    +0.000 A 
ATOM      7  C   UNL     1     -17.334   4.864  21.411  0.00  0.00    +0.000 A 
ATOM      8  C   UNL     1     -17.371   5.366  22.808  0.00  0.00    +0.000 A 
ATOM      9  H   UNL     1     -16.152   5.690  24.429  0.00  0.00    +0.000 HD
ENDROOT
BRANCH   3  11
ATOM     10  O4* UNL     1     -12.856   4.839  20.496  0.00  0.00    +0.000 OA
ATOM     11  C1* UNL     1     -13.860   3.992  20.978  0.00  0.00    +0.000 A 
ATOM     12  C3* UNL     1     -12.368   2.659  19.887  0.00  0.00    +0.000 A 
ATOM     13  C2* UNL     1     -13.577   2.663  20.603  0.00  0.00    +0.000 A 
ATOM     14  C4* UNL     1     -11.931   4.031  19.821  0.00  0.00    +0.000 A 
BRANCH  12  15
ATOM     15  O3* UNL     1     -12.074   1.778  18.884  0.00  0.00    +0.000 OA
ATOM     16  H3* UNL     1     -11.734   0.940  19.243  0.00  0.00    +0.000 HD
ENDBRANCH  12  15
BRANCH  14  17
ATOM     17  C5* UNL     1     -10.893   4.565  19.034  0.00  0.00    +0.000 C 
BRANCH  17  18
ATOM     18  O5* UNL     1      -9.913   5.066  18.288  0.00  0.00    +0.000 OA
ATOM     19  H5* UNL     1      -9.398   5.714  18.800  0.00  0.00    +0.000 HD
ENDBRANCH  17  18
ENDBRANCH  14  17
ENDBRANCH   3  11
BRANCH   7  23
ATOM     20  F   UNL     1     -19.093   6.063  20.414  0.00  0.00    +0.000 F 
ATOM     21  F   UNL     1     -18.416   4.252  19.425  0.00  0.00    +0.000 F 
ATOM     22  F   UNL     1     -19.553   4.103  21.269  0.00  0.00    +0.000 F 
ATOM     23  C   UNL     1     -18.588   4.826  20.648  0.00  0.00    +0.000 C 
ENDBRANCH   7  23
TORSDOF 5
ENDMDL
MODEL 2
REMARK VINA RESULT:      -5.2     21.520     22.377
REMARK  Name = 6256_Trifluridine.pdbqt.pdb
REMARK  5 active torsions:
REMARK  status: ('A' for Active; 'I' for Inactive)
REMARK    1  A    between atoms: N_3  and  C1*_11
REMARK    2  A    between atoms: C_7  and  C_23
REMARK    3  A    between atoms: C3*_12  and  O3*_15
REMARK    4  A    between atoms: C4*_14  and  C5*_17
REMARK    5  A    between atoms: C5*_17  and  O5*_18
REMARK                            x       y       z     vdW  Elec       q    Type
REMARK                         _______ _______ _______ _____ _____    ______ ____
ROOT
ATOM      1  O   UNL     1     -19.872   6.771  -1.877  0.00  0.00    +0.000 OA
ATOM      2  O   UNL     1     -18.094  10.625  -0.131  0.00  0.00    +0.000 OA
ATOM      3  N   UNL     1     -17.692   6.674  -0.957  0.00  0.00    +0.000 N 
ATOM      4  N   UNL     1     -18.931   8.665  -0.982  0.00  0.00    +0.000 N 
ATOM      5  C   UNL     1     -16.770   7.456  -0.359  0.00  0.00    +0.000 A 
ATOM      6  C   UNL     1     -18.909   7.291  -1.325  0.00  0.00    +0.000 A 
ATOM      7  C   UNL     1     -16.697   8.699  -0.013  0.00  0.00    +0.000 A 
ATOM      8  C   UNL     1     -17.940   9.434  -0.361  0.00  0.00    +0.000 A 
ATOM      9  H   UNL     1     -19.781   9.153  -1.226  0.00  0.00    +0.000 HD
ENDROOT
BRANCH   3  11
ATOM     10  O4* UNL     1     -18.317   4.339  -0.878  0.00  0.00    +0.000 OA
ATOM     11  C1* UNL     1     -17.405   5.358  -1.176  0.00  0.00    +0.000 A 
ATOM     12  C3* UNL     1     -16.373   3.398  -1.714  0.00  0.00    +0.000 A 
ATOM     13  C2* UNL     1     -16.214   4.794  -1.676  0.00  0.00    +0.000 A 
ATOM     14  C4* UNL     1     -17.694   3.127  -1.203  0.00  0.00    +0.000 A 
BRANCH  12  15
ATOM     15  O3* UNL     1     -15.354   2.505  -1.537  0.00  0.00    +0.000 OA
ATOM     16  H3* UNL     1     -14.551   2.951  -1.215  0.00  0.00    +0.000 HD
ENDBRANCH  12  15
BRANCH  14  17
ATOM     17  C5* UNL     1     -18.238   1.878  -0.847  0.00  0.00    +0.000 C 
BRANCH  17  18
ATOM     18  O5* UNL     1     -18.748   0.696  -0.513  0.00  0.00    +0.000 OA
ATOM     19  H5* UNL     1     -18.097  -0.008  -0.671  0.00  0.00    +0.000 HD
ENDBRANCH  17  18
ENDBRANCH  14  17
ENDBRANCH   3  11
BRANCH   7  23
ATOM     20  F   UNL     1     -15.466  10.696   0.127  0.00  0.00    +0.000 F 
ATOM     21  F   UNL     1     -15.802   9.586   1.962  0.00  0.00    +0.000 F 
ATOM     22  F   UNL     1     -14.405   8.818   0.489  0.00  0.00    +0.000 F 
ATOM     23  C   UNL     1     -15.601   9.441   0.623  0.00  0.00    +0.000 C 
ENDBRANCH   7  23
TORSDOF 5
ENDMDL
MODEL 3
REMARK VINA RESULT:      -5.2      9.095     11.749
REMARK  Name = 6256_Trifluridine.pdbqt.pdb
REMARK  5 active torsions:
REMARK  status: ('A' for Active; 'I' for Inactive)
REMARK    1  A    between atoms: N_3  and  C1*_11
REMARK    2  A    between atoms: C_7  and  C_23
REMARK    3  A    between atoms: C3*_12  and  O3*_15
REMARK    4  A    between atoms: C4*_14  and  C5*_17
REMARK    5  A    between atoms: C5*_17  and  O5*_18
REMARK                            x       y       z     vdW  Elec       q    Type
REMARK                         _______ _______ _______ _____ _____    ______ ____
ROOT
ATOM      1  O   UNL     1     -25.876   8.725  16.354  0.00  0.00    +0.000 OA
ATOM      2  O   UNL     1     -21.761   9.375  18.281  0.00  0.00    +0.000 OA
ATOM      3  N   UNL     1     -24.170   7.147  15.896  0.00  0.00    +0.000 N 
ATOM      4  N   UNL     1     -23.798   8.992  17.295  0.00  0.00    +0.000 N 
ATOM      5  C   UNL     1     -22.880   6.885  16.183  0.00  0.00    +0.000 A 
ATOM      6  C   UNL     1     -24.732   8.303  16.483  0.00  0.00    +0.000 A 
ATOM      7  C   UNL     1     -21.959   7.446  16.897  0.00  0.00    +0.000 A 
ATOM      8  C   UNL     1     -22.460   8.677  17.559  0.00  0.00    +0.000 A 
ATOM      9  H   UNL     1     -24.152   9.828  17.737  0.00  0.00    +0.000 HD
ENDROOT
BRANCH   3  11
ATOM     10  O4* UNL     1     -24.549   6.199  13.703  0.00  0.00    +0.000 OA
ATOM     11  C1* UNL     1     -24.851   6.304  15.065  0.00  0.00    +0.000 A 
ATOM     12  C3* UNL     1     -26.319   4.791  14.199  0.00  0.00    +0.000 A 
ATOM     13  C2* UNL     1     -25.934   5.458  15.375  0.00  0.00    +0.000 A 
ATOM     14  C4* UNL     1     -25.446   5.272  13.158  0.00  0.00    +0.000 A 
BRANCH  12  15
ATOM     15  O3* UNL     1     -27.599   4.404  13.921  0.00  0.00    +0.000 OA
ATOM     16  H3* UNL     1     -27.681   3.434  13.933  0.00  0.00    +0.000 HD
ENDBRANCH  12  15
BRANCH  14  17
ATOM     17  C5* UNL     1     -25.570   5.065  11.770  0.00  0.00    +0.000 C 
BRANCH  17  18
ATOM     18  O5* UNL     1     -25.687   4.873  10.459  0.00  0.00    +0.000 OA
ATOM     19  H5* UNL     1     -25.164   4.100  10.185  0.00  0.00    +0.000 HD
ENDBRANCH  17  18
ENDBRANCH  14  17
ENDBRANCH   3  11
BRANCH   7  23
ATOM     20  F   UNL     1     -20.291   6.757  18.403  0.00  0.00    +0.000 F 
ATOM     21  F   UNL     1     -20.229   5.951  16.387  0.00  0.00    +0.000 F 
ATOM     22  F   UNL     1     -19.689   8.026  16.726  0.00  0.00    +0.000 F 
ATOM     23  C   UNL     1     -20.559   7.059  17.107  0.00  0.00    +0.000 C 
ENDBRANCH   7  23
TORSDOF 5
ENDMDL
MODEL 4
REMARK VINA RESULT:      -4.6     17.455     18.738
REMARK  Name = 6256_Trifluridine.pdbqt.pdb
REMARK  5 active torsions:
REMARK  status: ('A' for Active; 'I' for Inactive)
REMARK    1  A    between atoms: N_3  and  C1*_11
REMARK    2  A    between atoms: C_7  and  C_23
REMARK    3  A    between atoms: C3*_12  and  O3*_15
REMARK    4  A    between atoms: C4*_14  and  C5*_17
REMARK    5  A    between atoms: C5*_17  and  O5*_18
REMARK                            x       y       z     vdW  Elec       q    Type
REMARK                         _______ _______ _______ _____ _____    ______ ____
ROOT
ATOM      1  O   UNL     1     -22.818  13.393   4.856  0.00  0.00    +0.000 OA
ATOM      2  O   UNL     1     -23.290  16.150   8.495  0.00  0.00    +0.000 OA
ATOM      3  N   UNL     1     -23.721  12.471   6.841  0.00  0.00    +0.000 N 
ATOM      4  N   UNL     1     -23.085  14.724   6.708  0.00  0.00    +0.000 N 
ATOM      5  C   UNL     1     -24.048  12.815   8.103  0.00  0.00    +0.000 A 
ATOM      6  C   UNL     1     -23.182  13.489   6.022  0.00  0.00    +0.000 A 
ATOM      7  C   UNL     1     -23.995  13.896   8.809  0.00  0.00    +0.000 A 
ATOM      8  C   UNL     1     -23.438  15.029   8.028  0.00  0.00    +0.000 A 
ATOM      9  H   UNL     1     -22.703  15.486   6.165  0.00  0.00    +0.000 HD
ENDROOT
BRANCH   3  11
ATOM     10  O4* UNL     1     -24.757  10.867   5.357  0.00  0.00    +0.000 OA
ATOM     11  C1* UNL     1     -23.918  11.184   6.430  0.00  0.00    +0.000 A 
ATOM     12  C3* UNL     1     -23.880   8.914   6.238  0.00  0.00    +0.000 A 
ATOM     13  C2* UNL     1     -23.387  10.001   6.981  0.00  0.00    +0.000 A 
ATOM     14  C4* UNL     1     -24.744   9.472   5.228  0.00  0.00    +0.000 A 
BRANCH  12  15
ATOM     15  O3* UNL     1     -24.119   7.673   6.760  0.00  0.00    +0.000 OA
ATOM     16  H3* UNL     1     -23.659   7.558   7.609  0.00  0.00    +0.000 HD
ENDBRANCH  12  15
BRANCH  14  17
ATOM     17  C5* UNL     1     -25.631   8.782   4.379  0.00  0.00    +0.000 C 
BRANCH  17  18
ATOM     18  O5* UNL     1     -26.472   8.134   3.579  0.00  0.00    +0.000 OA
ATOM     19  H5* UNL     1     -27.376   8.475   3.693  0.00  0.00    +0.000 HD
ENDBRANCH  17  18
ENDBRANCH  14  17
ENDBRANCH   3  11
BRANCH   7  23
ATOM     20  F   UNL     1     -25.270  15.136  10.346  0.00  0.00    +0.000 F 
ATOM     21  F   UNL     1     -24.948  13.030  10.766  0.00  0.00    +0.000 F 
ATOM     22  F   UNL     1     -23.303  14.428  10.991  0.00  0.00    +0.000 F 
ATOM     23  C   UNL     1     -24.370  14.130  10.210  0.00  0.00    +0.000 C 
ENDBRANCH   7  23
TORSDOF 5
ENDMDL
MODEL 5
REMARK VINA RESULT:      -4.5     23.951     25.794
REMARK  Name = 6256_Trifluridine.pdbqt.pdb
REMARK  5 active torsions:
REMARK  status: ('A' for Active; 'I' for Inactive)
REMARK    1  A    between atoms: N_3  and  C1*_11
REMARK    2  A    between atoms: C_7  and  C_23
REMARK    3  A    between atoms: C3*_12  and  O3*_15
REMARK    4  A    between atoms: C4*_14  and  C5*_17
REMARK    5  A    between atoms: C5*_17  and  O5*_18
REMARK                            x       y       z     vdW  Elec       q    Type
REMARK                         _______ _______ _______ _____ _____    ______ ____
ROOT
ATOM      1  O   UNL     1      -1.636  14.690  -0.979  0.00  0.00    +0.000 OA
ATOM      2  O   UNL     1      -0.261  14.452   3.393  0.00  0.00    +0.000 OA
ATOM      3  N   UNL     1      -3.268  14.954   0.718  0.00  0.00    +0.000 N 
ATOM      4  N   UNL     1      -1.008  14.588   1.228  0.00  0.00    +0.000 N 
ATOM      5  C   UNL     1      -3.392  14.971   2.060  0.00  0.00    +0.000 A 
ATOM      6  C   UNL     1      -1.970  14.744   0.199  0.00  0.00    +0.000 A 
ATOM      7  C   UNL     1      -2.588  14.836   3.064  0.00  0.00    +0.000 A 
ATOM      8  C   UNL     1      -1.191  14.611   2.615  0.00  0.00    +0.000 A 
ATOM      9  H   UNL     1      -0.062  14.434   0.908  0.00  0.00    +0.000 HD
ENDROOT
BRANCH   3  11
ATOM     10  O4* UNL     1      -5.090  16.335  -0.070  0.00  0.00    +0.000 OA
ATOM     11  C1* UNL     1      -4.380  15.130  -0.055  0.00  0.00    +0.000 A 
ATOM     12  C3* UNL     1      -6.131  14.821  -1.480  0.00  0.00    +0.000 A 
ATOM     13  C2* UNL     1      -5.011  14.198  -0.902  0.00  0.00    +0.000 A 
ATOM     14  C4* UNL     1      -6.172  16.158  -0.943  0.00  0.00    +0.000 A 
BRANCH  12  15
ATOM     15  O3* UNL     1      -7.279  14.166  -1.826  0.00  0.00    +0.000 OA
ATOM     16  H3* UNL     1      -7.649  14.524  -2.652  0.00  0.00    +0.000 HD
ENDBRANCH  12  15
BRANCH  14  17
ATOM     17  C5* UNL     1      -7.217  17.095  -1.052  0.00  0.00    +0.000 C 
BRANCH  17  18
ATOM     18  O5* UNL     1      -8.203  17.982  -1.158  0.00  0.00    +0.000 OA
ATOM     19  H5* UNL     1      -8.951  17.595  -1.646  0.00  0.00    +0.000 HD
ENDBRANCH  17  18
ENDBRANCH  14  17
ENDBRANCH   3  11
BRANCH   7  23
ATOM     20  F   UNL     1      -2.765  13.623   5.070  0.00  0.00    +0.000 F 
ATOM     21  F   UNL     1      -1.988  15.648   5.177  0.00  0.00    +0.000 F 
ATOM     22  F   UNL     1      -4.101  15.333   4.792  0.00  0.00    +0.000 F 
ATOM     23  C   UNL     1      -2.866  14.853   4.506  0.00  0.00    +0.000 C 
ENDBRANCH   7  23
TORSDOF 5
ENDMDL
MODEL 6
REMARK VINA RESULT:      -4.1     23.359     25.204
REMARK  Name = 6256_Trifluridine.pdbqt.pdb
REMARK  5 active torsions:
REMARK  status: ('A' for Active; 'I' for Inactive)
REMARK    1  A    between atoms: N_3  and  C1*_11
REMARK    2  A    between atoms: C_7  and  C_23
REMARK    3  A    between atoms: C3*_12  and  O3*_15
REMARK    4  A    between atoms: C4*_14  and  C5*_17
REMARK    5  A    between atoms: C5*_17  and  O5*_18
REMARK                            x       y       z     vdW  Elec       q    Type
REMARK                         _______ _______ _______ _____ _____    ______ ____
ROOT
ATOM      1  O   UNL     1      -5.618  18.700   1.293  0.00  0.00    +0.000 OA
ATOM      2  O   UNL     1      -3.693  18.323   5.442  0.00  0.00    +0.000 OA
ATOM      3  N   UNL     1      -4.767  16.585   1.938  0.00  0.00    +0.000 N 
ATOM      4  N   UNL     1      -4.650  18.446   3.360  0.00  0.00    +0.000 N 
ATOM      5  C   UNL     1      -4.150  15.973   2.968  0.00  0.00    +0.000 A 
ATOM      6  C   UNL     1      -5.067  17.957   2.098  0.00  0.00    +0.000 A 
ATOM      7  C   UNL     1      -3.732  16.330   4.138  0.00  0.00    +0.000 A 
ATOM      8  C   UNL     1      -4.006  17.765   4.400  0.00  0.00    +0.000 A 
ATOM      9  H   UNL     1      -4.841  19.425   3.523  0.00  0.00    +0.000 HD
ENDROOT
BRANCH   3  11
ATOM     10  O4* UNL     1      -4.216  15.861  -0.303  0.00  0.00    +0.000 OA
ATOM     11  C1* UNL     1      -5.057  15.866   0.815  0.00  0.00    +0.000 A 
ATOM     12  C3* UNL     1      -6.064  14.536  -0.738  0.00  0.00    +0.000 A 
ATOM     13  C2* UNL     1      -6.191  15.070   0.556  0.00  0.00    +0.000 A 
ATOM     14  C4* UNL     1      -4.824  15.047  -1.267  0.00  0.00    +0.000 A 
BRANCH  12  15
ATOM     15  O3* UNL     1      -7.119  14.261  -1.561  0.00  0.00    +0.000 OA
ATOM     16  H3* UNL     1      -6.829  14.187  -2.487  0.00  0.00    +0.000 HD
ENDBRANCH  12  15
BRANCH  14  17
ATOM     17  C5* UNL     1      -4.361  14.971  -2.595  0.00  0.00    +0.000 C 
BRANCH  17  18
ATOM     18  O5* UNL     1      -3.926  14.897  -3.849  0.00  0.00    +0.000 OA
ATOM     19  H5* UNL     1      -4.629  15.170  -4.465  0.00  0.00    +0.000 HD
ENDBRANCH  17  18
ENDBRANCH  14  17
ENDBRANCH   3  11
BRANCH   7  23
ATOM     20  F   UNL     1      -3.611  15.687   6.396  0.00  0.00    +0.000 F 
ATOM     21  F   UNL     1      -3.059  14.217   4.896  0.00  0.00    +0.000 F 
ATOM     22  F   UNL     1      -1.733  15.889   5.293  0.00  0.00    +0.000 F 
ATOM     23  C   UNL     1      -3.040  15.550   5.173  0.00  0.00    +0.000 C 
ENDBRANCH   7  23
TORSDOF 5
ENDMDL
MODEL 7
REMARK VINA RESULT:      -3.8     18.260     19.545
REMARK  Name = 6256_Trifluridine.pdbqt.pdb
REMARK  5 active torsions:
REMARK  status: ('A' for Active; 'I' for Inactive)
REMARK    1  A    between atoms: N_3  and  C1*_11
REMARK    2  A    between atoms: C_7  and  C_23
REMARK    3  A    between atoms: C3*_12  and  O3*_15
REMARK    4  A    between atoms: C4*_14  and  C5*_17
REMARK    5  A    between atoms: C5*_17  and  O5*_18
REMARK                            x       y       z     vdW  Elec       q    Type
REMARK                         _______ _______ _______ _____ _____    ______ ____
ROOT
ATOM      1  O   UNL     1     -24.544  14.788   4.388  0.00  0.00    +0.000 OA
ATOM      2  O   UNL     1     -23.057  16.456   8.397  0.00  0.00    +0.000 OA
ATOM      3  N   UNL     1     -23.628  13.267   5.955  0.00  0.00    +0.000 N 
ATOM      4  N   UNL     1     -23.789  15.561   6.414  0.00  0.00    +0.000 N 
ATOM      5  C   UNL     1     -23.086  13.232   7.189  0.00  0.00    +0.000 A 
ATOM      6  C   UNL     1     -24.035  14.532   5.473  0.00  0.00    +0.000 A 
ATOM      7  C   UNL     1     -22.821  14.103   8.107  0.00  0.00    +0.000 A 
ATOM      8  C   UNL     1     -23.218  15.472   7.689  0.00  0.00    +0.000 A 
ATOM      9  H   UNL     1     -24.062  16.487   6.116  0.00  0.00    +0.000 HD
ENDROOT
BRANCH   3  11
ATOM     10  O4* UNL     1     -23.373  12.013   3.903  0.00  0.00    +0.000 OA
ATOM     11  C1* UNL     1     -23.747  12.105   5.248  0.00  0.00    +0.000 A 
ATOM     12  C3* UNL     1     -24.199   9.967   4.605  0.00  0.00    +0.000 A 
ATOM     13  C2* UNL     1     -24.260  10.867   5.682  0.00  0.00    +0.000 A 
ATOM     14  C4* UNL     1     -23.648  10.702   3.494  0.00  0.00    +0.000 A 
BRANCH  12  15
ATOM     15  O3* UNL     1     -25.090   8.951   4.403  0.00  0.00    +0.000 OA
ATOM     16  H3* UNL     1     -24.714   8.096   4.678  0.00  0.00    +0.000 HD
ENDBRANCH  12  15
BRANCH  14  17
ATOM     17  C5* UNL     1     -23.587  10.302   2.145  0.00  0.00    +0.000 C 
BRANCH  17  18
ATOM     18  O5* UNL     1     -23.526   9.926   0.871  0.00  0.00    +0.000 OA
ATOM     19  H5* UNL     1     -22.647  10.123   0.504  0.00  0.00    +0.000 HD
ENDBRANCH  17  18
ENDBRANCH  14  17
ENDBRANCH   3  11
BRANCH   7  23
ATOM     20  F   UNL     1     -22.085  12.623   9.779  0.00  0.00    +0.000 F 
ATOM     21  F   UNL     1     -20.930  14.433   9.450  0.00  0.00    +0.000 F 
ATOM     22  F   UNL     1     -22.873  14.564  10.411  0.00  0.00    +0.000 F 
ATOM     23  C   UNL     1     -22.195  13.928   9.424  0.00  0.00    +0.000 C 
ENDBRANCH   7  23
TORSDOF 5
ENDMDL
MODEL 8
REMARK VINA RESULT:      -3.7      2.254      2.714
REMARK  Name = 6256_Trifluridine.pdbqt.pdb
REMARK  5 active torsions:
REMARK  status: ('A' for Active; 'I' for Inactive)
REMARK    1  A    between atoms: N_3  and  C1*_11
REMARK    2  A    between atoms: C_7  and  C_23
REMARK    3  A    between atoms: C3*_12  and  O3*_15
REMARK    4  A    between atoms: C4*_14  and  C5*_17
REMARK    5  A    between atoms: C5*_17  and  O5*_18
REMARK                            x       y       z     vdW  Elec       q    Type
REMARK                         _______ _______ _______ _____ _____    ______ ____
ROOT
ATOM      1  O   UNL     1     -13.852   5.906  26.031  0.00  0.00    +0.000 OA
ATOM      2  O   UNL     1     -18.420   5.501  25.842  0.00  0.00    +0.000 OA
ATOM      3  N   UNL     1     -14.824   5.203  23.989  0.00  0.00    +0.000 N 
ATOM      4  N   UNL     1     -16.133   5.692  25.872  0.00  0.00    +0.000 N 
ATOM      5  C   UNL     1     -16.024   4.941  23.434  0.00  0.00    +0.000 A 
ATOM      6  C   UNL     1     -14.822   5.622  25.338  0.00  0.00    +0.000 A 
ATOM      7  C   UNL     1     -17.253   4.972  23.833  0.00  0.00    +0.000 A 
ATOM      8  C   UNL     1     -17.354   5.404  25.250  0.00  0.00    +0.000 A 
ATOM      9  H   UNL     1     -16.186   5.986  26.837  0.00  0.00    +0.000 HD
ENDROOT
BRANCH   3  11
ATOM     10  O4* UNL     1     -13.056   6.131  22.624  0.00  0.00    +0.000 OA
ATOM     11  C1* UNL     1     -13.695   5.048  23.236  0.00  0.00    +0.000 A 
ATOM     12  C3* UNL     1     -11.917   4.183  22.104  0.00  0.00    +0.000 A 
ATOM     13  C2* UNL     1     -13.015   3.856  22.918  0.00  0.00    +0.000 A 
ATOM     14  C4* UNL     1     -11.960   5.612  21.922  0.00  0.00    +0.000 A 
BRANCH  12  15
ATOM     15  O3* UNL     1     -11.410   3.365  21.133  0.00  0.00    +0.000 OA
ATOM     16  H3* UNL     1     -11.817   3.556  20.270  0.00  0.00    +0.000 HD
ENDBRANCH  12  15
BRANCH  14  17
ATOM     17  C5* UNL     1     -11.203   6.386  21.021  0.00  0.00    +0.000 C 
BRANCH  17  18
ATOM     18  O5* UNL     1     -10.486   7.117  20.173  0.00  0.00    +0.000 OA
ATOM     19  H5* UNL     1     -10.419   8.034  20.492  0.00  0.00    +0.000 HD
ENDBRANCH  17  18
ENDBRANCH  14  17
ENDBRANCH   3  11
BRANCH   7  23
ATOM     20  F   UNL     1     -19.073   3.503  23.593  0.00  0.00    +0.000 F 
ATOM     21  F   UNL     1     -19.423   5.616  23.231  0.00  0.00    +0.000 F 
ATOM     22  F   UNL     1     -18.288   4.457  21.787  0.00  0.00    +0.000 F 
ATOM     23  C   UNL     1     -18.489   4.631  23.117  0.00  0.00    +0.000 C 
ENDBRANCH   7  23
TORSDOF 5
ENDMDL
MODEL 9
REMARK VINA RESULT:      -3.7      1.816      2.403
REMARK  Name = 6256_Trifluridine.pdbqt.pdb
REMARK  5 active torsions:
REMARK  status: ('A' for Active; 'I' for Inactive)
REMARK    1  A    between atoms: N_3  and  C1*_11
REMARK    2  A    between atoms: C_7  and  C_23
REMARK    3  A    between atoms: C3*_12  and  O3*_15
REMARK    4  A    between atoms: C4*_14  and  C5*_17
REMARK    5  A    between atoms: C5*_17  and  O5*_18
REMARK                            x       y       z     vdW  Elec       q    Type
REMARK                         _______ _______ _______ _____ _____    ______ ____
ROOT
ATOM      1  O   UNL     1     -13.186   5.952  24.787  0.00  0.00    +0.000 OA
ATOM      2  O   UNL     1     -17.755   6.060  25.216  0.00  0.00    +0.000 OA
ATOM      3  N   UNL     1     -14.490   4.981  23.064  0.00  0.00    +0.000 N 
ATOM      4  N   UNL     1     -15.477   5.982  24.941  0.00  0.00    +0.000 N 
ATOM      5  C   UNL     1     -15.774   4.759  22.719  0.00  0.00    +0.000 A 
ATOM      6  C   UNL     1     -14.265   5.654  24.287  0.00  0.00    +0.000 A 
ATOM      7  C   UNL     1     -16.928   5.012  23.243  0.00  0.00    +0.000 A 
ATOM      8  C   UNL     1     -16.793   5.723  24.539  0.00  0.00    +0.000 A 
ATOM      9  H   UNL     1     -15.371   6.464  25.822  0.00  0.00    +0.000 HD
ENDROOT
BRANCH   3  11
ATOM     10  O4* UNL     1     -12.900   3.291  22.383  0.00  0.00    +0.000 OA
ATOM     11  C1* UNL     1     -13.494   4.549  22.236  0.00  0.00    +0.000 A 
ATOM     12  C3* UNL     1     -11.899   4.402  20.615  0.00  0.00    +0.000 A 
ATOM     13  C2* UNL     1     -12.886   5.237  21.168  0.00  0.00    +0.000 A 
ATOM     14  C4* UNL     1     -11.915   3.189  21.392  0.00  0.00    +0.000 A 
BRANCH  12  15
ATOM     15  O3* UNL     1     -10.745   4.855  20.040  0.00  0.00    +0.000 OA
ATOM     16  H3* UNL     1      -9.999   4.792  20.661  0.00  0.00    +0.000 HD
ENDBRANCH  12  15
BRANCH  14  17
ATOM     17  C5* UNL     1     -10.976   2.139  21.365  0.00  0.00    +0.000 C 
BRANCH  17  18
ATOM     18  O5* UNL     1     -10.090   1.147  21.335  0.00  0.00    +0.000 OA
ATOM     19  H5* UNL     1     -10.546   0.293  21.237  0.00  0.00    +0.000 HD
ENDBRANCH  17  18
ENDBRANCH  14  17
ENDBRANCH   3  11
BRANCH   7  23
ATOM     20  F   UNL     1     -19.125   5.742  22.834  0.00  0.00    +0.000 F 
ATOM     21  F   UNL     1     -18.265   4.301  21.455  0.00  0.00    +0.000 F 
ATOM     22  F   UNL     1     -18.841   3.661  23.448  0.00  0.00    +0.000 F 
ATOM     23  C   UNL     1     -18.277   4.686  22.761  0.00  0.00    +0.000 C 
ENDBRANCH   7  23
TORSDOF 5
ENDMDL
