MODEL 1
REMARK VINA RESULT:      -4.7      0.000      0.000
REMARK  Name = 6323266_Tipiracil.pdbqt.pdb
REMARK  2 active torsions:
REMARK  status: ('A' for Active; 'I' for Inactive)
REMARK    1  A    between atoms: C_6  and  C_12
REMARK    2  A    between atoms: C_12  and  N_13
REMARK                            x       y       z     vdW  Elec       q    Type
REMARK                         _______ _______ _______ _____ _____    ______ ____
ROOT
ATOM      1 CL   UNL     1     -15.334   8.450  -3.589  0.00  0.00    +0.000 Cl
ATOM      2  O   UNL     1     -14.660  10.954  -2.072  0.00  0.00    +0.000 OA
ATOM      3  O   UNL     1     -15.892   9.542   2.052  0.00  0.00    +0.000 OA
ATOM      4  N   UNL     1     -16.124   8.118   0.301  0.00  0.00    +0.000 N 
ATOM      5  N   UNL     1     -15.268  10.237  -0.015  0.00  0.00    +0.000 N 
ATOM      6  C   UNL     1     -16.000   7.828  -1.034  0.00  0.00    +0.000 A 
ATOM      7  C   UNL     1     -15.515   8.728  -1.900  0.00  0.00    +0.000 A 
ATOM      8  C   UNL     1     -15.109  10.058  -1.364  0.00  0.00    +0.000 A 
ATOM      9  C   UNL     1     -15.768   9.313   0.854  0.00  0.00    +0.000 A 
ATOM     10  H   UNL     1     -16.499   7.418   0.937  0.00  0.00    +0.000 HD
ATOM     11  H   UNL     1     -14.999  11.131   0.369  0.00  0.00    +0.000 HD
ENDROOT
BRANCH   6  12
ATOM     12  C   UNL     1     -16.422   6.526  -1.419  0.00  0.00    +0.000 C 
BRANCH  12  13
ATOM     13  N   UNL     1     -16.963   5.223  -1.751  0.00  0.00    +0.000 N 
ATOM     14  N   UNL     1     -17.409   4.450   0.551  0.00  0.00    +0.000 NA
ATOM     15  C   UNL     1     -17.981   5.156  -2.800  0.00  0.00    +0.000 C 
ATOM     16  C   UNL     1     -19.289   4.384  -2.659  0.00  0.00    +0.000 C 
ATOM     17  C   UNL     1     -18.850   4.045  -1.234  0.00  0.00    +0.000 C 
ATOM     18  C   UNL     1     -17.614   4.579  -0.706  0.00  0.00    +0.000 C 
ATOM     19  H   UNL     1     -18.166   3.913   0.990  0.00  0.00    +0.000 HD
ENDBRANCH  12  13
ENDBRANCH   6  12
TORSDOF 2
ENDMDL
MODEL 2
REMARK VINA RESULT:      -4.5      2.348      3.109
REMARK  Name = 6323266_Tipiracil.pdbqt.pdb
REMARK  2 active torsions:
REMARK  status: ('A' for Active; 'I' for Inactive)
REMARK    1  A    between atoms: C_6  and  C_12
REMARK    2  A    between atoms: C_12  and  N_13
REMARK                            x       y       z     vdW  Elec       q    Type
REMARK                         _______ _______ _______ _____ _____    ______ ____
ROOT
ATOM      1 CL   UNL     1     -14.666   9.559  -3.965  0.00  0.00    +0.000 Cl
ATOM      2  O   UNL     1     -14.929  11.863  -2.056  0.00  0.00    +0.000 OA
ATOM      3  O   UNL     1     -15.734   9.474   1.707  0.00  0.00    +0.000 OA
ATOM      4  N   UNL     1     -15.414   8.357  -0.243  0.00  0.00    +0.000 N 
ATOM      5  N   UNL     1     -15.320  10.661  -0.180  0.00  0.00    +0.000 N 
ATOM      6  C   UNL     1     -15.159   8.345  -1.590  0.00  0.00    +0.000 A 
ATOM      7  C   UNL     1     -14.982   9.483  -2.275  0.00  0.00    +0.000 A 
ATOM      8  C   UNL     1     -15.069  10.767  -1.523  0.00  0.00    +0.000 A 
ATOM      9  C   UNL     1     -15.503   9.496   0.503  0.00  0.00    +0.000 A 
ATOM     10  H   UNL     1     -15.548   7.479   0.254  0.00  0.00    +0.000 HD
ATOM     11  H   UNL     1     -15.383  11.519   0.348  0.00  0.00    +0.000 HD
ENDROOT
BRANCH   6  12
ATOM     12  C   UNL     1     -15.101   7.058  -2.190  0.00  0.00    +0.000 C 
BRANCH  12  13
ATOM     13  N   UNL     1     -15.170   5.754  -2.821  0.00  0.00    +0.000 N 
ATOM     14  N   UNL     1     -13.860   6.293  -4.844  0.00  0.00    +0.000 NA
ATOM     15  C   UNL     1     -14.873   4.583  -1.997  0.00  0.00    +0.000 C 
ATOM     16  C   UNL     1     -13.932   3.463  -2.429  0.00  0.00    +0.000 C 
ATOM     17  C   UNL     1     -13.672   4.272  -3.700  0.00  0.00    +0.000 C 
ATOM     18  C   UNL     1     -14.285   5.571  -3.876  0.00  0.00    +0.000 C 
ATOM     19  H   UNL     1     -13.162   5.784  -5.398  0.00  0.00    +0.000 HD
ENDBRANCH  12  13
ENDBRANCH   6  12
TORSDOF 2
ENDMDL
MODEL 3
REMARK VINA RESULT:      -4.4     24.583     26.347
REMARK  Name = 6323266_Tipiracil.pdbqt.pdb
REMARK  2 active torsions:
REMARK  status: ('A' for Active; 'I' for Inactive)
REMARK    1  A    between atoms: C_6  and  C_12
REMARK    2  A    between atoms: C_12  and  N_13
REMARK                            x       y       z     vdW  Elec       q    Type
REMARK                         _______ _______ _______ _____ _____    ______ ____
ROOT
ATOM      1 CL   UNL     1     -12.893  17.923  24.607  0.00  0.00    +0.000 Cl
ATOM      2  O   UNL     1     -15.686  18.355  25.628  0.00  0.00    +0.000 OA
ATOM      3  O   UNL     1     -17.439  20.225  21.893  0.00  0.00    +0.000 OA
ATOM      4  N   UNL     1     -15.257  19.603  21.876  0.00  0.00    +0.000 N 
ATOM      5  N   UNL     1     -16.555  19.279  23.755  0.00  0.00    +0.000 N 
ATOM      6  C   UNL     1     -14.160  19.058  22.493  0.00  0.00    +0.000 A 
ATOM      7  C   UNL     1     -14.221  18.613  23.755  0.00  0.00    +0.000 A 
ATOM      8  C   UNL     1     -15.524  18.726  24.469  0.00  0.00    +0.000 A 
ATOM      9  C   UNL     1     -16.477  19.732  22.471  0.00  0.00    +0.000 A 
ATOM     10  H   UNL     1     -15.183  19.938  20.918  0.00  0.00    +0.000 HD
ATOM     11  H   UNL     1     -17.447  19.365  24.220  0.00  0.00    +0.000 HD
ENDROOT
BRANCH   6  12
ATOM     12  C   UNL     1     -12.977  19.008  21.706  0.00  0.00    +0.000 C 
BRANCH  12  13
ATOM     13  N   UNL     1     -11.705  18.978  21.012  0.00  0.00    +0.000 N 
ATOM     14  N   UNL     1     -11.428  16.525  20.929  0.00  0.00    +0.000 NA
ATOM     15  C   UNL     1     -11.559  19.813  19.820  0.00  0.00    +0.000 C 
ATOM     16  C   UNL     1     -10.980  19.310  18.502  0.00  0.00    +0.000 C 
ATOM     17  C   UNL     1     -10.865  17.935  19.162  0.00  0.00    +0.000 C 
ATOM     18  C   UNL     1     -11.344  17.733  20.512  0.00  0.00    +0.000 C 
ATOM     19  H   UNL     1     -11.071  15.871  20.224  0.00  0.00    +0.000 HD
ENDBRANCH  12  13
ENDBRANCH   6  12
TORSDOF 2
ENDMDL
MODEL 4
REMARK VINA RESULT:      -4.3      9.856     10.446
REMARK  Name = 6323266_Tipiracil.pdbqt.pdb
REMARK  2 active torsions:
REMARK  status: ('A' for Active; 'I' for Inactive)
REMARK    1  A    between atoms: C_6  and  C_12
REMARK    2  A    between atoms: C_12  and  N_13
REMARK                            x       y       z     vdW  Elec       q    Type
REMARK                         _______ _______ _______ _____ _____    ______ ____
ROOT
ATOM      1 CL   UNL     1      -7.945   0.604  -0.011  0.00  0.00    +0.000 Cl
ATOM      2  O   UNL     1      -5.437   1.032   1.587  0.00  0.00    +0.000 OA
ATOM      3  O   UNL     1      -7.382   1.987   5.565  0.00  0.00    +0.000 OA
ATOM      4  N   UNL     1      -8.714   1.530   3.785  0.00  0.00    +0.000 N 
ATOM      5  N   UNL     1      -6.417   1.498   3.572  0.00  0.00    +0.000 N 
ATOM      6  C   UNL     1      -8.880   1.199   2.465  0.00  0.00    +0.000 A 
ATOM      7  C   UNL     1      -7.828   1.013   1.657  0.00  0.00    +0.000 A 
ATOM      8  C   UNL     1      -6.466   1.174   2.241  0.00  0.00    +0.000 A 
ATOM      9  C   UNL     1      -7.497   1.690   4.382  0.00  0.00    +0.000 A 
ATOM     10  H   UNL     1      -9.530   1.671   4.377  0.00  0.00    +0.000 HD
ATOM     11  H   UNL     1      -5.504   1.612   3.988  0.00  0.00    +0.000 HD
ENDROOT
BRANCH   6  12
ATOM     12  C   UNL     1     -10.227   1.076   2.030  0.00  0.00    +0.000 C 
BRANCH  12  13
ATOM     13  N   UNL     1     -11.574   0.828   1.555  0.00  0.00    +0.000 N 
ATOM     14  N   UNL     1     -11.410   2.064  -0.576  0.00  0.00    +0.000 NA
ATOM     15  C   UNL     1     -12.076  -0.545   1.615  0.00  0.00    +0.000 C 
ATOM     16  C   UNL     1     -12.775  -1.241   0.453  0.00  0.00    +0.000 C 
ATOM     17  C   UNL     1     -12.521   0.028  -0.363  0.00  0.00    +0.000 C 
ATOM     18  C   UNL     1     -11.784   1.130   0.215  0.00  0.00    +0.000 C 
ATOM     19  H   UNL     1     -11.760   1.897  -1.527  0.00  0.00    +0.000 HD
ENDBRANCH  12  13
ENDBRANCH   6  12
TORSDOF 2
ENDMDL
MODEL 5
REMARK VINA RESULT:      -4.1     25.797     27.398
REMARK  Name = 6323266_Tipiracil.pdbqt.pdb
REMARK  2 active torsions:
REMARK  status: ('A' for Active; 'I' for Inactive)
REMARK    1  A    between atoms: C_6  and  C_12
REMARK    2  A    between atoms: C_12  and  N_13
REMARK                            x       y       z     vdW  Elec       q    Type
REMARK                         _______ _______ _______ _____ _____    ______ ____
ROOT
ATOM      1 CL   UNL     1     -12.554  18.792  24.579  0.00  0.00    +0.000 Cl
ATOM      2  O   UNL     1     -15.337  18.146  25.508  0.00  0.00    +0.000 OA
ATOM      3  O   UNL     1     -17.609  20.356  22.273  0.00  0.00    +0.000 OA
ATOM      4  N   UNL     1     -15.341  20.395  22.227  0.00  0.00    +0.000 N 
ATOM      5  N   UNL     1     -16.463  19.244  23.882  0.00  0.00    +0.000 N 
ATOM      6  C   UNL     1     -14.124  20.037  22.750  0.00  0.00    +0.000 A 
ATOM      7  C   UNL     1     -14.036  19.280  23.852  0.00  0.00    +0.000 A 
ATOM      8  C   UNL     1     -15.306  18.835  24.493  0.00  0.00    +0.000 A 
ATOM      9  C   UNL     1     -16.538  20.019  22.763  0.00  0.00    +0.000 A 
ATOM     10  H   UNL     1     -15.380  20.974  21.391  0.00  0.00    +0.000 HD
ATOM     11  H   UNL     1     -17.335  18.954  24.300  0.00  0.00    +0.000 HD
ENDROOT
BRANCH   6  12
ATOM     12  C   UNL     1     -12.989  20.524  22.048  0.00  0.00    +0.000 C 
BRANCH  12  13
ATOM     13  N   UNL     1     -11.759  20.943  21.404  0.00  0.00    +0.000 N 
ATOM     14  N   UNL     1     -12.287  20.145  19.128  0.00  0.00    +0.000 NA
ATOM     15  C   UNL     1     -11.288  22.305  21.656  0.00  0.00    +0.000 C 
ATOM     16  C   UNL     1     -10.832  23.257  20.557  0.00  0.00    +0.000 C 
ATOM     17  C   UNL     1     -11.204  22.163  19.555  0.00  0.00    +0.000 C 
ATOM     18  C   UNL     1     -11.794  20.925  20.016  0.00  0.00    +0.000 C 
ATOM     19  H   UNL     1     -12.123  20.517  18.185  0.00  0.00    +0.000 HD
ENDBRANCH  12  13
ENDBRANCH   6  12
TORSDOF 2
ENDMDL
MODEL 6
REMARK VINA RESULT:      -4.1     12.797     14.973
REMARK  Name = 6323266_Tipiracil.pdbqt.pdb
REMARK  2 active torsions:
REMARK  status: ('A' for Active; 'I' for Inactive)
REMARK    1  A    between atoms: C_6  and  C_12
REMARK    2  A    between atoms: C_12  and  N_13
REMARK                            x       y       z     vdW  Elec       q    Type
REMARK                         _______ _______ _______ _____ _____    ______ ____
ROOT
ATOM      1 CL   UNL     1      -7.033  16.816  -0.219  0.00  0.00    +0.000 Cl
ATOM      2  O   UNL     1      -7.317  15.156  -2.708  0.00  0.00    +0.000 OA
ATOM      3  O   UNL     1      -4.462  11.828  -1.573  0.00  0.00    +0.000 OA
ATOM      4  N   UNL     1      -4.781  13.533  -0.109  0.00  0.00    +0.000 N 
ATOM      5  N   UNL     1      -5.897  13.493  -2.128  0.00  0.00    +0.000 N 
ATOM      6  C   UNL     1      -5.378  14.716   0.242  0.00  0.00    +0.000 A 
ATOM      7  C   UNL     1      -6.245  15.327  -0.576  0.00  0.00    +0.000 A 
ATOM      8  C   UNL     1      -6.544  14.677  -1.884  0.00  0.00    +0.000 A 
ATOM      9  C   UNL     1      -5.013  12.885  -1.287  0.00  0.00    +0.000 A 
ATOM     10  H   UNL     1      -4.123  13.090   0.529  0.00  0.00    +0.000 HD
ATOM     11  H   UNL     1      -6.085  13.036  -3.008  0.00  0.00    +0.000 HD
ENDROOT
BRANCH   6  12
ATOM     12  C   UNL     1      -5.010  15.234   1.513  0.00  0.00    +0.000 C 
BRANCH  12  13
ATOM     13  N   UNL     1      -4.698  15.870   2.778  0.00  0.00    +0.000 N 
ATOM     14  N   UNL     1      -2.787  14.438   3.408  0.00  0.00    +0.000 NA
ATOM     15  C   UNL     1      -4.611  17.330   2.804  0.00  0.00    +0.000 C 
ATOM     16  C   UNL     1      -3.465  18.096   3.453  0.00  0.00    +0.000 C 
ATOM     17  C   UNL     1      -2.832  16.740   3.765  0.00  0.00    +0.000 C 
ATOM     18  C   UNL     1      -3.467  15.519   3.317  0.00  0.00    +0.000 C 
ATOM     19  H   UNL     1      -1.882  14.614   3.858  0.00  0.00    +0.000 HD
ENDBRANCH  12  13
ENDBRANCH   6  12
TORSDOF 2
ENDMDL
MODEL 7
REMARK VINA RESULT:      -4.0     13.766     15.010
REMARK  Name = 6323266_Tipiracil.pdbqt.pdb
REMARK  2 active torsions:
REMARK  status: ('A' for Active; 'I' for Inactive)
REMARK    1  A    between atoms: C_6  and  C_12
REMARK    2  A    between atoms: C_12  and  N_13
REMARK                            x       y       z     vdW  Elec       q    Type
REMARK                         _______ _______ _______ _____ _____    ______ ____
ROOT
ATOM      1 CL   UNL     1     -22.695  18.532  10.531  0.00  0.00    +0.000 Cl
ATOM      2  O   UNL     1     -22.509  20.686   8.445  0.00  0.00    +0.000 OA
ATOM      3  O   UNL     1     -21.243  18.081   4.962  0.00  0.00    +0.000 OA
ATOM      4  N   UNL     1     -21.594  17.104   6.980  0.00  0.00    +0.000 N 
ATOM      5  N   UNL     1     -21.887  19.376   6.709  0.00  0.00    +0.000 N 
ATOM      6  C   UNL     1     -21.937  17.179   8.306  0.00  0.00    +0.000 A 
ATOM      7  C   UNL     1     -22.260  18.347   8.876  0.00  0.00    +0.000 A 
ATOM      8  C   UNL     1     -22.237  19.567   8.020  0.00  0.00    +0.000 A 
ATOM      9  C   UNL     1     -21.556  18.180   6.143  0.00  0.00    +0.000 A 
ATOM     10  H   UNL     1     -21.349  16.204   6.572  0.00  0.00    +0.000 HD
ATOM     11  H   UNL     1     -21.865  20.190   6.112  0.00  0.00    +0.000 HD
ENDROOT
BRANCH   6  12
ATOM     12  C   UNL     1     -21.921  15.946   9.013  0.00  0.00    +0.000 C 
BRANCH  12  13
ATOM     13  N   UNL     1     -22.033  14.689   9.727  0.00  0.00    +0.000 N 
ATOM     14  N   UNL     1     -23.587  15.447  11.491  0.00  0.00    +0.000 NA
ATOM     15  C   UNL     1     -22.283  13.480   8.944  0.00  0.00    +0.000 C 
ATOM     16  C   UNL     1     -23.350  12.450   9.298  0.00  0.00    +0.000 C 
ATOM     17  C   UNL     1     -23.740  13.362  10.462  0.00  0.00    +0.000 C 
ATOM     18  C   UNL     1     -23.074  14.634  10.646  0.00  0.00    +0.000 C 
ATOM     19  H   UNL     1     -24.391  15.020  11.964  0.00  0.00    +0.000 HD
ENDBRANCH  12  13
ENDBRANCH   6  12
TORSDOF 2
ENDMDL
MODEL 8
REMARK VINA RESULT:      -3.9     20.852     22.471
REMARK  Name = 6323266_Tipiracil.pdbqt.pdb
REMARK  2 active torsions:
REMARK  status: ('A' for Active; 'I' for Inactive)
REMARK    1  A    between atoms: C_6  and  C_12
REMARK    2  A    between atoms: C_12  and  N_13
REMARK                            x       y       z     vdW  Elec       q    Type
REMARK                         _______ _______ _______ _____ _____    ______ ____
ROOT
ATOM      1 CL   UNL     1     -10.524   6.552  21.718  0.00  0.00    +0.000 Cl
ATOM      2  O   UNL     1     -12.587   6.687  23.897  0.00  0.00    +0.000 OA
ATOM      3  O   UNL     1     -15.677   3.967  22.008  0.00  0.00    +0.000 OA
ATOM      4  N   UNL     1     -13.745   4.361  20.886  0.00  0.00    +0.000 N 
ATOM      5  N   UNL     1     -14.120   5.319  22.951  0.00  0.00    +0.000 N 
ATOM      6  C   UNL     1     -12.514   4.960  20.789  0.00  0.00    +0.000 A 
ATOM      7  C   UNL     1     -12.050   5.757  21.761  0.00  0.00    +0.000 A 
ATOM      8  C   UNL     1     -12.915   5.971  22.956  0.00  0.00    +0.000 A 
ATOM      9  C   UNL     1     -14.582   4.514  21.952  0.00  0.00    +0.000 A 
ATOM     10  H   UNL     1     -14.076   3.763  20.132  0.00  0.00    +0.000 HD
ATOM     11  H   UNL     1     -14.721   5.451  23.751  0.00  0.00    +0.000 HD
ENDROOT
BRANCH   6  12
ATOM     12  C   UNL     1     -11.788   4.676  19.601  0.00  0.00    +0.000 C 
BRANCH  12  13
ATOM     13  N   UNL     1     -11.141   4.305  18.358  0.00  0.00    +0.000 N 
ATOM     14  N   UNL     1     -10.462   6.570  17.647  0.00  0.00    +0.000 NA
ATOM     15  C   UNL     1     -10.196   3.189  18.389  0.00  0.00    +0.000 C 
ATOM     16  C   UNL     1      -8.810   3.238  17.754  0.00  0.00    +0.000 C 
ATOM     17  C   UNL     1      -9.113   4.690  17.381  0.00  0.00    +0.000 C 
ATOM     18  C   UNL     1     -10.358   5.302  17.789  0.00  0.00    +0.000 C 
ATOM     19  H   UNL     1      -9.626   6.955  17.191  0.00  0.00    +0.000 HD
ENDBRANCH  12  13
ENDBRANCH   6  12
TORSDOF 2
ENDMDL
MODEL 9
REMARK VINA RESULT:      -3.9     26.539     27.209
REMARK  Name = 6323266_Tipiracil.pdbqt.pdb
REMARK  2 active torsions:
REMARK  status: ('A' for Active; 'I' for Inactive)
REMARK    1  A    between atoms: C_6  and  C_12
REMARK    2  A    between atoms: C_12  and  N_13
REMARK                            x       y       z     vdW  Elec       q    Type
REMARK                         _______ _______ _______ _____ _____    ______ ____
ROOT
ATOM      1 CL   UNL     1     -11.754  19.285  22.330  0.00  0.00    +0.000 Cl
ATOM      2  O   UNL     1     -13.689  17.657  23.953  0.00  0.00    +0.000 OA
ATOM      3  O   UNL     1     -17.450  19.978  22.962  0.00  0.00    +0.000 OA
ATOM      4  N   UNL     1     -15.484  20.654  22.052  0.00  0.00    +0.000 N 
ATOM      5  N   UNL     1     -15.564  18.816  23.444  0.00  0.00    +0.000 N 
ATOM      6  C   UNL     1     -14.131  20.513  21.880  0.00  0.00    +0.000 A 
ATOM      7  C   UNL     1     -13.451  19.529  22.484  0.00  0.00    +0.000 A 
ATOM      8  C   UNL     1     -14.216  18.587  23.350  0.00  0.00    +0.000 A 
ATOM      9  C   UNL     1     -16.242  19.825  22.827  0.00  0.00    +0.000 A 
ATOM     10  H   UNL     1     -15.976  21.412  21.585  0.00  0.00    +0.000 HD
ATOM     11  H   UNL     1     -16.101  18.189  24.026  0.00  0.00    +0.000 HD
ENDROOT
BRANCH   6  12
ATOM     12  C   UNL     1     -13.519  21.475  21.032  0.00  0.00    +0.000 C 
BRANCH  12  13
ATOM     13  N   UNL     1     -13.011  22.479  20.118  0.00  0.00    +0.000 N 
ATOM     14  N   UNL     1     -15.184  23.260  19.241  0.00  0.00    +0.000 NA
ATOM     15  C   UNL     1     -12.001  23.410  20.621  0.00  0.00    +0.000 C 
ATOM     16  C   UNL     1     -12.069  24.920  20.419  0.00  0.00    +0.000 C 
ATOM     17  C   UNL     1     -13.410  24.692  19.720  0.00  0.00    +0.000 C 
ATOM     18  C   UNL     1     -13.969  23.361  19.632  0.00  0.00    +0.000 C 
ATOM     19  H   UNL     1     -15.562  24.180  18.988  0.00  0.00    +0.000 HD
ENDBRANCH  12  13
ENDBRANCH   6  12
TORSDOF 2
ENDMDL
