MODEL 1
REMARK VINA RESULT:      -6.2      0.000      0.000
REMARK  Name = 6325056_Deoxyelephantopin.pdbqt.pdb
REMARK  3 active torsions:
REMARK  status: ('A' for Active; 'I' for Inactive)
REMARK    1  A    between atoms: C_6  and  O_20
REMARK    2  A    between atoms: O_20  and  C_22
REMARK    3  A    between atoms: C_22  and  C_23
REMARK                            x       y       z     vdW  Elec       q    Type
REMARK                         _______ _______ _______ _____ _____    ______ ____
ROOT
ATOM      1  O   UNL     1      -7.307   0.918  17.692  0.00  0.00    +0.000 OA
ATOM      2  O   UNL     1     -10.519   6.591  17.513  0.00  0.00    +0.000 OA
ATOM      3  O   UNL     1      -5.794  -0.538  16.761  0.00  0.00    +0.000 OA
ATOM      4  O   UNL     1      -8.789   7.686  16.419  0.00  0.00    +0.000 OA
ATOM      5  C   UNL     1      -7.068   2.739  16.210  0.00  0.00    +0.000 C 
ATOM      6  C   UNL     1      -7.183   4.066  15.604  0.00  0.00    +0.000 C 
ATOM      7  C   UNL     1      -7.742   2.213  17.383  0.00  0.00    +0.000 C 
ATOM      8  C   UNL     1      -8.403   4.788  15.528  0.00  0.00    +0.000 C 
ATOM      9  C   UNL     1      -6.185   1.666  15.803  0.00  0.00    +0.000 C 
ATOM     10  C   UNL     1      -9.612   5.548  15.625  0.00  0.00    +0.000 C 
ATOM     11  C   UNL     1      -8.781   2.782  18.156  0.00  0.00    +0.000 C 
ATOM     12  C   UNL     1     -11.053   5.300  17.309  0.00  0.00    +0.000 C 
ATOM     13  C   UNL     1     -10.670   4.342  18.295  0.00  0.00    +0.000 C 
ATOM     14  C   UNL     1      -9.883   3.324  18.880  0.00  0.00    +0.000 C 
ATOM     15  C   UNL     1     -10.811   4.911  15.977  0.00  0.00    +0.000 C 
ATOM     16  C   UNL     1      -6.358   0.543  16.763  0.00  0.00    +0.000 C 
ATOM     17  C   UNL     1      -9.576   6.761  16.509  0.00  0.00    +0.000 C 
ATOM     18  C   UNL     1      -5.406   1.638  14.716  0.00  0.00    +0.000 C 
ATOM     19  C   UNL     1     -10.358   2.640  20.121  0.00  0.00    +0.000 C 
ENDROOT
BRANCH   6  20
ATOM     20  O   UNL     1      -6.125   4.578  14.834  0.00  0.00    +0.000 OA
BRANCH  20  22
ATOM     21  O   UNL     1      -5.701   6.592  15.864  0.00  0.00    +0.000 OA
ATOM     22  C   UNL     1      -5.318   5.491  15.476  0.00  0.00    +0.000 C 
BRANCH  22  23
ATOM     23  C   UNL     1      -3.927   4.931  15.630  0.00  0.00    +0.000 C 
ATOM     24  C   UNL     1      -3.493   4.102  16.828  0.00  0.00    +0.000 C 
ATOM     25  C   UNL     1      -2.996   5.078  14.679  0.00  0.00    +0.000 C 
ENDBRANCH  22  23
ENDBRANCH  20  22
ENDBRANCH   6  20
TORSDOF 3
ENDMDL
MODEL 2
REMARK VINA RESULT:      -6.0      3.278      7.054
REMARK  Name = 6325056_Deoxyelephantopin.pdbqt.pdb
REMARK  3 active torsions:
REMARK  status: ('A' for Active; 'I' for Inactive)
REMARK    1  A    between atoms: C_6  and  O_20
REMARK    2  A    between atoms: O_20  and  C_22
REMARK    3  A    between atoms: C_22  and  C_23
REMARK                            x       y       z     vdW  Elec       q    Type
REMARK                         _______ _______ _______ _____ _____    ______ ____
ROOT
ATOM      1  O   UNL     1     -10.720   7.300  21.878  0.00  0.00    +0.000 OA
ATOM      2  O   UNL     1      -7.493   6.435  16.277  0.00  0.00    +0.000 OA
ATOM      3  O   UNL     1     -12.532   6.850  23.216  0.00  0.00    +0.000 OA
ATOM      4  O   UNL     1      -8.285   4.270  16.002  0.00  0.00    +0.000 OA
ATOM      5  C   UNL     1     -11.177   5.833  20.086  0.00  0.00    +0.000 C 
ATOM      6  C   UNL     1     -11.041   5.054  18.855  0.00  0.00    +0.000 C 
ATOM      7  C   UNL     1     -10.277   6.831  20.634  0.00  0.00    +0.000 C 
ATOM      8  C   UNL     1     -10.500   5.580  17.653  0.00  0.00    +0.000 C 
ATOM      9  C   UNL     1     -12.224   5.722  21.080  0.00  0.00    +0.000 C 
ATOM     10  C   UNL     1      -9.796   6.096  16.519  0.00  0.00    +0.000 C 
ATOM     11  C   UNL     1      -9.122   7.414  20.062  0.00  0.00    +0.000 C 
ATOM     12  C   UNL     1      -8.161   7.602  16.707  0.00  0.00    +0.000 C 
ATOM     13  C   UNL     1      -7.856   7.998  18.043  0.00  0.00    +0.000 C 
ATOM     14  C   UNL     1      -8.008   8.057  19.447  0.00  0.00    +0.000 C 
ATOM     15  C   UNL     1      -9.536   7.472  16.425  0.00  0.00    +0.000 C 
ATOM     16  C   UNL     1     -11.897   6.652  22.194  0.00  0.00    +0.000 C 
ATOM     17  C   UNL     1      -8.474   5.458  16.198  0.00  0.00    +0.000 C 
ATOM     18  C   UNL     1     -13.335   4.981  20.995  0.00  0.00    +0.000 C 
ATOM     19  C   UNL     1      -7.168   9.001  20.245  0.00  0.00    +0.000 C 
ENDROOT
BRANCH   6  20
ATOM     20  O   UNL     1     -11.687   3.811  18.738  0.00  0.00    +0.000 OA
BRANCH  20  22
ATOM     21  O   UNL     1      -9.823   2.471  18.578  0.00  0.00    +0.000 OA
ATOM     22  C   UNL     1     -10.921   2.716  19.072  0.00  0.00    +0.000 C 
BRANCH  22  23
ATOM     23  C   UNL     1     -11.626   1.894  20.121  0.00  0.00    +0.000 C 
ATOM     24  C   UNL     1     -11.124   1.765  21.549  0.00  0.00    +0.000 C 
ATOM     25  C   UNL     1     -12.784   1.271  19.870  0.00  0.00    +0.000 C 
ENDBRANCH  22  23
ENDBRANCH  20  22
ENDBRANCH   6  20
TORSDOF 3
ENDMDL
MODEL 3
REMARK VINA RESULT:      -5.7     17.355     19.934
REMARK  Name = 6325056_Deoxyelephantopin.pdbqt.pdb
REMARK  3 active torsions:
REMARK  status: ('A' for Active; 'I' for Inactive)
REMARK    1  A    between atoms: C_6  and  O_20
REMARK    2  A    between atoms: O_20  and  C_22
REMARK    3  A    between atoms: C_22  and  C_23
REMARK                            x       y       z     vdW  Elec       q    Type
REMARK                         _______ _______ _______ _____ _____    ______ ____
ROOT
ATOM      1  O   UNL     1      -4.435  18.984   4.380  0.00  0.00    +0.000 OA
ATOM      2  O   UNL     1      -6.277  16.360  -1.299  0.00  0.00    +0.000 OA
ATOM      3  O   UNL     1      -3.557  18.740   6.488  0.00  0.00    +0.000 OA
ATOM      4  O   UNL     1      -4.681  14.677  -1.190  0.00  0.00    +0.000 OA
ATOM      5  C   UNL     1      -4.185  16.774   3.590  0.00  0.00    +0.000 C 
ATOM      6  C   UNL     1      -4.157  15.604   2.711  0.00  0.00    +0.000 C 
ATOM      7  C   UNL     1      -4.641  18.121   3.296  0.00  0.00    +0.000 C 
ATOM      8  C   UNL     1      -5.170  15.316   1.759  0.00  0.00    +0.000 C 
ATOM      9  C   UNL     1      -3.688  16.860   4.946  0.00  0.00    +0.000 C 
ATOM     10  C   UNL     1      -6.121  15.157   0.702  0.00  0.00    +0.000 C 
ATOM     11  C   UNL     1      -5.304  18.618   2.150  0.00  0.00    +0.000 C 
ATOM     12  C   UNL     1      -7.112  16.890  -0.292  0.00  0.00    +0.000 C 
ATOM     13  C   UNL     1      -6.712  18.172   0.191  0.00  0.00    +0.000 C 
ATOM     14  C   UNL     1      -6.044  19.094   1.028  0.00  0.00    +0.000 C 
ATOM     15  C   UNL     1      -7.303  15.913   0.705  0.00  0.00    +0.000 C 
ATOM     16  C   UNL     1      -3.854  18.266   5.405  0.00  0.00    +0.000 C 
ATOM     17  C   UNL     1      -5.603  15.306  -0.700  0.00  0.00    +0.000 C 
ATOM     18  C   UNL     1      -3.231  15.852   5.698  0.00  0.00    +0.000 C 
ATOM     19  C   UNL     1      -6.329  20.555   0.900  0.00  0.00    +0.000 C 
ENDROOT
BRANCH   6  20
ATOM     20  O   UNL     1      -3.241  14.567   2.956  0.00  0.00    +0.000 OA
BRANCH  20  22
ATOM     21  O   UNL     1      -2.165  14.027   0.994  0.00  0.00    +0.000 OA
ATOM     22  C   UNL     1      -2.152  14.533   2.113  0.00  0.00    +0.000 C 
BRANCH  22  23
ATOM     23  C   UNL     1      -0.973  15.209   2.767  0.00  0.00    +0.000 C 
ATOM     24  C   UNL     1      -0.583  16.651   2.486  0.00  0.00    +0.000 C 
ATOM     25  C   UNL     1      -0.228  14.592   3.692  0.00  0.00    +0.000 C 
ENDBRANCH  22  23
ENDBRANCH  20  22
ENDBRANCH   6  20
TORSDOF 3
ENDMDL
MODEL 4
REMARK VINA RESULT:      -5.6     18.746     21.762
REMARK  Name = 6325056_Deoxyelephantopin.pdbqt.pdb
REMARK  3 active torsions:
REMARK  status: ('A' for Active; 'I' for Inactive)
REMARK    1  A    between atoms: C_6  and  O_20
REMARK    2  A    between atoms: O_20  and  C_22
REMARK    3  A    between atoms: C_22  and  C_23
REMARK                            x       y       z     vdW  Elec       q    Type
REMARK                         _______ _______ _______ _____ _____    ______ ____
ROOT
ATOM      1  O   UNL     1     -22.099  12.155   8.969  0.00  0.00    +0.000 OA
ATOM      2  O   UNL     1     -26.040  17.316   8.366  0.00  0.00    +0.000 OA
ATOM      3  O   UNL     1     -21.522  10.015   8.366  0.00  0.00    +0.000 OA
ATOM      4  O   UNL     1     -26.507  16.864   6.137  0.00  0.00    +0.000 OA
ATOM      5  C   UNL     1     -23.872  12.528   7.457  0.00  0.00    +0.000 C 
ATOM      6  C   UNL     1     -24.931  13.181   6.687  0.00  0.00    +0.000 C 
ATOM      7  C   UNL     1     -23.066  13.071   8.535  0.00  0.00    +0.000 C 
ATOM      8  C   UNL     1     -25.862  14.092   7.252  0.00  0.00    +0.000 C 
ATOM      9  C   UNL     1     -23.340  11.197   7.258  0.00  0.00    +0.000 C 
ATOM     10  C   UNL     1     -26.667  15.127   7.823  0.00  0.00    +0.000 C 
ATOM     11  C   UNL     1     -23.185  14.305   9.216  0.00  0.00    +0.000 C 
ATOM     12  C   UNL     1     -25.939  16.443   9.470  0.00  0.00    +0.000 C 
ATOM     13  C   UNL     1     -24.602  16.188   9.899  0.00  0.00    +0.000 C 
ATOM     14  C   UNL     1     -23.362  15.513   9.953  0.00  0.00    +0.000 C 
ATOM     15  C   UNL     1     -26.711  15.292   9.216  0.00  0.00    +0.000 C 
ATOM     16  C   UNL     1     -22.222  11.003   8.221  0.00  0.00    +0.000 C 
ATOM     17  C   UNL     1     -26.444  16.519   7.304  0.00  0.00    +0.000 C 
ATOM     18  C   UNL     1     -23.806  10.264   6.420  0.00  0.00    +0.000 C 
ATOM     19  C   UNL     1     -22.344  15.910  10.973  0.00  0.00    +0.000 C 
ENDROOT
BRANCH   6  20
ATOM     20  O   UNL     1     -25.233  12.730   5.390  0.00  0.00    +0.000 OA
BRANCH  20  22
ATOM     21  O   UNL     1     -25.525  14.515   3.967  0.00  0.00    +0.000 OA
ATOM     22  C   UNL     1     -24.849  13.572   4.370  0.00  0.00    +0.000 C 
BRANCH  22  23
ATOM     23  C   UNL     1     -23.494  13.165   3.847  0.00  0.00    +0.000 C 
ATOM     24  C   UNL     1     -23.244  11.850   3.126  0.00  0.00    +0.000 C 
ATOM     25  C   UNL     1     -22.431  13.974   3.932  0.00  0.00    +0.000 C 
ENDBRANCH  22  23
ENDBRANCH  20  22
ENDBRANCH   6  20
TORSDOF 3
ENDMDL
MODEL 5
REMARK VINA RESULT:      -5.4     18.607     21.522
REMARK  Name = 6325056_Deoxyelephantopin.pdbqt.pdb
REMARK  3 active torsions:
REMARK  status: ('A' for Active; 'I' for Inactive)
REMARK    1  A    between atoms: C_6  and  O_20
REMARK    2  A    between atoms: O_20  and  C_22
REMARK    3  A    between atoms: C_22  and  C_23
REMARK                            x       y       z     vdW  Elec       q    Type
REMARK                         _______ _______ _______ _____ _____    ______ ____
ROOT
ATOM      1  O   UNL     1     -21.821  12.341   8.920  0.00  0.00    +0.000 OA
ATOM      2  O   UNL     1     -23.054  18.667   7.930  0.00  0.00    +0.000 OA
ATOM      3  O   UNL     1     -22.238  10.136   8.431  0.00  0.00    +0.000 OA
ATOM      4  O   UNL     1     -23.621  18.343   5.702  0.00  0.00    +0.000 OA
ATOM      5  C   UNL     1     -23.210  13.372   7.314  0.00  0.00    +0.000 C 
ATOM      6  C   UNL     1     -23.853  14.380   6.471  0.00  0.00    +0.000 C 
ATOM      7  C   UNL     1     -22.272  13.563   8.406  0.00  0.00    +0.000 C 
ATOM      8  C   UNL     1     -24.296  15.638   6.956  0.00  0.00    +0.000 C 
ATOM      9  C   UNL     1     -23.319  11.933   7.194  0.00  0.00    +0.000 C 
ATOM     10  C   UNL     1     -24.572  16.953   7.447  0.00  0.00    +0.000 C 
ATOM     11  C   UNL     1     -21.848  14.759   9.030  0.00  0.00    +0.000 C 
ATOM     12  C   UNL     1     -23.375  17.903   9.072  0.00  0.00    +0.000 C 
ATOM     13  C   UNL     1     -22.300  17.109   9.571  0.00  0.00    +0.000 C 
ATOM     14  C   UNL     1     -21.488  15.960   9.709  0.00  0.00    +0.000 C 
ATOM     15  C   UNL     1     -24.571  17.198   8.829  0.00  0.00    +0.000 C 
ATOM     16  C   UNL     1     -22.425  11.321   8.213  0.00  0.00    +0.000 C 
ATOM     17  C   UNL     1     -23.744  18.072   6.883  0.00  0.00    +0.000 C 
ATOM     18  C   UNL     1     -24.131  11.256   6.374  0.00  0.00    +0.000 C 
ATOM     19  C   UNL     1     -20.424  15.924  10.757  0.00  0.00    +0.000 C 
ENDROOT
BRANCH   6  20
ATOM     20  O   UNL     1     -24.293  14.036   5.181  0.00  0.00    +0.000 OA
BRANCH  20  22
ATOM     21  O   UNL     1     -22.651  13.131   3.846  0.00  0.00    +0.000 OA
ATOM     22  C   UNL     1     -23.331  14.093   4.197  0.00  0.00    +0.000 C 
BRANCH  22  23
ATOM     23  C   UNL     1     -23.257  15.487   3.628  0.00  0.00    +0.000 C 
ATOM     24  C   UNL     1     -21.956  16.261   3.494  0.00  0.00    +0.000 C 
ATOM     25  C   UNL     1     -24.338  16.111   3.142  0.00  0.00    +0.000 C 
ENDBRANCH  22  23
ENDBRANCH  20  22
ENDBRANCH   6  20
TORSDOF 3
ENDMDL
MODEL 6
REMARK VINA RESULT:      -5.4     14.146     16.654
REMARK  Name = 6325056_Deoxyelephantopin.pdbqt.pdb
REMARK  3 active torsions:
REMARK  status: ('A' for Active; 'I' for Inactive)
REMARK    1  A    between atoms: C_6  and  O_20
REMARK    2  A    between atoms: O_20  and  C_22
REMARK    3  A    between atoms: C_22  and  C_23
REMARK                            x       y       z     vdW  Elec       q    Type
REMARK                         _______ _______ _______ _____ _____    ______ ____
ROOT
ATOM      1  O   UNL     1     -12.766  19.337  19.441  0.00  0.00    +0.000 OA
ATOM      2  O   UNL     1     -15.183  17.986  25.345  0.00  0.00    +0.000 OA
ATOM      3  O   UNL     1     -10.978  19.437  18.002  0.00  0.00    +0.000 OA
ATOM      4  O   UNL     1     -13.625  16.311  25.744  0.00  0.00    +0.000 OA
ATOM      5  C   UNL     1     -11.713  18.354  21.311  0.00  0.00    +0.000 C 
ATOM      6  C   UNL     1     -11.493  17.726  22.614  0.00  0.00    +0.000 C 
ATOM      7  C   UNL     1     -12.945  18.882  20.754  0.00  0.00    +0.000 C 
ATOM      8  C   UNL     1     -12.138  18.148  23.806  0.00  0.00    +0.000 C 
ATOM      9  C   UNL     1     -10.746  18.525  20.247  0.00  0.00    +0.000 C 
ATOM     10  C   UNL     1     -12.934  18.493  24.943  0.00  0.00    +0.000 C 
ATOM     11  C   UNL     1     -14.208  19.060  21.366  0.00  0.00    +0.000 C 
ATOM     12  C   UNL     1     -15.021  19.259  24.760  0.00  0.00    +0.000 C 
ATOM     13  C   UNL     1     -15.510  19.361  23.424  0.00  0.00    +0.000 C 
ATOM     14  C   UNL     1     -15.454  19.313  22.012  0.00  0.00    +0.000 C 
ATOM     15  C   UNL     1     -13.686  19.677  24.937  0.00  0.00    +0.000 C 
ATOM     16  C   UNL     1     -11.447  19.137  19.087  0.00  0.00    +0.000 C 
ATOM     17  C   UNL     1     -13.904  17.454  25.429  0.00  0.00    +0.000 C 
ATOM     18  C   UNL     1      -9.436  18.260  20.305  0.00  0.00    +0.000 C 
ATOM     19  C   UNL     1     -16.621  19.784  21.206  0.00  0.00    +0.000 C 
ENDROOT
BRANCH   6  20
ATOM     20  O   UNL     1     -10.423  16.830  22.786  0.00  0.00    +0.000 OA
BRANCH  20  22
ATOM     21  O   UNL     1     -11.509  14.804  22.917  0.00  0.00    +0.000 OA
ATOM     22  C   UNL     1     -10.747  15.639  23.399  0.00  0.00    +0.000 C 
BRANCH  22  23
ATOM     23  C   UNL     1     -10.024  15.525  24.717  0.00  0.00    +0.000 C 
ATOM     24  C   UNL     1      -8.846  16.406  25.097  0.00  0.00    +0.000 C 
ATOM     25  C   UNL     1     -10.422  14.672  25.670  0.00  0.00    +0.000 C 
ENDBRANCH  22  23
ENDBRANCH  20  22
ENDBRANCH   6  20
TORSDOF 3
ENDMDL
MODEL 7
REMARK VINA RESULT:      -5.2      2.393      6.731
REMARK  Name = 6325056_Deoxyelephantopin.pdbqt.pdb
REMARK  3 active torsions:
REMARK  status: ('A' for Active; 'I' for Inactive)
REMARK    1  A    between atoms: C_6  and  O_20
REMARK    2  A    between atoms: O_20  and  C_22
REMARK    3  A    between atoms: C_22  and  C_23
REMARK                            x       y       z     vdW  Elec       q    Type
REMARK                         _______ _______ _______ _____ _____    ______ ____
ROOT
ATOM      1  O   UNL     1      -3.694   8.431  17.236  0.00  0.00    +0.000 OA
ATOM      2  O   UNL     1      -5.911   2.474  15.777  0.00  0.00    +0.000 OA
ATOM      3  O   UNL     1      -4.103  10.633  17.745  0.00  0.00    +0.000 OA
ATOM      4  O   UNL     1      -7.861   2.756  17.006  0.00  0.00    +0.000 OA
ATOM      5  C   UNL     1      -5.909   7.618  17.189  0.00  0.00    +0.000 C 
ATOM      6  C   UNL     1      -7.061   6.717  17.127  0.00  0.00    +0.000 C 
ATOM      7  C   UNL     1      -4.500   7.304  17.033  0.00  0.00    +0.000 C 
ATOM      8  C   UNL     1      -7.152   5.625  16.225  0.00  0.00    +0.000 C 
ATOM      9  C   UNL     1      -5.921   9.033  17.494  0.00  0.00    +0.000 C 
ATOM     10  C   UNL     1      -7.130   4.441  15.423  0.00  0.00    +0.000 C 
ATOM     11  C   UNL     1      -3.885   6.091  16.643  0.00  0.00    +0.000 C 
ATOM     12  C   UNL     1      -5.239   3.370  14.918  0.00  0.00    +0.000 C 
ATOM     13  C   UNL     1      -4.056   3.942  15.472  0.00  0.00    +0.000 C 
ATOM     14  C   UNL     1      -3.276   4.892  16.170  0.00  0.00    +0.000 C 
ATOM     15  C   UNL     1      -6.168   4.301  14.411  0.00  0.00    +0.000 C 
ATOM     16  C   UNL     1      -4.510   9.505  17.524  0.00  0.00    +0.000 C 
ATOM     17  C   UNL     1      -7.074   3.130  16.155  0.00  0.00    +0.000 C 
ATOM     18  C   UNL     1      -6.998   9.811  17.647  0.00  0.00    +0.000 C 
ATOM     19  C   UNL     1      -1.786   4.768  16.178  0.00  0.00    +0.000 C 
ENDROOT
BRANCH   6  20
ATOM     20  O   UNL     1      -8.250   7.056  17.794  0.00  0.00    +0.000 OA
BRANCH  20  22
ATOM     21  O   UNL     1      -9.461   7.738  15.959  0.00  0.00    +0.000 OA
ATOM     22  C   UNL     1      -9.377   7.096  17.003  0.00  0.00    +0.000 C 
BRANCH  22  23
ATOM     23  C   UNL     1     -10.461   6.238  17.606  0.00  0.00    +0.000 C 
ATOM     24  C   UNL     1     -11.334   6.696  18.763  0.00  0.00    +0.000 C 
ATOM     25  C   UNL     1     -10.764   5.031  17.112  0.00  0.00    +0.000 C 
ENDBRANCH  22  23
ENDBRANCH  20  22
ENDBRANCH   6  20
TORSDOF 3
ENDMDL
MODEL 8
REMARK VINA RESULT:      -5.2      3.294      6.479
REMARK  Name = 6325056_Deoxyelephantopin.pdbqt.pdb
REMARK  3 active torsions:
REMARK  status: ('A' for Active; 'I' for Inactive)
REMARK    1  A    between atoms: C_6  and  O_20
REMARK    2  A    between atoms: O_20  and  C_22
REMARK    3  A    between atoms: C_22  and  C_23
REMARK                            x       y       z     vdW  Elec       q    Type
REMARK                         _______ _______ _______ _____ _____    ______ ____
ROOT
ATOM      1  O   UNL     1      -4.560   7.665  16.889  0.00  0.00    +0.000 OA
ATOM      2  O   UNL     1     -10.236   4.463  16.649  0.00  0.00    +0.000 OA
ATOM      3  O   UNL     1      -3.329   9.476  17.583  0.00  0.00    +0.000 OA
ATOM      4  O   UNL     1     -10.931   5.273  18.711  0.00  0.00    +0.000 OA
ATOM      5  C   UNL     1      -6.604   8.139  17.969  0.00  0.00    +0.000 C 
ATOM      6  C   UNL     1      -7.967   8.014  18.489  0.00  0.00    +0.000 C 
ATOM      7  C   UNL     1      -5.874   7.230  17.105  0.00  0.00    +0.000 C 
ATOM      8  C   UNL     1      -9.043   7.472  17.739  0.00  0.00    +0.000 C 
ATOM      9  C   UNL     1      -5.647   9.183  18.268  0.00  0.00    +0.000 C 
ATOM     10  C   UNL     1     -10.055   6.768  17.013  0.00  0.00    +0.000 C 
ATOM     11  C   UNL     1      -6.325   6.072  16.428  0.00  0.00    +0.000 C 
ATOM     12  C   UNL     1      -9.581   5.121  15.586  0.00  0.00    +0.000 C 
ATOM     13  C   UNL     1      -8.194   4.808  15.465  0.00  0.00    +0.000 C 
ATOM     14  C   UNL     1      -6.805   4.955  15.684  0.00  0.00    +0.000 C 
ATOM     15  C   UNL     1      -9.876   6.497  15.648  0.00  0.00    +0.000 C 
ATOM     16  C   UNL     1      -4.373   8.845  17.578  0.00  0.00    +0.000 C 
ATOM     17  C   UNL     1     -10.503   5.453  17.584  0.00  0.00    +0.000 C 
ATOM     18  C   UNL     1      -5.872  10.300  18.969  0.00  0.00    +0.000 C 
ATOM     19  C   UNL     1      -5.840   4.106  14.922  0.00  0.00    +0.000 C 
ENDROOT
BRANCH   6  20
ATOM     20  O   UNL     1      -8.324   8.669  19.680  0.00  0.00    +0.000 OA
BRANCH  20  22
ATOM     21  O   UNL     1      -7.898   6.911  21.102  0.00  0.00    +0.000 OA
ATOM     22  C   UNL     1      -8.613   7.842  20.743  0.00  0.00    +0.000 C 
BRANCH  22  23
ATOM     23  C   UNL     1      -9.912   8.261  21.383  0.00  0.00    +0.000 C 
ATOM     24  C   UNL     1     -10.140   9.645  21.969  0.00  0.00    +0.000 C 
ATOM     25  C   UNL     1     -10.977   7.451  21.418  0.00  0.00    +0.000 C 
ENDBRANCH  22  23
ENDBRANCH  20  22
ENDBRANCH   6  20
TORSDOF 3
ENDMDL
MODEL 9
REMARK VINA RESULT:      -5.0     17.930     20.801
REMARK  Name = 6325056_Deoxyelephantopin.pdbqt.pdb
REMARK  3 active torsions:
REMARK  status: ('A' for Active; 'I' for Inactive)
REMARK    1  A    between atoms: C_6  and  O_20
REMARK    2  A    between atoms: O_20  and  C_22
REMARK    3  A    between atoms: C_22  and  C_23
REMARK                            x       y       z     vdW  Elec       q    Type
REMARK                         _______ _______ _______ _____ _____    ______ ____
ROOT
ATOM      1  O   UNL     1      -5.496  19.599   4.209  0.00  0.00    +0.000 OA
ATOM      2  O   UNL     1      -2.406  14.137   2.435  0.00  0.00    +0.000 OA
ATOM      3  O   UNL     1      -6.705  21.469   3.647  0.00  0.00    +0.000 OA
ATOM      4  O   UNL     1      -3.810  13.776   0.622  0.00  0.00    +0.000 OA
ATOM      5  C   UNL     1      -5.368  18.560   2.094  0.00  0.00    +0.000 C 
ATOM      6  C   UNL     1      -5.115  17.580   1.037  0.00  0.00    +0.000 C 
ATOM      7  C   UNL     1      -5.011  18.494   3.500  0.00  0.00    +0.000 C 
ATOM      8  C   UNL     1      -3.924  16.813   0.950  0.00  0.00    +0.000 C 
ATOM      9  C   UNL     1      -6.105  19.801   1.978  0.00  0.00    +0.000 C 
ATOM     10  C   UNL     1      -2.789  15.943   0.997  0.00  0.00    +0.000 C 
ATOM     11  C   UNL     1      -4.210  17.548   4.182  0.00  0.00    +0.000 C 
ATOM     12  C   UNL     1      -1.824  15.331   2.913  0.00  0.00    +0.000 C 
ATOM     13  C   UNL     1      -2.436  15.855   4.090  0.00  0.00    +0.000 C 
ATOM     14  C   UNL     1      -3.336  16.639   4.848  0.00  0.00    +0.000 C 
ATOM     15  C   UNL     1      -1.712  16.244   1.845  0.00  0.00    +0.000 C 
ATOM     16  C   UNL     1      -6.172  20.420   3.329  0.00  0.00    +0.000 C 
ATOM     17  C   UNL     1      -3.062  14.491   1.265  0.00  0.00    +0.000 C 
ATOM     18  C   UNL     1      -6.580  20.349   0.854  0.00  0.00    +0.000 C 
ATOM     19  C   UNL     1      -3.187  16.713   6.333  0.00  0.00    +0.000 C 
ENDROOT
BRANCH   6  20
ATOM     20  O   UNL     1      -5.946  17.543  -0.096  0.00  0.00    +0.000 OA
BRANCH  20  22
ATOM     21  O   UNL     1      -7.377  15.859   0.548  0.00  0.00    +0.000 OA
ATOM     22  C   UNL     1      -6.628  16.361  -0.286  0.00  0.00    +0.000 C 
BRANCH  22  23
ATOM     23  C   UNL     1      -6.322  15.805  -1.654  0.00  0.00    +0.000 C 
ATOM     24  C   UNL     1      -6.094  16.681  -2.875  0.00  0.00    +0.000 C 
ATOM     25  C   UNL     1      -6.169  14.491  -1.865  0.00  0.00    +0.000 C 
ENDBRANCH  22  23
ENDBRANCH  20  22
ENDBRANCH   6  20
TORSDOF 3
ENDMDL
