MODEL 1
REMARK VINA RESULT:      -5.4      0.000      0.000
REMARK  Name = 641785_Cardamonin.pdbqt.pdb
REMARK  6 active torsions:
REMARK  status: ('A' for Active; 'I' for Inactive)
REMARK    1  A    between atoms: C_1  and  C_14
REMARK    2  A    between atoms: C_2  and  O_7
REMARK    3  A    between atoms: C_3  and  O_9
REMARK    4  A    between atoms: C_6  and  O_11
REMARK    5  A    between atoms: C_14  and  C_15
REMARK    6  A    between atoms: C_16  and  C_17
REMARK                            x       y       z     vdW  Elec       q    Type
REMARK                         _______ _______ _______ _____ _____    ______ ____
ROOT
ATOM      1  C   UNL     1      -1.774  16.392   5.310  0.00  0.00    +0.000 A 
ATOM      2  C   UNL     1      -2.385  15.344   4.595  0.00  0.00    +0.000 A 
ATOM      3  C   UNL     1      -0.370  16.518   5.265  0.00  0.00    +0.000 A 
ATOM      4  C   UNL     1      -1.582  14.443   3.880  0.00  0.00    +0.000 A 
ATOM      5  C   UNL     1       0.413  15.607   4.557  0.00  0.00    +0.000 A 
ATOM      6  C   UNL     1      -0.199  14.570   3.874  0.00  0.00    +0.000 A 
ENDROOT
BRANCH   2   7
ATOM      7  O   UNL     1      -3.758  15.276   4.552  0.00  0.00    +0.000 OA
ATOM      8  C   UNL     1      -4.354  15.657   3.343  0.00  0.00    +0.000 C 
ENDBRANCH   2   7
BRANCH   3   9
ATOM      9  O   UNL     1       0.322  17.519   5.898  0.00  0.00    +0.000 OA
ATOM     10  H   UNL     1       1.257  17.518   5.595  0.00  0.00    +0.000 HD
ENDBRANCH   3   9
BRANCH   6  11
ATOM     11  O   UNL     1       0.579  13.687   3.188  0.00  0.00    +0.000 OA
ATOM     12  H   UNL     1       0.504  13.875   2.235  0.00  0.00    +0.000 HD
ENDBRANCH   6  11
BRANCH   1  14
ATOM     13  O   UNL     1      -2.603  18.552   5.751  0.00  0.00    +0.000 OA
ATOM     14  C   UNL     1      -2.531  17.384   6.116  0.00  0.00    +0.000 C 
BRANCH  14  15
ATOM     15  C   UNL     1      -3.127  17.005   7.373  0.00  0.00    +0.000 C 
ATOM     16  C   UNL     1      -3.638  16.704   8.419  0.00  0.00    +0.000 C 
BRANCH  16  17
ATOM     17  C   UNL     1      -4.237  16.342   9.662  0.00  0.00    +0.000 A 
ATOM     18  C   UNL     1      -3.580  15.462  10.520  0.00  0.00    +0.000 A 
ATOM     19  C   UNL     1      -5.478  16.867  10.014  0.00  0.00    +0.000 A 
ATOM     20  C   UNL     1      -4.165  15.107  11.733  0.00  0.00    +0.000 A 
ATOM     21  C   UNL     1      -6.063  16.511  11.228  0.00  0.00    +0.000 A 
ATOM     22  C   UNL     1      -5.407  15.632  12.085  0.00  0.00    +0.000 A 
ENDBRANCH  16  17
ENDBRANCH  14  15
ENDBRANCH   1  14
TORSDOF 6
ENDMDL
MODEL 2
REMARK VINA RESULT:      -5.3     15.866     18.245
REMARK  Name = 641785_Cardamonin.pdbqt.pdb
REMARK  6 active torsions:
REMARK  status: ('A' for Active; 'I' for Inactive)
REMARK    1  A    between atoms: C_1  and  C_14
REMARK    2  A    between atoms: C_2  and  O_7
REMARK    3  A    between atoms: C_3  and  O_9
REMARK    4  A    between atoms: C_6  and  O_11
REMARK    5  A    between atoms: C_14  and  C_15
REMARK    6  A    between atoms: C_16  and  C_17
REMARK                            x       y       z     vdW  Elec       q    Type
REMARK                         _______ _______ _______ _____ _____    ______ ____
ROOT
ATOM      1  C   UNL     1     -15.570   8.118  -1.589  0.00  0.00    +0.000 A 
ATOM      2  C   UNL     1     -15.017   8.947  -2.585  0.00  0.00    +0.000 A 
ATOM      3  C   UNL     1     -15.892   8.682  -0.338  0.00  0.00    +0.000 A 
ATOM      4  C   UNL     1     -14.778  10.299  -2.297  0.00  0.00    +0.000 A 
ATOM      5  C   UNL     1     -15.638  10.026  -0.065  0.00  0.00    +0.000 A 
ATOM      6  C   UNL     1     -15.076  10.825  -1.047  0.00  0.00    +0.000 A 
ENDROOT
BRANCH   2   7
ATOM      7  O   UNL     1     -14.797   8.427  -3.839  0.00  0.00    +0.000 OA
ATOM      8  C   UNL     1     -14.608   9.360  -4.866  0.00  0.00    +0.000 C 
ENDBRANCH   2   7
BRANCH   3   9
ATOM      9  O   UNL     1     -16.462   7.973   0.689  0.00  0.00    +0.000 OA
ATOM     10  H   UNL     1     -15.856   7.254   0.972  0.00  0.00    +0.000 HD
ENDBRANCH   3   9
BRANCH   6  11
ATOM     11  O   UNL     1     -14.833  12.135  -0.766  0.00  0.00    +0.000 OA
ATOM     12  H   UNL     1     -14.914  12.271   0.195  0.00  0.00    +0.000 HD
ENDBRANCH   6  11
BRANCH   1  14
ATOM     13  O   UNL     1     -16.983   6.237  -1.697  0.00  0.00    +0.000 OA
ATOM     14  C   UNL     1     -15.840   6.671  -1.785  0.00  0.00    +0.000 C 
BRANCH  14  15
ATOM     15  C   UNL     1     -14.756   5.746  -2.006  0.00  0.00    +0.000 C 
ATOM     16  C   UNL     1     -13.840   4.989  -2.191  0.00  0.00    +0.000 C 
BRANCH  16  17
ATOM     17  C   UNL     1     -12.758   4.087  -2.412  0.00  0.00    +0.000 A 
ATOM     18  C   UNL     1     -11.830   4.348  -3.419  0.00  0.00    +0.000 A 
ATOM     19  C   UNL     1     -12.631   2.946  -1.623  0.00  0.00    +0.000 A 
ATOM     20  C   UNL     1     -10.774   3.466  -3.636  0.00  0.00    +0.000 A 
ATOM     21  C   UNL     1     -11.574   2.065  -1.841  0.00  0.00    +0.000 A 
ATOM     22  C   UNL     1     -10.647   2.325  -2.847  0.00  0.00    +0.000 A 
ENDBRANCH  16  17
ENDBRANCH  14  15
ENDBRANCH   1  14
TORSDOF 6
ENDMDL
MODEL 3
REMARK VINA RESULT:      -5.1      3.145      6.027
REMARK  Name = 641785_Cardamonin.pdbqt.pdb
REMARK  6 active torsions:
REMARK  status: ('A' for Active; 'I' for Inactive)
REMARK    1  A    between atoms: C_1  and  C_14
REMARK    2  A    between atoms: C_2  and  O_7
REMARK    3  A    between atoms: C_3  and  O_9
REMARK    4  A    between atoms: C_6  and  O_11
REMARK    5  A    between atoms: C_14  and  C_15
REMARK    6  A    between atoms: C_16  and  C_17
REMARK                            x       y       z     vdW  Elec       q    Type
REMARK                         _______ _______ _______ _____ _____    ______ ____
ROOT
ATOM      1  C   UNL     1      -4.864  16.047   1.442  0.00  0.00    +0.000 A 
ATOM      2  C   UNL     1      -4.818  17.424   1.149  0.00  0.00    +0.000 A 
ATOM      3  C   UNL     1      -5.998  15.307   1.049  0.00  0.00    +0.000 A 
ATOM      4  C   UNL     1      -5.906  18.024   0.500  0.00  0.00    +0.000 A 
ATOM      5  C   UNL     1      -7.076  15.922   0.414  0.00  0.00    +0.000 A 
ATOM      6  C   UNL     1      -7.025  17.280   0.148  0.00  0.00    +0.000 A 
ENDROOT
BRANCH   2   7
ATOM      7  O   UNL     1      -3.672  18.129   1.438  0.00  0.00    +0.000 OA
ATOM      8  C   UNL     1      -3.847  19.312   2.167  0.00  0.00    +0.000 C 
ENDBRANCH   2   7
BRANCH   3   9
ATOM      9  O   UNL     1      -6.132  13.957   1.257  0.00  0.00    +0.000 OA
ATOM     10  H   UNL     1      -6.962  13.780   1.753  0.00  0.00    +0.000 HD
ENDBRANCH   3   9
BRANCH   6  11
ATOM     11  O   UNL     1      -8.086  17.867  -0.472  0.00  0.00    +0.000 OA
ATOM     12  H   UNL     1      -7.804  18.179  -1.350  0.00  0.00    +0.000 HD
ENDBRANCH   6  11
BRANCH   1  14
ATOM     13  O   UNL     1      -3.268  14.326   1.641  0.00  0.00    +0.000 OA
ATOM     14  C   UNL     1      -3.776  15.322   2.146  0.00  0.00    +0.000 C 
BRANCH  14  15
ATOM     15  C   UNL     1      -3.352  15.732   3.462  0.00  0.00    +0.000 C 
ATOM     16  C   UNL     1      -3.008  16.091   4.557  0.00  0.00    +0.000 C 
BRANCH  16  17
ATOM     17  C   UNL     1      -2.595  16.511   5.855  0.00  0.00    +0.000 A 
ATOM     18  C   UNL     1      -1.261  16.846   6.085  0.00  0.00    +0.000 A 
ATOM     19  C   UNL     1      -3.523  16.585   6.891  0.00  0.00    +0.000 A 
ATOM     20  C   UNL     1      -0.856  17.255   7.354  0.00  0.00    +0.000 A 
ATOM     21  C   UNL     1      -3.117  16.994   8.160  0.00  0.00    +0.000 A 
ATOM     22  C   UNL     1      -1.785  17.328   8.390  0.00  0.00    +0.000 A 
ENDBRANCH  16  17
ENDBRANCH  14  15
ENDBRANCH   1  14
TORSDOF 6
ENDMDL
MODEL 4
REMARK VINA RESULT:      -5.0     10.876     12.795
REMARK  Name = 641785_Cardamonin.pdbqt.pdb
REMARK  6 active torsions:
REMARK  status: ('A' for Active; 'I' for Inactive)
REMARK    1  A    between atoms: C_1  and  C_14
REMARK    2  A    between atoms: C_2  and  O_7
REMARK    3  A    between atoms: C_3  and  O_9
REMARK    4  A    between atoms: C_6  and  O_11
REMARK    5  A    between atoms: C_14  and  C_15
REMARK    6  A    between atoms: C_16  and  C_17
REMARK                            x       y       z     vdW  Elec       q    Type
REMARK                         _______ _______ _______ _____ _____    ______ ____
ROOT
ATOM      1  C   UNL     1      -1.075   6.728   2.023  0.00  0.00    +0.000 A 
ATOM      2  C   UNL     1      -0.277   6.521   3.164  0.00  0.00    +0.000 A 
ATOM      3  C   UNL     1      -0.495   7.327   0.887  0.00  0.00    +0.000 A 
ATOM      4  C   UNL     1       1.062   6.938   3.149  0.00  0.00    +0.000 A 
ATOM      5  C   UNL     1       0.835   7.745   0.892  0.00  0.00    +0.000 A 
ATOM      6  C   UNL     1       1.605   7.553   2.028  0.00  0.00    +0.000 A 
ENDROOT
BRANCH   2   7
ATOM      7  O   UNL     1      -0.808   5.845   4.238  0.00  0.00    +0.000 OA
ATOM      8  C   UNL     1      -0.197   4.628   4.561  0.00  0.00    +0.000 C 
ENDBRANCH   2   7
BRANCH   3   9
ATOM      9  O   UNL     1      -1.173   7.545  -0.286  0.00  0.00    +0.000 OA
ATOM     10  H   UNL     1      -0.724   7.071  -1.020  0.00  0.00    +0.000 HD
ENDBRANCH   3   9
BRANCH   6  11
ATOM     11  O   UNL     1       2.902   7.968   2.019  0.00  0.00    +0.000 OA
ATOM     12  H   UNL     1       3.013   8.639   1.322  0.00  0.00    +0.000 HD
ENDBRANCH   6  11
BRANCH   1  14
ATOM     13  O   UNL     1      -3.364   7.190   1.709  0.00  0.00    +0.000 OA
ATOM     14  C   UNL     1      -2.508   6.344   1.946  0.00  0.00    +0.000 C 
BRANCH  14  15
ATOM     15  C   UNL     1      -2.921   4.990   2.222  0.00  0.00    +0.000 C 
ATOM     16  C   UNL     1      -3.250   3.859   2.463  0.00  0.00    +0.000 C 
BRANCH  16  17
ATOM     17  C   UNL     1      -3.644   2.518   2.744  0.00  0.00    +0.000 A 
ATOM     18  C   UNL     1      -4.995   2.175   2.731  0.00  0.00    +0.000 A 
ATOM     19  C   UNL     1      -2.681   1.555   3.033  0.00  0.00    +0.000 A 
ATOM     20  C   UNL     1      -5.382   0.865   3.007  0.00  0.00    +0.000 A 
ATOM     21  C   UNL     1      -3.068   0.245   3.309  0.00  0.00    +0.000 A 
ATOM     22  C   UNL     1      -4.418  -0.098   3.296  0.00  0.00    +0.000 A 
ENDBRANCH  16  17
ENDBRANCH  14  15
ENDBRANCH   1  14
TORSDOF 6
ENDMDL
MODEL 5
REMARK VINA RESULT:      -4.9      2.800      7.271
REMARK  Name = 641785_Cardamonin.pdbqt.pdb
REMARK  6 active torsions:
REMARK  status: ('A' for Active; 'I' for Inactive)
REMARK    1  A    between atoms: C_1  and  C_14
REMARK    2  A    between atoms: C_2  and  O_7
REMARK    3  A    between atoms: C_3  and  O_9
REMARK    4  A    between atoms: C_6  and  O_11
REMARK    5  A    between atoms: C_14  and  C_15
REMARK    6  A    between atoms: C_16  and  C_17
REMARK                            x       y       z     vdW  Elec       q    Type
REMARK                         _______ _______ _______ _____ _____    ______ ____
ROOT
ATOM      1  C   UNL     1      -3.795  16.651   9.906  0.00  0.00    +0.000 A 
ATOM      2  C   UNL     1      -3.198  15.785  10.842  0.00  0.00    +0.000 A 
ATOM      3  C   UNL     1      -5.181  16.893   9.991  0.00  0.00    +0.000 A 
ATOM      4  C   UNL     1      -4.000  15.168  11.814  0.00  0.00    +0.000 A 
ATOM      5  C   UNL     1      -5.965  16.263  10.957  0.00  0.00    +0.000 A 
ATOM      6  C   UNL     1      -5.369  15.399  11.860  0.00  0.00    +0.000 A 
ENDROOT
BRANCH   2   7
ATOM      7  O   UNL     1      -1.832  15.625  10.829  0.00  0.00    +0.000 OA
ATOM      8  C   UNL     1      -1.321  14.627  11.668  0.00  0.00    +0.000 C 
ENDBRANCH   2   7
BRANCH   3   9
ATOM      9  O   UNL     1      -5.856  17.742   9.151  0.00  0.00    +0.000 OA
ATOM     10  H   UNL     1      -5.275  18.496   8.906  0.00  0.00    +0.000 HD
ENDBRANCH   3   9
BRANCH   6  11
ATOM     11  O   UNL     1      -6.147  14.790  12.797  0.00  0.00    +0.000 OA
ATOM     12  H   UNL     1      -5.907  15.133  13.677  0.00  0.00    +0.000 HD
ENDBRANCH   6  11
BRANCH   1  14
ATOM     13  O   UNL     1      -2.409  18.359   9.064  0.00  0.00    +0.000 OA
ATOM     14  C   UNL     1      -3.039  17.335   8.826  0.00  0.00    +0.000 C 
BRANCH  14  15
ATOM     15  C   UNL     1      -3.097  16.848   7.469  0.00  0.00    +0.000 C 
ATOM     16  C   UNL     1      -3.127  16.449   6.336  0.00  0.00    +0.000 C 
BRANCH  16  17
ATOM     17  C   UNL     1      -3.170  15.974   4.992  0.00  0.00    +0.000 A 
ATOM     18  C   UNL     1      -4.319  16.162   4.226  0.00  0.00    +0.000 A 
ATOM     19  C   UNL     1      -2.066  15.323   4.448  0.00  0.00    +0.000 A 
ATOM     20  C   UNL     1      -4.363  15.697   2.913  0.00  0.00    +0.000 A 
ATOM     21  C   UNL     1      -2.110  14.859   3.135  0.00  0.00    +0.000 A 
ATOM     22  C   UNL     1      -3.258  15.046   2.369  0.00  0.00    +0.000 A 
ENDBRANCH  16  17
ENDBRANCH  14  15
ENDBRANCH   1  14
TORSDOF 6
ENDMDL
MODEL 6
REMARK VINA RESULT:      -4.6     23.539     25.956
REMARK  Name = 641785_Cardamonin.pdbqt.pdb
REMARK  6 active torsions:
REMARK  status: ('A' for Active; 'I' for Inactive)
REMARK    1  A    between atoms: C_1  and  C_14
REMARK    2  A    between atoms: C_2  and  O_7
REMARK    3  A    between atoms: C_3  and  O_9
REMARK    4  A    between atoms: C_6  and  O_11
REMARK    5  A    between atoms: C_14  and  C_15
REMARK    6  A    between atoms: C_16  and  C_17
REMARK                            x       y       z     vdW  Elec       q    Type
REMARK                         _______ _______ _______ _____ _____    ______ ____
ROOT
ATOM      1  C   UNL     1     -25.263   7.484  15.582  0.00  0.00    +0.000 A 
ATOM      2  C   UNL     1     -26.362   7.892  16.362  0.00  0.00    +0.000 A 
ATOM      3  C   UNL     1     -25.488   6.623  14.489  0.00  0.00    +0.000 A 
ATOM      4  C   UNL     1     -27.642   7.413  16.046  0.00  0.00    +0.000 A 
ATOM      5  C   UNL     1     -26.766   6.148  14.196  0.00  0.00    +0.000 A 
ATOM      6  C   UNL     1     -27.835   6.542  14.982  0.00  0.00    +0.000 A 
ENDROOT
BRANCH   2   7
ATOM      7  O   UNL     1     -26.164   8.812  17.365  0.00  0.00    +0.000 OA
ATOM      8  C   UNL     1     -26.468   8.382  18.662  0.00  0.00    +0.000 C 
ENDBRANCH   2   7
BRANCH   3   9
ATOM      9  O   UNL     1     -24.495   6.190  13.647  0.00  0.00    +0.000 OA
ATOM     10  H   UNL     1     -24.492   6.735  12.830  0.00  0.00    +0.000 HD
ENDBRANCH   3   9
BRANCH   6  11
ATOM     11  O   UNL     1     -29.077   6.069  14.685  0.00  0.00    +0.000 OA
ATOM     12  H   UNL     1     -29.669   6.244  15.438  0.00  0.00    +0.000 HD
ENDBRANCH   6  11
BRANCH   1  14
ATOM     13  O   UNL     1     -23.385   8.862  15.234  0.00  0.00    +0.000 OA
ATOM     14  C   UNL     1     -23.866   7.915  15.846  0.00  0.00    +0.000 C 
BRANCH  14  15
ATOM     15  C   UNL     1     -23.034   7.182  16.768  0.00  0.00    +0.000 C 
ATOM     16  C   UNL     1     -22.349   6.555  17.531  0.00  0.00    +0.000 C 
BRANCH  16  17
ATOM     17  C   UNL     1     -21.535   5.817  18.440  0.00  0.00    +0.000 A 
ATOM     18  C   UNL     1     -20.157   6.027  18.465  0.00  0.00    +0.000 A 
ATOM     19  C   UNL     1     -22.117   4.887  19.299  0.00  0.00    +0.000 A 
ATOM     20  C   UNL     1     -19.361   5.305  19.351  0.00  0.00    +0.000 A 
ATOM     21  C   UNL     1     -21.319   4.166  20.185  0.00  0.00    +0.000 A 
ATOM     22  C   UNL     1     -19.942   4.376  20.210  0.00  0.00    +0.000 A 
ENDBRANCH  16  17
ENDBRANCH  14  15
ENDBRANCH   1  14
TORSDOF 6
ENDMDL
MODEL 7
REMARK VINA RESULT:      -4.6     16.053     19.607
REMARK  Name = 641785_Cardamonin.pdbqt.pdb
REMARK  6 active torsions:
REMARK  status: ('A' for Active; 'I' for Inactive)
REMARK    1  A    between atoms: C_1  and  C_14
REMARK    2  A    between atoms: C_2  and  O_7
REMARK    3  A    between atoms: C_3  and  O_9
REMARK    4  A    between atoms: C_6  and  O_11
REMARK    5  A    between atoms: C_14  and  C_15
REMARK    6  A    between atoms: C_16  and  C_17
REMARK                            x       y       z     vdW  Elec       q    Type
REMARK                         _______ _______ _______ _____ _____    ______ ____
ROOT
ATOM      1  C   UNL     1     -10.496   4.978  18.653  0.00  0.00    +0.000 A 
ATOM      2  C   UNL     1      -9.727   5.848  19.450  0.00  0.00    +0.000 A 
ATOM      3  C   UNL     1     -10.520   5.179  17.258  0.00  0.00    +0.000 A 
ATOM      4  C   UNL     1      -9.029   6.901  18.840  0.00  0.00    +0.000 A 
ATOM      5  C   UNL     1      -9.828   6.237  16.669  0.00  0.00    +0.000 A 
ATOM      6  C   UNL     1      -9.092   7.096  17.467  0.00  0.00    +0.000 A 
ENDROOT
BRANCH   2   7
ATOM      7  O   UNL     1      -9.617   5.597  20.799  0.00  0.00    +0.000 OA
ATOM      8  C   UNL     1     -10.003   6.638  21.651  0.00  0.00    +0.000 C 
ENDBRANCH   2   7
BRANCH   3   9
ATOM      9  O   UNL     1     -11.209   4.372  16.387  0.00  0.00    +0.000 OA
ATOM     10  H   UNL     1     -10.905   4.542  15.468  0.00  0.00    +0.000 HD
ENDBRANCH   3   9
BRANCH   6  11
ATOM     11  O   UNL     1      -8.422   8.126  16.878  0.00  0.00    +0.000 OA
ATOM     12  H   UNL     1      -7.490   7.869  16.762  0.00  0.00    +0.000 HD
ENDBRANCH   6  11
BRANCH   1  14
ATOM     13  O   UNL     1     -11.032   2.696  18.875  0.00  0.00    +0.000 OA
ATOM     14  C   UNL     1     -11.288   3.849  19.203  0.00  0.00    +0.000 C 
BRANCH  14  15
ATOM     15  C   UNL     1     -12.415   4.096  20.068  0.00  0.00    +0.000 C 
ATOM     16  C   UNL     1     -13.343   4.308  20.803  0.00  0.00    +0.000 C 
BRANCH  16  17
ATOM     17  C   UNL     1     -14.447   4.556  21.671  0.00  0.00    +0.000 A 
ATOM     18  C   UNL     1     -15.745   4.546  21.162  0.00  0.00    +0.000 A 
ATOM     19  C   UNL     1     -14.227   4.809  23.022  0.00  0.00    +0.000 A 
ATOM     20  C   UNL     1     -16.824   4.789  22.009  0.00  0.00    +0.000 A 
ATOM     21  C   UNL     1     -15.307   5.052  23.868  0.00  0.00    +0.000 A 
ATOM     22  C   UNL     1     -16.604   5.043  23.361  0.00  0.00    +0.000 A 
ENDBRANCH  16  17
ENDBRANCH  14  15
ENDBRANCH   1  14
TORSDOF 6
ENDMDL
MODEL 8
REMARK VINA RESULT:      -4.5     17.970     20.145
REMARK  Name = 641785_Cardamonin.pdbqt.pdb
REMARK  6 active torsions:
REMARK  status: ('A' for Active; 'I' for Inactive)
REMARK    1  A    between atoms: C_1  and  C_14
REMARK    2  A    between atoms: C_2  and  O_7
REMARK    3  A    between atoms: C_3  and  O_9
REMARK    4  A    between atoms: C_6  and  O_11
REMARK    5  A    between atoms: C_14  and  C_15
REMARK    6  A    between atoms: C_16  and  C_17
REMARK                            x       y       z     vdW  Elec       q    Type
REMARK                         _______ _______ _______ _____ _____    ______ ____
ROOT
ATOM      1  C   UNL     1     -14.007  18.874  22.622  0.00  0.00    +0.000 A 
ATOM      2  C   UNL     1     -14.903  18.602  23.674  0.00  0.00    +0.000 A 
ATOM      3  C   UNL     1     -14.528  19.190  21.351  0.00  0.00    +0.000 A 
ATOM      4  C   UNL     1     -16.283  18.629  23.423  0.00  0.00    +0.000 A 
ATOM      5  C   UNL     1     -15.902  19.201  21.116  0.00  0.00    +0.000 A 
ATOM      6  C   UNL     1     -16.772  18.914  22.155  0.00  0.00    +0.000 A 
ENDROOT
BRANCH   2   7
ATOM      7  O   UNL     1     -14.405  18.395  24.939  0.00  0.00    +0.000 OA
ATOM      8  C   UNL     1     -14.437  19.498  25.801  0.00  0.00    +0.000 C 
ENDBRANCH   2   7
BRANCH   3   9
ATOM      9  O   UNL     1     -13.746  19.502  20.267  0.00  0.00    +0.000 OA
ATOM     10  H   UNL     1     -14.256  20.062  19.641  0.00  0.00    +0.000 HD
ENDBRANCH   3   9
BRANCH   6  11
ATOM     11  O   UNL     1     -18.112  18.927  21.911  0.00  0.00    +0.000 OA
ATOM     12  H   UNL     1     -18.258  18.853  20.951  0.00  0.00    +0.000 HD
ENDBRANCH   6  11
BRANCH   1  14
ATOM     13  O   UNL     1     -11.871  19.864  22.579  0.00  0.00    +0.000 OA
ATOM     14  C   UNL     1     -12.530  18.850  22.778  0.00  0.00    +0.000 C 
BRANCH  14  15
ATOM     15  C   UNL     1     -11.846  17.619  23.090  0.00  0.00    +0.000 C 
ATOM     16  C   UNL     1     -11.260  16.599  23.340  0.00  0.00    +0.000 C 
BRANCH  16  17
ATOM     17  C   UNL     1     -10.572  15.387  23.638  0.00  0.00    +0.000 A 
ATOM     18  C   UNL     1     -10.164  15.124  24.945  0.00  0.00    +0.000 A 
ATOM     19  C   UNL     1     -10.307  14.469  22.625  0.00  0.00    +0.000 A 
ATOM     20  C   UNL     1      -9.490  13.940  25.237  0.00  0.00    +0.000 A 
ATOM     21  C   UNL     1      -9.633  13.286  22.918  0.00  0.00    +0.000 A 
ATOM     22  C   UNL     1      -9.225  13.023  24.223  0.00  0.00    +0.000 A 
ENDBRANCH  16  17
ENDBRANCH  14  15
ENDBRANCH   1  14
TORSDOF 6
ENDMDL
MODEL 9
REMARK VINA RESULT:      -4.5      6.022      8.824
REMARK  Name = 641785_Cardamonin.pdbqt.pdb
REMARK  6 active torsions:
REMARK  status: ('A' for Active; 'I' for Inactive)
REMARK    1  A    between atoms: C_1  and  C_14
REMARK    2  A    between atoms: C_2  and  O_7
REMARK    3  A    between atoms: C_3  and  O_9
REMARK    4  A    between atoms: C_6  and  O_11
REMARK    5  A    between atoms: C_14  and  C_15
REMARK    6  A    between atoms: C_16  and  C_17
REMARK                            x       y       z     vdW  Elec       q    Type
REMARK                         _______ _______ _______ _____ _____    ______ ____
ROOT
ATOM      1  C   UNL     1      -0.559  12.288  13.894  0.00  0.00    +0.000 A 
ATOM      2  C   UNL     1      -1.277  12.523  15.082  0.00  0.00    +0.000 A 
ATOM      3  C   UNL     1      -0.011  11.008  13.673  0.00  0.00    +0.000 A 
ATOM      4  C   UNL     1      -1.405  11.489  16.021  0.00  0.00    +0.000 A 
ATOM      5  C   UNL     1      -0.139   9.995  14.622  0.00  0.00    +0.000 A 
ATOM      6  C   UNL     1      -0.831  10.245  15.795  0.00  0.00    +0.000 A 
ENDROOT
BRANCH   2   7
ATOM      7  O   UNL     1      -1.900  13.737  15.257  0.00  0.00    +0.000 OA
ATOM      8  C   UNL     1      -3.279  13.691  15.495  0.00  0.00    +0.000 C 
ENDBRANCH   2   7
BRANCH   3   9
ATOM      9  O   UNL     1       0.678  10.663  12.537  0.00  0.00    +0.000 OA
ATOM     10  H   UNL     1       1.628  10.889  12.645  0.00  0.00    +0.000 HD
ENDBRANCH   3   9
BRANCH   6  11
ATOM     11  O   UNL     1      -0.948   9.246  16.714  0.00  0.00    +0.000 OA
ATOM     12  H   UNL     1      -1.178   9.637  17.576  0.00  0.00    +0.000 HD
ENDBRANCH   6  11
BRANCH   1  14
ATOM     13  O   UNL     1       0.790  13.635  12.510  0.00  0.00    +0.000 OA
ATOM     14  C   UNL     1      -0.346  13.321  12.848  0.00  0.00    +0.000 C 
BRANCH  14  15
ATOM     15  C   UNL     1      -1.467  14.021  12.269  0.00  0.00    +0.000 C 
ATOM     16  C   UNL     1      -2.406  14.611  11.805  0.00  0.00    +0.000 C 
BRANCH  16  17
ATOM     17  C   UNL     1      -3.518  15.308  11.248  0.00  0.00    +0.000 A 
ATOM     18  C   UNL     1      -3.352  16.072  10.094  0.00  0.00    +0.000 A 
ATOM     19  C   UNL     1      -4.767  15.226  11.858  0.00  0.00    +0.000 A 
ATOM     20  C   UNL     1      -4.437  16.754   9.550  0.00  0.00    +0.000 A 
ATOM     21  C   UNL     1      -5.853  15.908  11.313  0.00  0.00    +0.000 A 
ATOM     22  C   UNL     1      -5.687  16.672  10.160  0.00  0.00    +0.000 A 
ENDBRANCH  16  17
ENDBRANCH  14  15
ENDBRANCH   1  14
TORSDOF 6
ENDMDL
