MODEL 1
REMARK VINA RESULT:      -5.2      0.000      0.000
REMARK  Name = 6440856_Goniothalamin.pdbqt.pdb
REMARK  2 active torsions:
REMARK  status: ('A' for Active; 'I' for Inactive)
REMARK    1  A    between atoms: C_1  and  C_5
REMARK    2  A    between atoms: C_2  and  C_10
REMARK                            x       y       z     vdW  Elec       q    Type
REMARK                         _______ _______ _______ _____ _____    ______ ____
ROOT
ATOM      1  C   UNL     1     -12.177   5.520  20.264  0.00  0.00    +0.000 C 
ATOM      2  C   UNL     1     -11.565   5.670  19.241  0.00  0.00    +0.000 C 
ENDROOT
BRANCH   1   5
ATOM      3  O   UNL     1     -14.190   4.716  21.413  0.00  0.00    +0.000 OA
ATOM      4  O   UNL     1     -15.995   4.031  22.697  0.00  0.00    +0.000 OA
ATOM      5  C   UNL     1     -12.897   5.348  21.468  0.00  0.00    +0.000 A 
ATOM      6  C   UNL     1     -12.467   5.743  22.764  0.00  0.00    +0.000 A 
ATOM      7  C   UNL     1     -13.171   5.596  24.093  0.00  0.00    +0.000 A 
ATOM      8  C   UNL     1     -14.193   5.058  23.777  0.00  0.00    +0.000 A 
ATOM      9  C   UNL     1     -14.893   4.551  22.612  0.00  0.00    +0.000 A 
ENDBRANCH   1   5
BRANCH   2  10
ATOM     10  C   UNL     1     -10.840   5.849  18.026  0.00  0.00    +0.000 A 
ATOM     11  C   UNL     1     -10.858   4.853  17.053  0.00  0.00    +0.000 A 
ATOM     12  C   UNL     1     -10.113   7.019  17.815  0.00  0.00    +0.000 A 
ATOM     13  C   UNL     1     -10.148   5.027  15.867  0.00  0.00    +0.000 A 
ATOM     14  C   UNL     1      -9.404   7.193  16.629  0.00  0.00    +0.000 A 
ATOM     15  C   UNL     1      -9.423   6.197  15.655  0.00  0.00    +0.000 A 
ENDBRANCH   2  10
TORSDOF 2
ENDMDL
MODEL 2
REMARK VINA RESULT:      -5.1     20.097     22.543
REMARK  Name = 6440856_Goniothalamin.pdbqt.pdb
REMARK  2 active torsions:
REMARK  status: ('A' for Active; 'I' for Inactive)
REMARK    1  A    between atoms: C_1  and  C_5
REMARK    2  A    between atoms: C_2  and  C_10
REMARK                            x       y       z     vdW  Elec       q    Type
REMARK                         _______ _______ _______ _____ _____    ______ ____
ROOT
ATOM      1  C   UNL     1       3.243   7.266   4.266  0.00  0.00    +0.000 C 
ATOM      2  C   UNL     1       2.130   6.934   3.963  0.00  0.00    +0.000 C 
ENDROOT
BRANCH   1   5
ATOM      3  O   UNL     1       4.917   7.676   6.012  0.00  0.00    +0.000 OA
ATOM      4  O   UNL     1       6.646   8.122   7.492  0.00  0.00    +0.000 OA
ATOM      5  C   UNL     1       4.555   7.657   4.619  0.00  0.00    +0.000 A 
ATOM      6  C   UNL     1       5.584   8.045   3.717  0.00  0.00    +0.000 A 
ATOM      7  C   UNL     1       7.002   8.474   4.010  0.00  0.00    +0.000 A 
ATOM      8  C   UNL     1       7.043   8.405   5.205  0.00  0.00    +0.000 A 
ATOM      9  C   UNL     1       6.219   8.065   6.349  0.00  0.00    +0.000 A 
ENDBRANCH   1   5
BRANCH   2  10
ATOM     10  C   UNL     1       0.807   6.540   3.603  0.00  0.00    +0.000 A 
ATOM     11  C   UNL     1       0.259   6.964   2.395  0.00  0.00    +0.000 A 
ATOM     12  C   UNL     1       0.065   5.730   4.461  0.00  0.00    +0.000 A 
ATOM     13  C   UNL     1      -1.033   6.579   2.044  0.00  0.00    +0.000 A 
ATOM     14  C   UNL     1      -1.227   5.345   4.109  0.00  0.00    +0.000 A 
ATOM     15  C   UNL     1      -1.775   5.770   2.901  0.00  0.00    +0.000 A 
ENDBRANCH   2  10
TORSDOF 2
ENDMDL
MODEL 3
REMARK VINA RESULT:      -4.8     19.905     22.166
REMARK  Name = 6440856_Goniothalamin.pdbqt.pdb
REMARK  2 active torsions:
REMARK  status: ('A' for Active; 'I' for Inactive)
REMARK    1  A    between atoms: C_1  and  C_5
REMARK    2  A    between atoms: C_2  and  C_10
REMARK                            x       y       z     vdW  Elec       q    Type
REMARK                         _______ _______ _______ _____ _____    ______ ____
ROOT
ATOM      1  C   UNL     1       2.289   7.001   4.060  0.00  0.00    +0.000 C 
ATOM      2  C   UNL     1       3.401   7.350   4.349  0.00  0.00    +0.000 C 
ENDROOT
BRANCH   1   5
ATOM      3  O   UNL     1       0.386   7.104   2.515  0.00  0.00    +0.000 OA
ATOM      4  O   UNL     1      -1.523   7.054   1.199  0.00  0.00    +0.000 OA
ATOM      5  C   UNL     1       0.979   6.590   3.722  0.00  0.00    +0.000 A 
ATOM      6  C   UNL     1       0.163   5.698   4.470  0.00  0.00    +0.000 A 
ATOM      7  C   UNL     1      -1.238   5.211   4.181  0.00  0.00    +0.000 A 
ATOM      8  C   UNL     1      -1.491   5.772   3.153  0.00  0.00    +0.000 A 
ATOM      9  C   UNL     1      -0.912   6.690   2.192  0.00  0.00    +0.000 A 
ENDBRANCH   1   5
BRANCH   2  10
ATOM     10  C   UNL     1       4.721   7.766   4.693  0.00  0.00    +0.000 A 
ATOM     11  C   UNL     1       5.663   7.988   3.692  0.00  0.00    +0.000 A 
ATOM     12  C   UNL     1       5.066   7.951   6.030  0.00  0.00    +0.000 A 
ATOM     13  C   UNL     1       6.953   8.394   4.028  0.00  0.00    +0.000 A 
ATOM     14  C   UNL     1       6.355   8.357   6.366  0.00  0.00    +0.000 A 
ATOM     15  C   UNL     1       7.298   8.579   5.365  0.00  0.00    +0.000 A 
ENDBRANCH   2  10
TORSDOF 2
ENDMDL
MODEL 4
REMARK VINA RESULT:      -4.8      9.495     11.167
REMARK  Name = 6440856_Goniothalamin.pdbqt.pdb
REMARK  2 active torsions:
REMARK  status: ('A' for Active; 'I' for Inactive)
REMARK    1  A    between atoms: C_1  and  C_5
REMARK    2  A    between atoms: C_2  and  C_10
REMARK                            x       y       z     vdW  Elec       q    Type
REMARK                         _______ _______ _______ _____ _____    ______ ____
ROOT
ATOM      1  C   UNL     1     -21.377   5.302  18.222  0.00  0.00    +0.000 C 
ATOM      2  C   UNL     1     -21.442   4.158  18.582  0.00  0.00    +0.000 C 
ENDROOT
BRANCH   1   5
ATOM      3  O   UNL     1     -22.352   7.553  18.173  0.00  0.00    +0.000 OA
ATOM      4  O   UNL     1     -23.089   9.745  17.997  0.00  0.00    +0.000 OA
ATOM      5  C   UNL     1     -21.298   6.648  17.795  0.00  0.00    +0.000 A 
ATOM      6  C   UNL     1     -20.258   7.217  17.011  0.00  0.00    +0.000 A 
ATOM      7  C   UNL     1     -20.098   8.636  16.516  0.00  0.00    +0.000 A 
ATOM      8  C   UNL     1     -21.079   9.165  16.954  0.00  0.00    +0.000 A 
ATOM      9  C   UNL     1     -22.262   8.883  17.744  0.00  0.00    +0.000 A 
ENDBRANCH   1   5
BRANCH   2  10
ATOM     10  C   UNL     1     -21.520   2.800  19.009  0.00  0.00    +0.000 A 
ATOM     11  C   UNL     1     -21.662   2.503  20.362  0.00  0.00    +0.000 A 
ATOM     12  C   UNL     1     -21.455   1.771  18.071  0.00  0.00    +0.000 A 
ATOM     13  C   UNL     1     -21.738   1.176  20.779  0.00  0.00    +0.000 A 
ATOM     14  C   UNL     1     -21.531   0.444  18.488  0.00  0.00    +0.000 A 
ATOM     15  C   UNL     1     -21.673   0.147  19.842  0.00  0.00    +0.000 A 
ENDBRANCH   2  10
TORSDOF 2
ENDMDL
MODEL 5
REMARK VINA RESULT:      -4.6     10.257     13.026
REMARK  Name = 6440856_Goniothalamin.pdbqt.pdb
REMARK  2 active torsions:
REMARK  status: ('A' for Active; 'I' for Inactive)
REMARK    1  A    between atoms: C_1  and  C_5
REMARK    2  A    between atoms: C_2  and  C_10
REMARK                            x       y       z     vdW  Elec       q    Type
REMARK                         _______ _______ _______ _____ _____    ______ ____
ROOT
ATOM      1  C   UNL     1      -5.747  14.427  13.795  0.00  0.00    +0.000 C 
ATOM      2  C   UNL     1      -5.437  14.978  12.775  0.00  0.00    +0.000 C 
ENDROOT
BRANCH   1   5
ATOM      3  O   UNL     1      -5.420  12.565  15.359  0.00  0.00    +0.000 OA
ATOM      4  O   UNL     1      -5.282  10.899  16.966  0.00  0.00    +0.000 OA
ATOM      5  C   UNL     1      -6.111  13.775  14.996  0.00  0.00    +0.000 A 
ATOM      6  C   UNL     1      -7.115  14.200  15.908  0.00  0.00    +0.000 A 
ATOM      7  C   UNL     1      -7.563  13.565  17.204  0.00  0.00    +0.000 A 
ATOM      8  C   UNL     1      -6.852  12.604  17.270  0.00  0.00    +0.000 A 
ATOM      9  C   UNL     1      -5.790  11.928  16.550  0.00  0.00    +0.000 A 
ENDBRANCH   1   5
BRANCH   2  10
ATOM     10  C   UNL     1      -5.068  15.633  11.562  0.00  0.00    +0.000 A 
ATOM     11  C   UNL     1      -5.978  16.469  10.919  0.00  0.00    +0.000 A 
ATOM     12  C   UNL     1      -3.799  15.435  11.023  0.00  0.00    +0.000 A 
ATOM     13  C   UNL     1      -5.618  17.107   9.734  0.00  0.00    +0.000 A 
ATOM     14  C   UNL     1      -3.439  16.074   9.839  0.00  0.00    +0.000 A 
ATOM     15  C   UNL     1      -4.349  16.910   9.195  0.00  0.00    +0.000 A 
ENDBRANCH   2  10
TORSDOF 2
ENDMDL
MODEL 6
REMARK VINA RESULT:      -4.5      9.686     11.404
REMARK  Name = 6440856_Goniothalamin.pdbqt.pdb
REMARK  2 active torsions:
REMARK  status: ('A' for Active; 'I' for Inactive)
REMARK    1  A    between atoms: C_1  and  C_5
REMARK    2  A    between atoms: C_2  and  C_10
REMARK                            x       y       z     vdW  Elec       q    Type
REMARK                         _______ _______ _______ _____ _____    ______ ____
ROOT
ATOM      1  C   UNL     1     -21.703   5.196  17.347  0.00  0.00    +0.000 C 
ATOM      2  C   UNL     1     -21.864   4.009  17.434  0.00  0.00    +0.000 C 
ENDROOT
BRANCH   1   5
ATOM      3  O   UNL     1     -20.293   7.078  16.647  0.00  0.00    +0.000 OA
ATOM      4  O   UNL     1     -19.129   8.997  16.065  0.00  0.00    +0.000 OA
ATOM      5  C   UNL     1     -21.512   6.593  17.241  0.00  0.00    +0.000 A 
ATOM      6  C   UNL     1     -22.422   7.597  17.671  0.00  0.00    +0.000 A 
ATOM      7  C   UNL     1     -22.295   9.100  17.594  0.00  0.00    +0.000 A 
ATOM      8  C   UNL     1     -21.224   9.236  17.076  0.00  0.00    +0.000 A 
ATOM      9  C   UNL     1     -20.116   8.463  16.547  0.00  0.00    +0.000 A 
ENDBRANCH   1   5
BRANCH   2  10
ATOM     10  C   UNL     1     -22.057   2.600  17.537  0.00  0.00    +0.000 A 
ATOM     11  C   UNL     1     -23.163   2.003  16.937  0.00  0.00    +0.000 A 
ATOM     12  C   UNL     1     -21.137   1.822  18.238  0.00  0.00    +0.000 A 
ATOM     13  C   UNL     1     -23.350   0.626  17.038  0.00  0.00    +0.000 A 
ATOM     14  C   UNL     1     -21.325   0.445  18.338  0.00  0.00    +0.000 A 
ATOM     15  C   UNL     1     -22.431  -0.152  17.738  0.00  0.00    +0.000 A 
ENDBRANCH   2  10
TORSDOF 2
ENDMDL
MODEL 7
REMARK VINA RESULT:      -4.5     19.840     22.390
REMARK  Name = 6440856_Goniothalamin.pdbqt.pdb
REMARK  2 active torsions:
REMARK  status: ('A' for Active; 'I' for Inactive)
REMARK    1  A    between atoms: C_1  and  C_5
REMARK    2  A    between atoms: C_2  and  C_10
REMARK                            x       y       z     vdW  Elec       q    Type
REMARK                         _______ _______ _______ _____ _____    ______ ____
ROOT
ATOM      1  C   UNL     1      -1.377   6.971   1.062  0.00  0.00    +0.000 C 
ATOM      2  C   UNL     1      -1.835   7.368   0.026  0.00  0.00    +0.000 C 
ENDROOT
BRANCH   1   5
ATOM      3  O   UNL     1       0.416   7.051   2.735  0.00  0.00    +0.000 OA
ATOM      4  O   UNL     1       1.993   6.963   4.433  0.00  0.00    +0.000 OA
ATOM      5  C   UNL     1      -0.834   6.500   2.280  0.00  0.00    +0.000 A 
ATOM      6  C   UNL     1      -1.410   5.514   3.127  0.00  0.00    +0.000 A 
ATOM      7  C   UNL     1      -0.898   4.960   4.436  0.00  0.00    +0.000 A 
ATOM      8  C   UNL     1       0.125   5.565   4.583  0.00  0.00    +0.000 A 
ATOM      9  C   UNL     1       0.943   6.577   3.943  0.00  0.00    +0.000 A 
ENDBRANCH   1   5
BRANCH   2  10
ATOM     10  C   UNL     1      -2.380   7.840  -1.205  0.00  0.00    +0.000 A 
ATOM     11  C   UNL     1      -2.479   9.209  -1.442  0.00  0.00    +0.000 A 
ATOM     12  C   UNL     1      -2.811   6.931  -2.168  0.00  0.00    +0.000 A 
ATOM     13  C   UNL     1      -3.012   9.669  -2.644  0.00  0.00    +0.000 A 
ATOM     14  C   UNL     1      -3.344   7.392  -3.370  0.00  0.00    +0.000 A 
ATOM     15  C   UNL     1      -3.443   8.761  -3.607  0.00  0.00    +0.000 A 
ENDBRANCH   2  10
TORSDOF 2
ENDMDL
MODEL 8
REMARK VINA RESULT:      -4.3      4.583      6.839
REMARK  Name = 6440856_Goniothalamin.pdbqt.pdb
REMARK  2 active torsions:
REMARK  status: ('A' for Active; 'I' for Inactive)
REMARK    1  A    between atoms: C_1  and  C_5
REMARK    2  A    between atoms: C_2  and  C_10
REMARK                            x       y       z     vdW  Elec       q    Type
REMARK                         _______ _______ _______ _____ _____    ______ ____
ROOT
ATOM      1  C   UNL     1      -7.952   8.103  17.164  0.00  0.00    +0.000 C 
ATOM      2  C   UNL     1      -7.055   8.880  16.980  0.00  0.00    +0.000 C 
ENDROOT
BRANCH   1   5
ATOM      3  O   UNL     1      -9.382   6.305  16.302  0.00  0.00    +0.000 OA
ATOM      4  O   UNL     1     -10.839   4.606  15.696  0.00  0.00    +0.000 OA
ATOM      5  C   UNL     1      -9.009   7.188  17.377  0.00  0.00    +0.000 A 
ATOM      6  C   UNL     1      -9.762   7.043  18.574  0.00  0.00    +0.000 A 
ATOM      7  C   UNL     1     -10.899   6.096  18.881  0.00  0.00    +0.000 A 
ATOM      8  C   UNL     1     -11.007   5.493  17.853  0.00  0.00    +0.000 A 
ATOM      9  C   UNL     1     -10.430   5.404  16.525  0.00  0.00    +0.000 A 
ENDBRANCH   1   5
BRANCH   2  10
ATOM     10  C   UNL     1      -5.990   9.803  16.762  0.00  0.00    +0.000 A 
ATOM     11  C   UNL     1      -4.695   9.478  17.159  0.00  0.00    +0.000 A 
ATOM     12  C   UNL     1      -6.246  11.028  16.150  0.00  0.00    +0.000 A 
ATOM     13  C   UNL     1      -3.655  10.380  16.946  0.00  0.00    +0.000 A 
ATOM     14  C   UNL     1      -5.206  11.930  15.937  0.00  0.00    +0.000 A 
ATOM     15  C   UNL     1      -3.911  11.605  16.335  0.00  0.00    +0.000 A 
ENDBRANCH   2  10
TORSDOF 2
ENDMDL
MODEL 9
REMARK VINA RESULT:      -4.3     11.963     13.428
REMARK  Name = 6440856_Goniothalamin.pdbqt.pdb
REMARK  2 active torsions:
REMARK  status: ('A' for Active; 'I' for Inactive)
REMARK    1  A    between atoms: C_1  and  C_5
REMARK    2  A    between atoms: C_2  and  C_10
REMARK                            x       y       z     vdW  Elec       q    Type
REMARK                         _______ _______ _______ _____ _____    ______ ____
ROOT
ATOM      1  C   UNL     1     -24.695   9.006  17.757  0.00  0.00    +0.000 C 
ATOM      2  C   UNL     1     -23.759   8.293  17.519  0.00  0.00    +0.000 C 
ENDROOT
BRANCH   1   5
ATOM      3  O   UNL     1     -25.772  10.648  19.229  0.00  0.00    +0.000 OA
ATOM      4  O   UNL     1     -26.967  12.200  20.469  0.00  0.00    +0.000 OA
ATOM      5  C   UNL     1     -25.800   9.843  18.035  0.00  0.00    +0.000 A 
ATOM      6  C   UNL     1     -26.968   9.980  17.236  0.00  0.00    +0.000 A 
ATOM      7  C   UNL     1     -28.185  10.847  17.459  0.00  0.00    +0.000 A 
ATOM      8  C   UNL     1     -27.916  11.396  18.489  0.00  0.00    +0.000 A 
ATOM      9  C   UNL     1     -26.871  11.473  19.492  0.00  0.00    +0.000 A 
ENDBRANCH   1   5
BRANCH   2  10
ATOM     10  C   UNL     1     -22.647   7.446  17.236  0.00  0.00    +0.000 A 
ATOM     11  C   UNL     1     -22.859   6.118  16.871  0.00  0.00    +0.000 A 
ATOM     12  C   UNL     1     -21.350   7.948  17.325  0.00  0.00    +0.000 A 
ATOM     13  C   UNL     1     -21.772   5.291  16.595  0.00  0.00    +0.000 A 
ATOM     14  C   UNL     1     -20.264   7.120  17.049  0.00  0.00    +0.000 A 
ATOM     15  C   UNL     1     -20.476   5.793  16.684  0.00  0.00    +0.000 A 
ENDBRANCH   2  10
TORSDOF 2
ENDMDL
