MODEL 1
REMARK VINA RESULT:      -3.4      0.000      0.000
REMARK  Name = 649_Dihydrouracil.pdb
REMARK  0 active torsions:
REMARK  status: ('A' for Active; 'I' for Inactive)
REMARK                            x       y       z     vdW  Elec       q    Type
REMARK                         _______ _______ _______ _____ _____    ______ ____
ROOT
ATOM      1  O   UNL     1     -21.789  16.186   8.764  0.00  0.00    +0.000 OA
ATOM      2  O   UNL     1     -21.982  11.580   8.579  0.00  0.00    +0.000 OA
ATOM      3  N   UNL     1     -23.191  12.630  10.221  0.00  0.00    +0.000 N 
ATOM      4  N   UNL     1     -21.900  13.874   8.689  0.00  0.00    +0.000 N 
ATOM      5  C   UNL     1     -23.582  13.759  10.826  0.00  0.00    +0.000 A 
ATOM      6  C   UNL     1     -23.101  15.086  10.335  0.00  0.00    +0.000 A 
ATOM      7  C   UNL     1     -22.214  15.130   9.207  0.00  0.00    +0.000 A 
ATOM      8  C   UNL     1     -22.335  12.618   9.126  0.00  0.00    +0.000 A 
ATOM      9  H   UNL     1     -23.523  11.736  10.561  0.00  0.00    +0.000 HD
ATOM     10  H   UNL     1     -21.279  13.870   7.895  0.00  0.00    +0.000 HD
ENDROOT
TORSDOF 0
ENDMDL
MODEL 2
REMARK VINA RESULT:      -3.3     10.315     11.411
REMARK  Name = 649_Dihydrouracil.pdb
REMARK  0 active torsions:
REMARK  status: ('A' for Active; 'I' for Inactive)
REMARK                            x       y       z     vdW  Elec       q    Type
REMARK                         _______ _______ _______ _____ _____    ______ ____
ROOT
ATOM      1  O   UNL     1     -19.365   5.189  18.889  0.00  0.00    +0.000 OA
ATOM      2  O   UNL     1     -20.563   9.087  16.728  0.00  0.00    +0.000 OA
ATOM      3  N   UNL     1     -22.248   7.707  17.444  0.00  0.00    +0.000 N 
ATOM      4  N   UNL     1     -19.988   7.141  17.807  0.00  0.00    +0.000 N 
ATOM      5  C   UNL     1     -22.640   6.579  18.052  0.00  0.00    +0.000 A 
ATOM      6  C   UNL     1     -21.629   5.624  18.599  0.00  0.00    +0.000 A 
ATOM      7  C   UNL     1     -20.234   5.934  18.462  0.00  0.00    +0.000 A 
ATOM      8  C   UNL     1     -20.912   8.053  17.286  0.00  0.00    +0.000 A 
ATOM      9  H   UNL     1     -22.941   8.348  17.078  0.00  0.00    +0.000 HD
ATOM     10  H   UNL     1     -19.017   7.388  17.694  0.00  0.00    +0.000 HD
ENDROOT
TORSDOF 0
ENDMDL
MODEL 3
REMARK VINA RESULT:      -3.2     10.988     11.819
REMARK  Name = 649_Dihydrouracil.pdb
REMARK  0 active torsions:
REMARK  status: ('A' for Active; 'I' for Inactive)
REMARK                            x       y       z     vdW  Elec       q    Type
REMARK                         _______ _______ _______ _____ _____    ______ ____
ROOT
ATOM      1  O   UNL     1     -20.915   8.432  17.400  0.00  0.00    +0.000 OA
ATOM      2  O   UNL     1     -18.994   4.721  19.359  0.00  0.00    +0.000 OA
ATOM      3  N   UNL     1     -20.684   4.372  17.849  0.00  0.00    +0.000 N 
ATOM      4  N   UNL     1     -19.964   6.556  18.372  0.00  0.00    +0.000 N 
ATOM      5  C   UNL     1     -21.593   4.863  16.997  0.00  0.00    +0.000 A 
ATOM      6  C   UNL     1     -21.721   6.338  16.794  0.00  0.00    +0.000 A 
ATOM      7  C   UNL     1     -20.854   7.218  17.526  0.00  0.00    +0.000 A 
ATOM      8  C   UNL     1     -19.822   5.179  18.581  0.00  0.00    +0.000 A 
ATOM      9  H   UNL     1     -20.606   3.371  17.979  0.00  0.00    +0.000 HD
ATOM     10  H   UNL     1     -19.341   7.145  18.901  0.00  0.00    +0.000 HD
ENDROOT
TORSDOF 0
ENDMDL
MODEL 4
REMARK VINA RESULT:      -3.2     16.460     17.346
REMARK  Name = 649_Dihydrouracil.pdb
REMARK  0 active torsions:
REMARK  status: ('A' for Active; 'I' for Inactive)
REMARK                            x       y       z     vdW  Elec       q    Type
REMARK                         _______ _______ _______ _____ _____    ______ ____
ROOT
ATOM      1  O   UNL     1     -24.044  12.769  27.302  0.00  0.00    +0.000 OA
ATOM      2  O   UNL     1     -25.290  17.205  27.041  0.00  0.00    +0.000 OA
ATOM      3  N   UNL     1     -25.837  15.841  25.280  0.00  0.00    +0.000 N 
ATOM      4  N   UNL     1     -24.678  14.992  27.151  0.00  0.00    +0.000 N 
ATOM      5  C   UNL     1     -25.822  14.630  24.708  0.00  0.00    +0.000 A 
ATOM      6  C   UNL     1     -25.181  13.472  25.402  0.00  0.00    +0.000 A 
ATOM      7  C   UNL     1     -24.582  13.679  26.690  0.00  0.00    +0.000 A 
ATOM      8  C   UNL     1     -25.272  16.094  26.524  0.00  0.00    +0.000 A 
ATOM      9  H   UNL     1     -26.274  16.619  24.802  0.00  0.00    +0.000 HD
ATOM     10  H   UNL     1     -24.267  15.171  28.054  0.00  0.00    +0.000 HD
ENDROOT
TORSDOF 0
ENDMDL
MODEL 5
REMARK VINA RESULT:      -3.2      1.896      2.358
REMARK  Name = 649_Dihydrouracil.pdb
REMARK  0 active torsions:
REMARK  status: ('A' for Active; 'I' for Inactive)
REMARK                            x       y       z     vdW  Elec       q    Type
REMARK                         _______ _______ _______ _____ _____    ______ ____
ROOT
ATOM      1  O   UNL     1     -22.279  16.928  10.886  0.00  0.00    +0.000 OA
ATOM      2  O   UNL     1     -24.328  12.804  11.184  0.00  0.00    +0.000 OA
ATOM      3  N   UNL     1     -22.748  13.090   9.547  0.00  0.00    +0.000 N 
ATOM      4  N   UNL     1     -23.296  14.850  11.018  0.00  0.00    +0.000 N 
ATOM      5  C   UNL     1     -21.857  13.873   8.925  0.00  0.00    +0.000 A 
ATOM      6  C   UNL     1     -21.644  15.283   9.373  0.00  0.00    +0.000 A 
ATOM      7  C   UNL     1     -22.411  15.784  10.479  0.00  0.00    +0.000 A 
ATOM      8  C   UNL     1     -23.515  13.527  10.621  0.00  0.00    +0.000 A 
ATOM      9  H   UNL     1     -22.884  12.137   9.235  0.00  0.00    +0.000 HD
ATOM     10  H   UNL     1     -23.849  15.171  11.797  0.00  0.00    +0.000 HD
ENDROOT
TORSDOF 0
ENDMDL
MODEL 6
REMARK VINA RESULT:      -3.1     15.010     15.542
REMARK  Name = 649_Dihydrouracil.pdb
REMARK  0 active torsions:
REMARK  status: ('A' for Active; 'I' for Inactive)
REMARK                            x       y       z     vdW  Elec       q    Type
REMARK                         _______ _______ _______ _____ _____    ______ ____
ROOT
ATOM      1  O   UNL     1     -13.356  19.088  21.293  0.00  0.00    +0.000 OA
ATOM      2  O   UNL     1     -17.906  19.844  21.174  0.00  0.00    +0.000 OA
ATOM      3  N   UNL     1     -17.006  19.080  23.140  0.00  0.00    +0.000 N 
ATOM      4  N   UNL     1     -15.642  19.461  21.255  0.00  0.00    +0.000 N 
ATOM      5  C   UNL     1     -15.938  18.687  23.847  0.00  0.00    +0.000 A 
ATOM      6  C   UNL     1     -14.581  18.671  23.223  0.00  0.00    +0.000 A 
ATOM      7  C   UNL     1     -14.440  19.082  21.854  0.00  0.00    +0.000 A 
ATOM      8  C   UNL     1     -16.924  19.486  21.814  0.00  0.00    +0.000 A 
ATOM      9  H   UNL     1     -17.921  19.087  23.573  0.00  0.00    +0.000 HD
ATOM     10  H   UNL     1     -15.578  19.755  20.293  0.00  0.00    +0.000 HD
ENDROOT
TORSDOF 0
ENDMDL
MODEL 7
REMARK VINA RESULT:      -2.8     25.230     25.957
REMARK  Name = 649_Dihydrouracil.pdb
REMARK  0 active torsions:
REMARK  status: ('A' for Active; 'I' for Inactive)
REMARK                            x       y       z     vdW  Elec       q    Type
REMARK                         _______ _______ _______ _____ _____    ______ ____
ROOT
ATOM      1  O   UNL     1       4.303   5.279  11.312  0.00  0.00    +0.000 OA
ATOM      2  O   UNL     1       0.245   7.217  12.348  0.00  0.00    +0.000 OA
ATOM      3  N   UNL     1       0.226   5.057  11.579  0.00  0.00    +0.000 N 
ATOM      4  N   UNL     1       2.255   6.233  11.826  0.00  0.00    +0.000 N 
ATOM      5  C   UNL     1       0.891   3.981  11.138  0.00  0.00    +0.000 A 
ATOM      6  C   UNL     1       2.380   4.006  11.022  0.00  0.00    +0.000 A 
ATOM      7  C   UNL     1       3.086   5.201  11.389  0.00  0.00    +0.000 A 
ATOM      8  C   UNL     1       0.861   6.237  11.946  0.00  0.00    +0.000 A 
ATOM      9  H   UNL     1      -0.783   5.029  11.655  0.00  0.00    +0.000 HD
ATOM     10  H   UNL     1       2.720   7.087  12.092  0.00  0.00    +0.000 HD
ENDROOT
TORSDOF 0
ENDMDL
MODEL 8
REMARK VINA RESULT:      -2.7      3.087      4.101
REMARK  Name = 649_Dihydrouracil.pdb
REMARK  0 active torsions:
REMARK  status: ('A' for Active; 'I' for Inactive)
REMARK                            x       y       z     vdW  Elec       q    Type
REMARK                         _______ _______ _______ _____ _____    ______ ____
ROOT
ATOM      1  O   UNL     1     -26.751  14.181   9.295  0.00  0.00    +0.000 OA
ATOM      2  O   UNL     1     -23.959  17.101  11.523  0.00  0.00    +0.000 OA
ATOM      3  N   UNL     1     -23.324  14.901  11.410  0.00  0.00    +0.000 N 
ATOM      4  N   UNL     1     -25.335  15.630  10.418  0.00  0.00    +0.000 N 
ATOM      5  C   UNL     1     -23.564  13.648  11.002  0.00  0.00    +0.000 A 
ATOM      6  C   UNL     1     -24.800  13.328  10.225  0.00  0.00    +0.000 A 
ATOM      7  C   UNL     1     -25.725  14.385   9.925  0.00  0.00    +0.000 A 
ATOM      8  C   UNL     1     -24.186  15.958  11.146  0.00  0.00    +0.000 A 
ATOM      9  H   UNL     1     -22.483  15.107  11.935  0.00  0.00    +0.000 HD
ATOM     10  H   UNL     1     -25.963  16.394  10.224  0.00  0.00    +0.000 HD
ENDROOT
TORSDOF 0
ENDMDL
MODEL 9
REMARK VINA RESULT:      -2.7      9.804     10.206
REMARK  Name = 649_Dihydrouracil.pdb
REMARK  0 active torsions:
REMARK  status: ('A' for Active; 'I' for Inactive)
REMARK                            x       y       z     vdW  Elec       q    Type
REMARK                         _______ _______ _______ _____ _____    ______ ____
ROOT
ATOM      1  O   UNL     1     -21.686   7.411  17.790  0.00  0.00    +0.000 OA
ATOM      2  O   UNL     1     -22.570   3.883  14.949  0.00  0.00    +0.000 OA
ATOM      3  N   UNL     1     -23.899   5.744  14.779  0.00  0.00    +0.000 N 
ATOM      4  N   UNL     1     -22.146   5.651  16.355  0.00  0.00    +0.000 N 
ATOM      5  C   UNL     1     -24.218   6.978  15.190  0.00  0.00    +0.000 A 
ATOM      6  C   UNL     1     -23.443   7.636  16.285  0.00  0.00    +0.000 A 
ATOM      7  C   UNL     1     -22.353   6.923  16.890  0.00  0.00    +0.000 A 
ATOM      8  C   UNL     1     -22.855   5.012  15.331  0.00  0.00    +0.000 A 
ATOM      9  H   UNL     1     -24.431   5.308  14.036  0.00  0.00    +0.000 HD
ATOM     10  H   UNL     1     -21.388   5.124  16.758  0.00  0.00    +0.000 HD
ENDROOT
TORSDOF 0
ENDMDL
