MODEL 1
REMARK VINA RESULT:      -8.3      0.000      0.000
REMARK  Name = 6509753_ManzamineA.pdbqt.pdb
REMARK  2 active torsions:
REMARK  status: ('A' for Active; 'I' for Inactive)
REMARK    1  A    between atoms: C_7  and  O_42
REMARK    2  A    between atoms: C_11  and  C_30
REMARK                            x       y       z     vdW  Elec       q    Type
REMARK                         _______ _______ _______ _____ _____    ______ ____
ROOT
ATOM      1  N   UNL     1     -10.686   7.324  20.274  0.00  0.00    +0.000 N 
ATOM      2  N   UNL     1     -10.447   2.356  20.598  0.00  0.00    +0.000 N 
ATOM      3  C   UNL     1     -11.567   5.000  20.759  0.00  0.00    +0.000 C 
ATOM      4  C   UNL     1     -10.940   6.313  21.332  0.00  0.00    +0.000 C 
ATOM      5  C   UNL     1     -12.894   4.432  21.411  0.00  0.00    +0.000 C 
ATOM      6  C   UNL     1     -11.825   5.514  19.417  0.00  0.00    +0.000 C 
ATOM      7  C   UNL     1     -11.400   6.817  22.703  0.00  0.00    +0.000 C 
ATOM      8  C   UNL     1     -10.605   3.845  20.677  0.00  0.00    +0.000 C 
ATOM      9  C   UNL     1     -11.183   6.704  19.026  0.00  0.00    +0.000 C 
ATOM     10  C   UNL     1     -12.989   2.995  21.343  0.00  0.00    +0.000 C 
ATOM     11  C   UNL     1     -13.415   5.126  22.580  0.00  0.00    +0.000 C 
ATOM     12  C   UNL     1     -12.615   6.071  22.962  0.00  0.00    +0.000 C 
ATOM     13  C   UNL     1     -11.828   2.056  21.004  0.00  0.00    +0.000 C 
ATOM     14  C   UNL     1      -9.273   7.703  20.203  0.00  0.00    +0.000 C 
ATOM     15  C   UNL     1     -10.348   6.624  23.697  0.00  0.00    +0.000 C 
ATOM     16  C   UNL     1     -10.537   6.925  17.773  0.00  0.00    +0.000 C 
ATOM     17  C   UNL     1      -9.556   1.947  21.671  0.00  0.00    +0.000 C 
ATOM     18  C   UNL     1      -7.919   8.067  19.565  0.00  0.00    +0.000 C 
ATOM     19  C   UNL     1      -9.259   6.242  24.701  0.00  0.00    +0.000 C 
ATOM     20  C   UNL     1      -9.646   7.215  17.021  0.00  0.00    +0.000 C 
ATOM     21  C   UNL     1      -7.377   8.122  18.138  0.00  0.00    +0.000 C 
ATOM     22  C   UNL     1      -8.598   1.698  22.839  0.00  0.00    +0.000 C 
ATOM     23  C   UNL     1      -8.209   7.730  16.922  0.00  0.00    +0.000 C 
ATOM     24  C   UNL     1      -8.221   5.416  25.457  0.00  0.00    +0.000 C 
ATOM     25  C   UNL     1      -7.758   1.972  24.084  0.00  0.00    +0.000 C 
ATOM     26  C   UNL     1      -7.342   2.962  25.159  0.00  0.00    +0.000 C 
ATOM     27  C   UNL     1      -7.627   4.387  25.601  0.00  0.00    +0.000 C 
ENDROOT
BRANCH  11  30
ATOM     28  N   UNL     1     -14.398   4.357  24.660  0.00  0.00    +0.000 NA
ATOM     29  N   UNL     1     -16.302   5.073  21.570  0.00  0.00    +0.000 N 
ATOM     30  C   UNL     1     -14.572   4.734  23.374  0.00  0.00    +0.000 A 
ATOM     31  C   UNL     1     -15.851   4.729  22.824  0.00  0.00    +0.000 A 
ATOM     32  C   UNL     1     -16.967   4.342  23.567  0.00  0.00    +0.000 A 
ATOM     33  C   UNL     1     -15.483   3.983  25.373  0.00  0.00    +0.000 A 
ATOM     34  C   UNL     1     -16.788   3.946  24.902  0.00  0.00    +0.000 A 
ATOM     35  C   UNL     1     -18.110   4.453  22.716  0.00  0.00    +0.000 A 
ATOM     36  C   UNL     1     -17.664   4.911  21.478  0.00  0.00    +0.000 A 
ATOM     37  C   UNL     1     -19.484   4.207  22.892  0.00  0.00    +0.000 A 
ATOM     38  C   UNL     1     -18.521   5.141  20.398  0.00  0.00    +0.000 A 
ATOM     39  C   UNL     1     -20.357   4.430  21.824  0.00  0.00    +0.000 A 
ATOM     40  C   UNL     1     -19.880   4.889  20.601  0.00  0.00    +0.000 A 
ATOM     41  H   UNL     1     -15.716   5.409  20.818  0.00  0.00    +0.000 HD
ENDBRANCH  11  30
BRANCH   7  42
ATOM     42  O   UNL     1     -11.739   8.194  22.648  0.00  0.00    +0.000 OA
ATOM     43  H   UNL     1     -10.997   8.671  23.056  0.00  0.00    +0.000 HD
ENDBRANCH   7  42
TORSDOF 2
ENDMDL
MODEL 2
REMARK VINA RESULT:      -7.6     22.710     26.114
REMARK  Name = 6509753_ManzamineA.pdbqt.pdb
REMARK  2 active torsions:
REMARK  status: ('A' for Active; 'I' for Inactive)
REMARK    1  A    between atoms: C_7  and  O_42
REMARK    2  A    between atoms: C_11  and  C_30
REMARK                            x       y       z     vdW  Elec       q    Type
REMARK                         _______ _______ _______ _____ _____    ______ ____
ROOT
ATOM      1  N   UNL     1     -16.156  10.433  -4.887  0.00  0.00    +0.000 N 
ATOM      2  N   UNL     1     -16.127  10.167   0.091  0.00  0.00    +0.000 N 
ATOM      3  C   UNL     1     -15.768   9.335  -2.639  0.00  0.00    +0.000 C 
ATOM      4  C   UNL     1     -16.719   9.512  -3.867  0.00  0.00    +0.000 C 
ATOM      5  C   UNL     1     -15.377   7.871  -2.174  0.00  0.00    +0.000 C 
ATOM      6  C   UNL     1     -14.618  10.019  -3.222  0.00  0.00    +0.000 C 
ATOM      7  C   UNL     1     -17.524   8.308  -4.362  0.00  0.00    +0.000 C 
ATOM      8  C   UNL     1     -16.216  10.068  -1.403  0.00  0.00    +0.000 C 
ATOM      9  C   UNL     1     -14.828  10.820  -4.360  0.00  0.00    +0.000 C 
ATOM     10  C   UNL     1     -15.140   7.772  -0.756  0.00  0.00    +0.000 C 
ATOM     11  C   UNL     1     -16.004   6.757  -2.872  0.00  0.00    +0.000 C 
ATOM     12  C   UNL     1     -16.887   7.173  -3.724  0.00  0.00    +0.000 C 
ATOM     13  C   UNL     1     -15.536   8.833   0.275  0.00  0.00    +0.000 C 
ATOM     14  C   UNL     1     -17.031  11.581  -5.136  0.00  0.00    +0.000 C 
ATOM     15  C   UNL     1     -18.937   8.469  -4.038  0.00  0.00    +0.000 C 
ATOM     16  C   UNL     1     -14.295  12.128  -4.564  0.00  0.00    +0.000 C 
ATOM     17  C   UNL     1     -17.481  10.144   0.618  0.00  0.00    +0.000 C 
ATOM     18  C   UNL     1     -17.432  13.046  -5.395  0.00  0.00    +0.000 C 
ATOM     19  C   UNL     1     -20.367   8.644  -3.522  0.00  0.00    +0.000 C 
ATOM     20  C   UNL     1     -14.308  13.307  -4.797  0.00  0.00    +0.000 C 
ATOM     21  C   UNL     1     -16.685  14.377  -5.449  0.00  0.00    +0.000 C 
ATOM     22  C   UNL     1     -18.965  10.120   0.995  0.00  0.00    +0.000 C 
ATOM     23  C   UNL     1     -15.189  14.498  -5.179  0.00  0.00    +0.000 C 
ATOM     24  C   UNL     1     -21.535   8.916  -2.577  0.00  0.00    +0.000 C 
ATOM     25  C   UNL     1     -20.477   9.982   0.845  0.00  0.00    +0.000 C 
ATOM     26  C   UNL     1     -21.652   9.661  -0.064  0.00  0.00    +0.000 C 
ATOM     27  C   UNL     1     -21.934   9.230  -1.493  0.00  0.00    +0.000 C 
ENDROOT
BRANCH  11  30
ATOM     28  N   UNL     1     -16.895   4.650  -2.067  0.00  0.00    +0.000 NA
ATOM     29  N   UNL     1     -13.423   5.157  -3.242  0.00  0.00    +0.000 N 
ATOM     30  C   UNL     1     -15.845   5.344  -2.561  0.00  0.00    +0.000 A 
ATOM     31  C   UNL     1     -14.625   4.699  -2.752  0.00  0.00    +0.000 A 
ATOM     32  C   UNL     1     -14.453   3.349  -2.444  0.00  0.00    +0.000 A 
ATOM     33  C   UNL     1     -16.722   3.343  -1.772  0.00  0.00    +0.000 A 
ATOM     34  C   UNL     1     -15.542   2.628  -1.928  0.00  0.00    +0.000 A 
ATOM     35  C   UNL     1     -13.102   3.006  -2.756  0.00  0.00    +0.000 A 
ATOM     36  C   UNL     1     -12.485   4.152  -3.252  0.00  0.00    +0.000 A 
ATOM     37  C   UNL     1     -12.350   1.820  -2.664  0.00  0.00    +0.000 A 
ATOM     38  C   UNL     1     -11.150   4.180  -3.665  0.00  0.00    +0.000 A 
ATOM     39  C   UNL     1     -11.014   1.828  -3.071  0.00  0.00    +0.000 A 
ATOM     40  C   UNL     1     -10.429   2.989  -3.562  0.00  0.00    +0.000 A 
ATOM     41  H   UNL     1     -13.252   6.100  -3.562  0.00  0.00    +0.000 HD
ENDBRANCH  11  30
BRANCH   7  42
ATOM     42  O   UNL     1     -17.385   8.150  -5.767  0.00  0.00    +0.000 OA
ATOM     43  H   UNL     1     -18.239   7.811  -6.085  0.00  0.00    +0.000 HD
ENDBRANCH   7  42
TORSDOF 2
ENDMDL
MODEL 3
REMARK VINA RESULT:      -7.4     22.561     25.257
REMARK  Name = 6509753_ManzamineA.pdbqt.pdb
REMARK  2 active torsions:
REMARK  status: ('A' for Active; 'I' for Inactive)
REMARK    1  A    between atoms: C_7  and  O_42
REMARK    2  A    between atoms: C_11  and  C_30
REMARK                            x       y       z     vdW  Elec       q    Type
REMARK                         _______ _______ _______ _____ _____    ______ ____
ROOT
ATOM      1  N   UNL     1     -16.276   5.980  -3.307  0.00  0.00    +0.000 N 
ATOM      2  N   UNL     1     -15.745   9.074   0.564  0.00  0.00    +0.000 N 
ATOM      3  C   UNL     1     -17.070   7.520  -1.462  0.00  0.00    +0.000 C 
ATOM      4  C   UNL     1     -16.722   7.358  -2.977  0.00  0.00    +0.000 C 
ATOM      5  C   UNL     1     -18.474   8.131  -1.056  0.00  0.00    +0.000 C 
ATOM      6  C   UNL     1     -17.003   6.101  -1.124  0.00  0.00    +0.000 C 
ATOM      7  C   UNL     1     -17.566   8.101  -4.016  0.00  0.00    +0.000 C 
ATOM      8  C   UNL     1     -16.034   8.274  -0.671  0.00  0.00    +0.000 C 
ATOM      9  C   UNL     1     -16.375   5.231  -2.034  0.00  0.00    +0.000 C 
ATOM     10  C   UNL     1     -18.436   8.866   0.184  0.00  0.00    +0.000 C 
ATOM     11  C   UNL     1     -19.339   8.594  -2.132  0.00  0.00    +0.000 C 
ATOM     12  C   UNL     1     -18.745   8.514  -3.281  0.00  0.00    +0.000 C 
ATOM     13  C   UNL     1     -17.157   9.326   0.890  0.00  0.00    +0.000 C 
ATOM     14  C   UNL     1     -14.929   5.960  -3.882  0.00  0.00    +0.000 C 
ATOM     15  C   UNL     1     -16.803   9.198  -4.603  0.00  0.00    +0.000 C 
ATOM     16  C   UNL     1     -15.439   4.209  -1.695  0.00  0.00    +0.000 C 
ATOM     17  C   UNL     1     -15.141  10.329   0.148  0.00  0.00    +0.000 C 
ATOM     18  C   UNL     1     -13.487   5.480  -4.133  0.00  0.00    +0.000 C 
ATOM     19  C   UNL     1     -15.993  10.418  -5.047  0.00  0.00    +0.000 C 
ATOM     20  C   UNL     1     -14.407   3.595  -1.727  0.00  0.00    +0.000 C 
ATOM     21  C   UNL     1     -12.593   4.391  -3.542  0.00  0.00    +0.000 C 
ATOM     22  C   UNL     1     -14.510  11.582  -0.465  0.00  0.00    +0.000 C 
ATOM     23  C   UNL     1     -13.039   3.482  -2.403  0.00  0.00    +0.000 C 
ATOM     24  C   UNL     1     -15.132  11.677  -4.984  0.00  0.00    +0.000 C 
ATOM     25  C   UNL     1     -14.053  12.583  -1.522  0.00  0.00    +0.000 C 
ATOM     26  C   UNL     1     -14.016  12.970  -2.991  0.00  0.00    +0.000 C 
ATOM     27  C   UNL     1     -14.518  12.476  -4.338  0.00  0.00    +0.000 C 
ENDROOT
BRANCH  11  30
ATOM     28  N   UNL     1     -20.727  10.582  -2.193  0.00  0.00    +0.000 NA
ATOM     29  N   UNL     1     -21.943   7.190  -1.352  0.00  0.00    +0.000 N 
ATOM     30  C   UNL     1     -20.630   9.251  -1.982  0.00  0.00    +0.000 A 
ATOM     31  C   UNL     1     -21.763   8.530  -1.611  0.00  0.00    +0.000 A 
ATOM     32  C   UNL     1     -23.004   9.148  -1.447  0.00  0.00    +0.000 A 
ATOM     33  C   UNL     1     -21.931  11.173  -2.033  0.00  0.00    +0.000 A 
ATOM     34  C   UNL     1     -23.105  10.531  -1.663  0.00  0.00    +0.000 A 
ATOM     35  C   UNL     1     -23.941   8.137  -1.071  0.00  0.00    +0.000 A 
ATOM     36  C   UNL     1     -23.250   6.928  -1.020  0.00  0.00    +0.000 A 
ATOM     37  C   UNL     1     -25.316   8.144  -0.773  0.00  0.00    +0.000 A 
ATOM     38  C   UNL     1     -23.862   5.715  -0.687  0.00  0.00    +0.000 A 
ATOM     39  C   UNL     1     -25.945   6.942  -0.437  0.00  0.00    +0.000 A 
ATOM     40  C   UNL     1     -25.227   5.753  -0.396  0.00  0.00    +0.000 A 
ATOM     41  H   UNL     1     -21.216   6.489  -1.407  0.00  0.00    +0.000 HD
ENDBRANCH  11  30
BRANCH   7  42
ATOM     42  O   UNL     1     -17.985   7.223  -5.050  0.00  0.00    +0.000 OA
ATOM     43  H   UNL     1     -17.382   6.461  -5.017  0.00  0.00    +0.000 HD
ENDBRANCH   7  42
TORSDOF 2
ENDMDL
MODEL 4
REMARK VINA RESULT:      -7.3     17.890     21.860
REMARK  Name = 6509753_ManzamineA.pdbqt.pdb
REMARK  2 active torsions:
REMARK  status: ('A' for Active; 'I' for Inactive)
REMARK    1  A    between atoms: C_7  and  O_42
REMARK    2  A    between atoms: C_11  and  C_30
REMARK                            x       y       z     vdW  Elec       q    Type
REMARK                         _______ _______ _______ _____ _____    ______ ____
ROOT
ATOM      1  N   UNL     1      -4.529  19.322  10.658  0.00  0.00    +0.000 N 
ATOM      2  N   UNL     1       0.246  19.060   9.250  0.00  0.00    +0.000 N 
ATOM      3  C   UNL     1      -2.621  18.980   9.029  0.00  0.00    +0.000 C 
ATOM      4  C   UNL     1      -3.674  18.317   9.976  0.00  0.00    +0.000 C 
ATOM      5  C   UNL     1      -2.523  18.491   7.525  0.00  0.00    +0.000 C 
ATOM      6  C   UNL     1      -3.164  20.333   9.101  0.00  0.00    +0.000 C 
ATOM      7  C   UNL     1      -4.326  16.998   9.552  0.00  0.00    +0.000 C 
ATOM      8  C   UNL     1      -1.217  18.973   9.571  0.00  0.00    +0.000 C 
ATOM      9  C   UNL     1      -4.077  20.629  10.131  0.00  0.00    +0.000 C 
ATOM     10  C   UNL     1      -1.192  18.594   6.982  0.00  0.00    +0.000 C 
ATOM     11  C   UNL     1      -3.370  17.375   7.127  0.00  0.00    +0.000 C 
ATOM     12  C   UNL     1      -4.016  16.889   8.141  0.00  0.00    +0.000 C 
ATOM     13  C   UNL     1       0.077  18.817   7.809  0.00  0.00    +0.000 C 
ATOM     14  C   UNL     1      -4.432  19.227  12.117  0.00  0.00    +0.000 C 
ATOM     15  C   UNL     1      -3.825  15.896  10.369  0.00  0.00    +0.000 C 
ATOM     16  C   UNL     1      -4.054  21.797  10.950  0.00  0.00    +0.000 C 
ATOM     17  C   UNL     1       0.898  17.901   9.836  0.00  0.00    +0.000 C 
ATOM     18  C   UNL     1      -4.329  19.703  13.578  0.00  0.00    +0.000 C 
ATOM     19  C   UNL     1      -3.133  14.783  11.158  0.00  0.00    +0.000 C 
ATOM     20  C   UNL     1      -4.028  22.440  11.965  0.00  0.00    +0.000 C 
ATOM     21  C   UNL     1      -4.179  21.059  14.265  0.00  0.00    +0.000 C 
ATOM     22  C   UNL     1       1.418  16.637  10.527  0.00  0.00    +0.000 C 
ATOM     23  C   UNL     1      -4.051  22.368  13.493  0.00  0.00    +0.000 C 
ATOM     24  C   UNL     1      -2.032  13.929  11.783  0.00  0.00    +0.000 C 
ATOM     25  C   UNL     1       1.405  15.302  11.266  0.00  0.00    +0.000 C 
ATOM     26  C   UNL     1       0.580  14.170  11.854  0.00  0.00    +0.000 C 
ATOM     27  C   UNL     1      -0.870  13.738  11.996  0.00  0.00    +0.000 C 
ENDROOT
BRANCH  11  30
ATOM     28  N   UNL     1      -2.795  15.517   5.679  0.00  0.00    +0.000 NA
ATOM     29  N   UNL     1      -4.662  18.525   4.604  0.00  0.00    +0.000 N 
ATOM     30  C   UNL     1      -3.386  16.723   5.826  0.00  0.00    +0.000 A 
ATOM     31  C   UNL     1      -3.990  17.330   4.727  0.00  0.00    +0.000 A 
ATOM     32  C   UNL     1      -4.000  16.725   3.469  0.00  0.00    +0.000 A 
ATOM     33  C   UNL     1      -2.809  14.937   4.459  0.00  0.00    +0.000 A 
ATOM     34  C   UNL     1      -3.383  15.473   3.315  0.00  0.00    +0.000 A 
ATOM     35  C   UNL     1      -4.693  17.599   2.577  0.00  0.00    +0.000 A 
ATOM     36  C   UNL     1      -5.094  18.713   3.313  0.00  0.00    +0.000 A 
ATOM     37  C   UNL     1      -5.018  17.540   1.209  0.00  0.00    +0.000 A 
ATOM     38  C   UNL     1      -5.807  19.778   2.754  0.00  0.00    +0.000 A 
ATOM     39  C   UNL     1      -5.729  18.596   0.632  0.00  0.00    +0.000 A 
ATOM     40  C   UNL     1      -6.115  19.692   1.395  0.00  0.00    +0.000 A 
ATOM     41  H   UNL     1      -4.826  19.175   5.360  0.00  0.00    +0.000 HD
ENDBRANCH  11  30
BRANCH   7  42
ATOM     42  O   UNL     1      -5.738  17.067   9.682  0.00  0.00    +0.000 OA
ATOM     43  H   UNL     1      -6.099  16.861   8.803  0.00  0.00    +0.000 HD
ENDBRANCH   7  42
TORSDOF 2
ENDMDL
MODEL 5
REMARK VINA RESULT:      -7.2      6.625     10.668
REMARK  Name = 6509753_ManzamineA.pdbqt.pdb
REMARK  2 active torsions:
REMARK  status: ('A' for Active; 'I' for Inactive)
REMARK    1  A    between atoms: C_7  and  O_42
REMARK    2  A    between atoms: C_11  and  C_30
REMARK                            x       y       z     vdW  Elec       q    Type
REMARK                         _______ _______ _______ _____ _____    ______ ____
ROOT
ATOM      1  N   UNL     1      -8.696   3.573  18.520  0.00  0.00    +0.000 N 
ATOM      2  N   UNL     1      -5.293   5.843  15.672  0.00  0.00    +0.000 N 
ATOM      3  C   UNL     1      -6.946   3.724  16.696  0.00  0.00    +0.000 C 
ATOM      4  C   UNL     1      -7.269   3.341  18.177  0.00  0.00    +0.000 C 
ATOM      5  C   UNL     1      -6.217   2.665  15.769  0.00  0.00    +0.000 C 
ATOM      6  C   UNL     1      -8.329   3.922  16.272  0.00  0.00    +0.000 C 
ATOM      7  C   UNL     1      -6.577   2.125  18.797  0.00  0.00    +0.000 C 
ATOM      8  C   UNL     1      -6.186   5.014  16.547  0.00  0.00    +0.000 C 
ATOM      9  C   UNL     1      -9.316   4.057  17.266  0.00  0.00    +0.000 C 
ATOM     10  C   UNL     1      -5.374   3.272  14.770  0.00  0.00    +0.000 C 
ATOM     11  C   UNL     1      -5.806   1.410  16.382  0.00  0.00    +0.000 C 
ATOM     12  C   UNL     1      -6.028   1.415  17.659  0.00  0.00    +0.000 C 
ATOM     13  C   UNL     1      -4.928   4.738  14.773  0.00  0.00    +0.000 C 
ATOM     14  C   UNL     1      -8.850   4.510  19.635  0.00  0.00    +0.000 C 
ATOM     15  C   UNL     1      -5.586   2.549  19.782  0.00  0.00    +0.000 C 
ATOM     16  C   UNL     1     -10.356   5.033  17.275  0.00  0.00    +0.000 C 
ATOM     17  C   UNL     1      -4.120   6.205  16.451  0.00  0.00    +0.000 C 
ATOM     18  C   UNL     1      -9.436   5.674  20.455  0.00  0.00    +0.000 C 
ATOM     19  C   UNL     1      -4.463   3.081  20.675  0.00  0.00    +0.000 C 
ATOM     20  C   UNL     1     -11.030   5.931  17.703  0.00  0.00    +0.000 C 
ATOM     21  C   UNL     1     -10.516   6.728  20.217  0.00  0.00    +0.000 C 
ATOM     22  C   UNL     1      -2.969   6.501  17.416  0.00  0.00    +0.000 C 
ATOM     23  C   UNL     1     -11.288   6.840  18.907  0.00  0.00    +0.000 C 
ATOM     24  C   UNL     1      -3.258   3.890  21.147  0.00  0.00    +0.000 C 
ATOM     25  C   UNL     1      -2.100   6.436  18.668  0.00  0.00    +0.000 C 
ATOM     26  C   UNL     1      -1.854   5.805  20.029  0.00  0.00    +0.000 C 
ATOM     27  C   UNL     1      -2.440   4.739  20.940  0.00  0.00    +0.000 C 
ENDROOT
BRANCH  11  30
ATOM     28  N   UNL     1      -3.721   0.269  15.896  0.00  0.00    +0.000 NA
ATOM     29  N   UNL     1      -7.040  -0.781  14.641  0.00  0.00    +0.000 N 
ATOM     30  C   UNL     1      -5.062   0.337  15.738  0.00  0.00    +0.000 A 
ATOM     31  C   UNL     1      -5.710  -0.613  14.951  0.00  0.00    +0.000 A 
ATOM     32  C   UNL     1      -5.009  -1.638  14.315  0.00  0.00    +0.000 A 
ATOM     33  C   UNL     1      -3.050  -0.727  15.278  0.00  0.00    +0.000 A 
ATOM     34  C   UNL     1      -3.616  -1.708  14.476  0.00  0.00    +0.000 A 
ATOM     35  C   UNL     1      -5.960  -2.429  13.600  0.00  0.00    +0.000 A 
ATOM     36  C   UNL     1      -7.217  -1.871  13.822  0.00  0.00    +0.000 A 
ATOM     37  C   UNL     1      -5.863  -3.573  12.786  0.00  0.00    +0.000 A 
ATOM     38  C   UNL     1      -8.391  -2.395  13.273  0.00  0.00    +0.000 A 
ATOM     39  C   UNL     1      -7.024  -4.112  12.227  0.00  0.00    +0.000 A 
ATOM     40  C   UNL     1      -8.264  -3.530  12.470  0.00  0.00    +0.000 A 
ATOM     41  H   UNL     1      -7.790  -0.191  14.976  0.00  0.00    +0.000 HD
ENDBRANCH  11  30
BRANCH   7  42
ATOM     42  O   UNL     1      -7.521   1.271  19.427  0.00  0.00    +0.000 OA
ATOM     43  H   UNL     1      -7.656   0.525  18.818  0.00  0.00    +0.000 HD
ENDBRANCH   7  42
TORSDOF 2
ENDMDL
MODEL 6
REMARK VINA RESULT:      -7.2     22.054     25.555
REMARK  Name = 6509753_ManzamineA.pdbqt.pdb
REMARK  2 active torsions:
REMARK  status: ('A' for Active; 'I' for Inactive)
REMARK    1  A    between atoms: C_7  and  O_42
REMARK    2  A    between atoms: C_11  and  C_30
REMARK                            x       y       z     vdW  Elec       q    Type
REMARK                         _______ _______ _______ _____ _____    ______ ____
ROOT
ATOM      1  N   UNL     1     -14.666   3.083  -1.940  0.00  0.00    +0.000 N 
ATOM      2  N   UNL     1     -14.500   6.982  -5.041  0.00  0.00    +0.000 N 
ATOM      3  C   UNL     1     -14.847   5.525  -2.586  0.00  0.00    +0.000 C 
ATOM      4  C   UNL     1     -15.595   4.176  -2.326  0.00  0.00    +0.000 C 
ATOM      5  C   UNL     1     -15.340   6.834  -1.842  0.00  0.00    +0.000 C 
ATOM      6  C   UNL     1     -13.549   5.094  -2.074  0.00  0.00    +0.000 C 
ATOM      7  C   UNL     1     -16.973   4.208  -1.660  0.00  0.00    +0.000 C 
ATOM      8  C   UNL     1     -14.719   5.886  -4.041  0.00  0.00    +0.000 C 
ATOM      9  C   UNL     1     -13.328   3.715  -1.899  0.00  0.00    +0.000 C 
ATOM     10  C   UNL     1     -15.120   8.036  -2.605  0.00  0.00    +0.000 C 
ATOM     11  C   UNL     1     -16.533   6.723  -1.014  0.00  0.00    +0.000 C 
ATOM     12  C   UNL     1     -17.066   5.546  -1.111  0.00  0.00    +0.000 C 
ATOM     13  C   UNL     1     -14.773   8.076  -4.096  0.00  0.00    +0.000 C 
ATOM     14  C   UNL     1     -14.737   1.949  -2.865  0.00  0.00    +0.000 C 
ATOM     15  C   UNL     1     -18.015   3.877  -2.626  0.00  0.00    +0.000 C 
ATOM     16  C   UNL     1     -12.155   3.006  -2.293  0.00  0.00    +0.000 C 
ATOM     17  C   UNL     1     -15.588   6.929  -6.003  0.00  0.00    +0.000 C 
ATOM     18  C   UNL     1     -14.238   0.790  -3.749  0.00  0.00    +0.000 C 
ATOM     19  C   UNL     1     -19.052   3.677  -3.734  0.00  0.00    +0.000 C 
ATOM     20  C   UNL     1     -11.502   2.161  -2.845  0.00  0.00    +0.000 C 
ATOM     21  C   UNL     1     -12.867   0.254  -4.156  0.00  0.00    +0.000 C 
ATOM     22  C   UNL     1     -16.791   6.718  -6.927  0.00  0.00    +0.000 C 
ATOM     23  C   UNL     1     -11.561   0.901  -3.710  0.00  0.00    +0.000 C 
ATOM     24  C   UNL     1     -19.793   3.834  -5.059  0.00  0.00    +0.000 C 
ATOM     25  C   UNL     1     -18.114   6.165  -7.449  0.00  0.00    +0.000 C 
ATOM     26  C   UNL     1     -19.311   5.261  -7.208  0.00  0.00    +0.000 C 
ATOM     27  C   UNL     1     -19.874   4.335  -6.144  0.00  0.00    +0.000 C 
ENDROOT
BRANCH  11  30
ATOM     28  N   UNL     1     -16.572   8.406   0.733  0.00  0.00    +0.000 NA
ATOM     29  N   UNL     1     -19.313   7.813  -1.681  0.00  0.00    +0.000 N 
ATOM     30  C   UNL     1     -17.197   7.809  -0.306  0.00  0.00    +0.000 A 
ATOM     31  C   UNL     1     -18.473   8.232  -0.674  0.00  0.00    +0.000 A 
ATOM     32  C   UNL     1     -19.128   9.260   0.004  0.00  0.00    +0.000 A 
ATOM     33  C   UNL     1     -17.212   9.401   1.384  0.00  0.00    +0.000 A 
ATOM     34  C   UNL     1     -18.481   9.879   1.085  0.00  0.00    +0.000 A 
ATOM     35  C   UNL     1     -20.400   9.444  -0.621  0.00  0.00    +0.000 A 
ATOM     36  C   UNL     1     -20.486   8.529  -1.668  0.00  0.00    +0.000 A 
ATOM     37  C   UNL     1     -21.484  10.312  -0.390  0.00  0.00    +0.000 A 
ATOM     38  C   UNL     1     -21.602   8.432  -2.504  0.00  0.00    +0.000 A 
ATOM     39  C   UNL     1     -22.609  10.229  -1.214  0.00  0.00    +0.000 A 
ATOM     40  C   UNL     1     -22.662   9.305  -2.251  0.00  0.00    +0.000 A 
ATOM     41  H   UNL     1     -19.096   7.086  -2.349  0.00  0.00    +0.000 HD
ENDBRANCH  11  30
BRANCH   7  42
ATOM     42  O   UNL     1     -17.033   3.290  -0.579  0.00  0.00    +0.000 OA
ATOM     43  H   UNL     1     -16.791   3.794   0.216  0.00  0.00    +0.000 HD
ENDBRANCH   7  42
TORSDOF 2
ENDMDL
MODEL 7
REMARK VINA RESULT:      -7.0     10.674     15.053
REMARK  Name = 6509753_ManzamineA.pdbqt.pdb
REMARK  2 active torsions:
REMARK  status: ('A' for Active; 'I' for Inactive)
REMARK    1  A    between atoms: C_7  and  O_42
REMARK    2  A    between atoms: C_11  and  C_30
REMARK                            x       y       z     vdW  Elec       q    Type
REMARK                         _______ _______ _______ _____ _____    ______ ____
ROOT
ATOM      1  N   UNL     1     -10.425  16.426  24.321  0.00  0.00    +0.000 N 
ATOM      2  N   UNL     1     -13.616  19.380  21.885  0.00  0.00    +0.000 N 
ATOM      3  C   UNL     1     -11.533  17.437  22.282  0.00  0.00    +0.000 C 
ATOM      4  C   UNL     1     -10.319  17.467  23.267  0.00  0.00    +0.000 C 
ATOM      5  C   UNL     1     -11.257  17.368  20.723  0.00  0.00    +0.000 C 
ATOM      6  C   UNL     1     -12.106  16.184  22.764  0.00  0.00    +0.000 C 
ATOM      7  C   UNL     1      -8.926  17.785  22.718  0.00  0.00    +0.000 C 
ATOM      8  C   UNL     1     -12.521  18.553  22.490  0.00  0.00    +0.000 C 
ATOM      9  C   UNL     1     -11.669  15.689  24.007  0.00  0.00    +0.000 C 
ATOM     10  C   UNL     1     -12.272  18.026  19.939  0.00  0.00    +0.000 C 
ATOM     11  C   UNL     1      -9.869  17.426  20.285  0.00  0.00    +0.000 C 
ATOM     12  C   UNL     1      -9.069  17.631  21.284  0.00  0.00    +0.000 C 
ATOM     13  C   UNL     1     -13.326  18.986  20.498  0.00  0.00    +0.000 C 
ATOM     14  C   UNL     1     -10.425  17.005  25.667  0.00  0.00    +0.000 C 
ATOM     15  C   UNL     1      -8.500  19.114  23.144  0.00  0.00    +0.000 C 
ATOM     16  C   UNL     1     -12.511  15.171  25.036  0.00  0.00    +0.000 C 
ATOM     17  C   UNL     1     -13.258  20.779  22.047  0.00  0.00    +0.000 C 
ATOM     18  C   UNL     1     -10.834  17.205  27.139  0.00  0.00    +0.000 C 
ATOM     19  C   UNL     1      -8.202  20.572  23.501  0.00  0.00    +0.000 C 
ATOM     20  C   UNL     1     -12.983  15.070  26.136  0.00  0.00    +0.000 C 
ATOM     21  C   UNL     1     -11.899  16.605  28.056  0.00  0.00    +0.000 C 
ATOM     22  C   UNL     1     -12.732  22.192  22.315  0.00  0.00    +0.000 C 
ATOM     23  C   UNL     1     -12.915  15.574  27.579  0.00  0.00    +0.000 C 
ATOM     24  C   UNL     1      -8.376  22.079  23.670  0.00  0.00    +0.000 C 
ATOM     25  C   UNL     1     -11.778  23.309  22.729  0.00  0.00    +0.000 C 
ATOM     26  C   UNL     1     -10.393  23.696  23.222  0.00  0.00    +0.000 C 
ATOM     27  C   UNL     1      -9.063  23.056  23.577  0.00  0.00    +0.000 C 
ENDROOT
BRANCH  11  30
ATOM     28  N   UNL     1      -9.584  18.564  18.163  0.00  0.00    +0.000 NA
ATOM     29  N   UNL     1      -8.450  15.114  18.872  0.00  0.00    +0.000 N 
ATOM     30  C   UNL     1      -9.398  17.452  18.908  0.00  0.00    +0.000 A 
ATOM     31  C   UNL     1      -8.771  16.344  18.343  0.00  0.00    +0.000 A 
ATOM     32  C   UNL     1      -8.327  16.348  17.020  0.00  0.00    +0.000 A 
ATOM     33  C   UNL     1      -9.151  18.561  16.883  0.00  0.00    +0.000 A 
ATOM     34  C   UNL     1      -8.522  17.501  16.244  0.00  0.00    +0.000 A 
ATOM     35  C   UNL     1      -7.734  15.074  16.761  0.00  0.00    +0.000 A 
ATOM     36  C   UNL     1      -7.826  14.327  17.934  0.00  0.00    +0.000 A 
ATOM     37  C   UNL     1      -7.126  14.492  15.634  0.00  0.00    +0.000 A 
ATOM     38  C   UNL     1      -7.338  13.021  18.044  0.00  0.00    +0.000 A 
ATOM     39  C   UNL     1      -6.633  13.187  15.724  0.00  0.00    +0.000 A 
ATOM     40  C   UNL     1      -6.739  12.469  16.910  0.00  0.00    +0.000 A 
ATOM     41  H   UNL     1      -8.637  14.828  19.823  0.00  0.00    +0.000 HD
ENDBRANCH  11  30
BRANCH   7  42
ATOM     42  O   UNL     1      -7.976  16.828  23.164  0.00  0.00    +0.000 OA
ATOM     43  H   UNL     1      -7.618  16.410  22.362  0.00  0.00    +0.000 HD
ENDBRANCH   7  42
TORSDOF 2
ENDMDL
MODEL 8
REMARK VINA RESULT:      -6.9     23.893     27.123
REMARK  Name = 6509753_ManzamineA.pdbqt.pdb
REMARK  2 active torsions:
REMARK  status: ('A' for Active; 'I' for Inactive)
REMARK    1  A    between atoms: C_7  and  O_42
REMARK    2  A    between atoms: C_11  and  C_30
REMARK                            x       y       z     vdW  Elec       q    Type
REMARK                         _______ _______ _______ _____ _____    ______ ____
ROOT
ATOM      1  N   UNL     1     -16.788   6.340  -1.141  0.00  0.00    +0.000 N 
ATOM      2  N   UNL     1     -16.031   7.515  -5.926  0.00  0.00    +0.000 N 
ATOM      3  C   UNL     1     -15.825   7.679  -3.061  0.00  0.00    +0.000 C 
ATOM      4  C   UNL     1     -16.942   7.559  -1.975  0.00  0.00    +0.000 C 
ATOM      5  C   UNL     1     -14.996   9.026  -3.167  0.00  0.00    +0.000 C 
ATOM      6  C   UNL     1     -14.989   6.593  -2.559  0.00  0.00    +0.000 C 
ATOM      7  C   UNL     1     -17.450   8.831  -1.289  0.00  0.00    +0.000 C 
ATOM      8  C   UNL     1     -16.286   7.354  -4.456  0.00  0.00    +0.000 C 
ATOM      9  C   UNL     1     -15.556   5.689  -1.641  0.00  0.00    +0.000 C 
ATOM     10  C   UNL     1     -14.555   9.316  -4.509  0.00  0.00    +0.000 C 
ATOM     11  C   UNL     1     -15.386  10.122  -2.292  0.00  0.00    +0.000 C 
ATOM     12  C   UNL     1     -16.453   9.829  -1.617  0.00  0.00    +0.000 C 
ATOM     13  C   UNL     1     -15.083   8.629  -5.772  0.00  0.00    +0.000 C 
ATOM     14  C   UNL     1     -17.965   5.471  -1.213  0.00  0.00    +0.000 C 
ATOM     15  C   UNL     1     -18.800   9.151  -1.744  0.00  0.00    +0.000 C 
ATOM     16  C   UNL     1     -15.428   4.269  -1.687  0.00  0.00    +0.000 C 
ATOM     17  C   UNL     1     -17.247   8.030  -6.533  0.00  0.00    +0.000 C 
ATOM     18  C   UNL     1     -18.777   4.165  -1.308  0.00  0.00    +0.000 C 
ATOM     19  C   UNL     1     -20.142   9.501  -2.390  0.00  0.00    +0.000 C 
ATOM     20  C   UNL     1     -15.789   3.123  -1.718  0.00  0.00    +0.000 C 
ATOM     21  C   UNL     1     -18.430   2.689  -1.490  0.00  0.00    +0.000 C 
ATOM     22  C   UNL     1     -18.606   8.555  -7.004  0.00  0.00    +0.000 C 
ATOM     23  C   UNL     1     -17.001   2.191  -1.670  0.00  0.00    +0.000 C 
ATOM     24  C   UNL     1     -21.204   9.763  -3.454  0.00  0.00    +0.000 C 
ATOM     25  C   UNL     1     -20.031   9.097  -6.939  0.00  0.00    +0.000 C 
ATOM     26  C   UNL     1     -21.185   9.569  -6.071  0.00  0.00    +0.000 C 
ATOM     27  C   UNL     1     -21.526   9.788  -4.607  0.00  0.00    +0.000 C 
ENDROOT
BRANCH  11  30
ATOM     28  N   UNL     1     -14.131  11.879  -1.185  0.00  0.00    +0.000 NA
ATOM     29  N   UNL     1     -15.589  12.147  -4.575  0.00  0.00    +0.000 N 
ATOM     30  C   UNL     1     -14.812  11.460  -2.275  0.00  0.00    +0.000 A 
ATOM     31  C   UNL     1     -14.966  12.320  -3.360  0.00  0.00    +0.000 A 
ATOM     32  C   UNL     1     -14.436  13.612  -3.353  0.00  0.00    +0.000 A 
ATOM     33  C   UNL     1     -13.621  13.129  -1.186  0.00  0.00    +0.000 A 
ATOM     34  C   UNL     1     -13.732  14.048  -2.220  0.00  0.00    +0.000 A 
ATOM     35  C   UNL     1     -14.767  14.219  -4.604  0.00  0.00    +0.000 A 
ATOM     36  C   UNL     1     -15.486  13.282  -5.344  0.00  0.00    +0.000 A 
ATOM     37  C   UNL     1     -14.517  15.482  -5.172  0.00  0.00    +0.000 A 
ATOM     38  C   UNL     1     -15.970  13.538  -6.630  0.00  0.00    +0.000 A 
ATOM     39  C   UNL     1     -14.993  15.757  -6.456  0.00  0.00    +0.000 A 
ATOM     40  C   UNL     1     -15.706  14.799  -7.168  0.00  0.00    +0.000 A 
ATOM     41  H   UNL     1     -16.052  11.299  -4.871  0.00  0.00    +0.000 HD
ENDBRANCH  11  30
BRANCH   7  42
ATOM     42  O   UNL     1     -17.461   8.675   0.122  0.00  0.00    +0.000 OA
ATOM     43  H   UNL     1     -18.337   8.975   0.419  0.00  0.00    +0.000 HD
ENDBRANCH   7  42
TORSDOF 2
ENDMDL
MODEL 9
REMARK VINA RESULT:      -6.8     14.192     15.431
REMARK  Name = 6509753_ManzamineA.pdbqt.pdb
REMARK  2 active torsions:
REMARK  status: ('A' for Active; 'I' for Inactive)
REMARK    1  A    between atoms: C_7  and  O_42
REMARK    2  A    between atoms: C_11  and  C_30
REMARK                            x       y       z     vdW  Elec       q    Type
REMARK                         _______ _______ _______ _____ _____    ______ ____
ROOT
ATOM      1  N   UNL     1     -13.677  20.417  24.365  0.00  0.00    +0.000 N 
ATOM      2  N   UNL     1     -12.977  15.941  26.443  0.00  0.00    +0.000 N 
ATOM      3  C   UNL     1     -14.093  18.560  26.035  0.00  0.00    +0.000 C 
ATOM      4  C   UNL     1     -13.371  19.912  25.728  0.00  0.00    +0.000 C 
ATOM      5  C   UNL     1     -14.958  18.431  27.357  0.00  0.00    +0.000 C 
ATOM      6  C   UNL     1     -14.948  18.558  24.852  0.00  0.00    +0.000 C 
ATOM      7  C   UNL     1     -13.217  20.942  26.851  0.00  0.00    +0.000 C 
ATOM      8  C   UNL     1     -13.187  17.359  26.001  0.00  0.00    +0.000 C 
ATOM      9  C   UNL     1     -14.627  19.434  23.798  0.00  0.00    +0.000 C 
ATOM     10  C   UNL     1     -14.973  17.095  27.895  0.00  0.00    +0.000 C 
ATOM     11  C   UNL     1     -14.960  19.567  28.268  0.00  0.00    +0.000 C 
ATOM     12  C   UNL     1     -14.141  20.490  27.871  0.00  0.00    +0.000 C 
ATOM     13  C   UNL     1     -14.016  15.973  27.483  0.00  0.00    +0.000 C 
ATOM     14  C   UNL     1     -12.468  20.581  23.555  0.00  0.00    +0.000 C 
ATOM     15  C   UNL     1     -11.826  21.020  27.285  0.00  0.00    +0.000 C 
ATOM     16  C   UNL     1     -14.612  19.094  22.412  0.00  0.00    +0.000 C 
ATOM     17  C   UNL     1     -11.680  15.867  27.095  0.00  0.00    +0.000 C 
ATOM     18  C   UNL     1     -11.559  20.524  22.312  0.00  0.00    +0.000 C 
ATOM     19  C   UNL     1     -10.383  20.922  27.786  0.00  0.00    +0.000 C 
ATOM     20  C   UNL     1     -14.163  18.980  21.303  0.00  0.00    +0.000 C 
ATOM     21  C   UNL     1     -11.703  19.978  20.893  0.00  0.00    +0.000 C 
ATOM     22  C   UNL     1     -10.292  15.969  27.733  0.00  0.00    +0.000 C 
ATOM     23  C   UNL     1     -12.954  19.254  20.408  0.00  0.00    +0.000 C 
ATOM     24  C   UNL     1      -9.065  20.330  28.277  0.00  0.00    +0.000 C 
ATOM     25  C   UNL     1      -9.013  16.593  28.284  0.00  0.00    +0.000 C 
ATOM     26  C   UNL     1      -8.238  17.861  28.602  0.00  0.00    +0.000 C 
ATOM     27  C   UNL     1      -8.398  19.370  28.536  0.00  0.00    +0.000 C 
ENDROOT
BRANCH  11  30
ATOM     28  N   UNL     1     -14.876  19.653  30.690  0.00  0.00    +0.000 NA
ATOM     29  N   UNL     1     -17.988  19.671  28.690  0.00  0.00    +0.000 N 
ATOM     30  C   UNL     1     -15.622  19.635  29.563  0.00  0.00    +0.000 A 
ATOM     31  C   UNL     1     -17.011  19.666  29.659  0.00  0.00    +0.000 A 
ATOM     32  C   UNL     1     -17.660  19.715  30.894  0.00  0.00    +0.000 A 
ATOM     33  C   UNL     1     -15.511  19.701  31.882  0.00  0.00    +0.000 A 
ATOM     34  C   UNL     1     -16.886  19.731  32.065  0.00  0.00    +0.000 A 
ATOM     35  C   UNL     1     -19.066  19.740  30.640  0.00  0.00    +0.000 A 
ATOM     36  C   UNL     1     -19.239  19.712  29.257  0.00  0.00    +0.000 A 
ATOM     37  C   UNL     1     -20.205  19.787  31.464  0.00  0.00    +0.000 A 
ATOM     38  C   UNL     1     -20.498  19.729  28.648  0.00  0.00    +0.000 A 
ATOM     39  C   UNL     1     -21.472  19.805  30.874  0.00  0.00    +0.000 A 
ATOM     40  C   UNL     1     -21.610  19.777  29.491  0.00  0.00    +0.000 A 
ATOM     41  H   UNL     1     -17.814  19.657  27.694  0.00  0.00    +0.000 HD
ENDBRANCH  11  30
BRANCH   7  42
ATOM     42  O   UNL     1     -13.641  22.227  26.420  0.00  0.00    +0.000 OA
ATOM     43  H   UNL     1     -14.608  22.176  26.332  0.00  0.00    +0.000 HD
ENDBRANCH   7  42
TORSDOF 2
ENDMDL
