MODEL 1
REMARK VINA RESULT:      -3.9      0.000      0.000
REMARK  Name = 67499_Pyrazolo.pdbqt.pdb
REMARK  0 active torsions:
REMARK  status: ('A' for Active; 'I' for Inactive)
REMARK                            x       y       z     vdW  Elec       q    Type
REMARK                         _______ _______ _______ _____ _____    ______ ____
ROOT
ATOM      1  N   UNL     1     -17.411  19.650  23.166  0.00  0.00    +0.000 N 
ATOM      2  N   UNL     1     -17.496  20.258  21.963  0.00  0.00    +0.000 NA
ATOM      3  N   UNL     1     -15.809  18.435  24.516  0.00  0.00    +0.000 NA
ATOM      4  N   UNL     1     -13.673  18.217  23.396  0.00  0.00    +0.000 NA
ATOM      5  C   UNL     1     -15.421  19.362  22.299  0.00  0.00    +0.000 A 
ATOM      6  C   UNL     1     -16.188  19.098  23.414  0.00  0.00    +0.000 A 
ATOM      7  C   UNL     1     -16.275  20.076  21.440  0.00  0.00    +0.000 A 
ATOM      8  C   UNL     1     -14.115  18.895  22.308  0.00  0.00    +0.000 A 
ATOM      9  C   UNL     1     -14.528  18.027  24.422  0.00  0.00    +0.000 A 
ATOM     10  H   UNL     1     -18.221  19.645  23.775  0.00  0.00    +0.000 HD
ENDROOT
TORSDOF 0
ENDMDL
MODEL 2
REMARK VINA RESULT:      -3.7     14.390     14.617
REMARK  Name = 67499_Pyrazolo.pdbqt.pdb
REMARK  0 active torsions:
REMARK  status: ('A' for Active; 'I' for Inactive)
REMARK                            x       y       z     vdW  Elec       q    Type
REMARK                         _______ _______ _______ _____ _____    ______ ____
ROOT
ATOM      1  N   UNL     1     -22.342   5.722  17.878  0.00  0.00    +0.000 N 
ATOM      2  N   UNL     1     -21.402   4.860  17.434  0.00  0.00    +0.000 NA
ATOM      3  N   UNL     1     -22.770   8.105  17.973  0.00  0.00    +0.000 NA
ATOM      4  N   UNL     1     -20.975   9.381  16.967  0.00  0.00    +0.000 NA
ATOM      5  C   UNL     1     -20.812   7.026  17.009  0.00  0.00    +0.000 A 
ATOM      6  C   UNL     1     -22.035   7.032  17.647  0.00  0.00    +0.000 A 
ATOM      7  C   UNL     1     -20.472   5.666  16.904  0.00  0.00    +0.000 A 
ATOM      8  C   UNL     1     -20.277   8.259  16.663  0.00  0.00    +0.000 A 
ATOM      9  C   UNL     1     -22.162   9.245  17.594  0.00  0.00    +0.000 A 
ATOM     10  H   UNL     1     -23.172   5.359  18.331  0.00  0.00    +0.000 HD
ENDROOT
TORSDOF 0
ENDMDL
MODEL 3
REMARK VINA RESULT:      -3.7     14.050     14.134
REMARK  Name = 67499_Pyrazolo.pdbqt.pdb
REMARK  0 active torsions:
REMARK  status: ('A' for Active; 'I' for Inactive)
REMARK                            x       y       z     vdW  Elec       q    Type
REMARK                         _______ _______ _______ _____ _____    ______ ____
ROOT
ATOM      1  N   UNL     1     -23.626   7.535  17.793  0.00  0.00    +0.000 N 
ATOM      2  N   UNL     1     -24.027   8.820  17.900  0.00  0.00    +0.000 NA
ATOM      3  N   UNL     1     -21.660   6.255  17.189  0.00  0.00    +0.000 NA
ATOM      4  N   UNL     1     -19.806   7.689  16.579  0.00  0.00    +0.000 NA
ATOM      5  C   UNL     1     -21.853   8.682  17.212  0.00  0.00    +0.000 A 
ATOM      6  C   UNL     1     -22.331   7.399  17.384  0.00  0.00    +0.000 A 
ATOM      7  C   UNL     1     -22.937   9.513  17.543  0.00  0.00    +0.000 A 
ATOM      8  C   UNL     1     -20.536   8.811  16.792  0.00  0.00    +0.000 A 
ATOM      9  C   UNL     1     -20.397   6.493  16.785  0.00  0.00    +0.000 A 
ATOM     10  H   UNL     1     -24.280   6.793  18.012  0.00  0.00    +0.000 HD
ENDROOT
TORSDOF 0
ENDMDL
MODEL 4
REMARK VINA RESULT:      -3.4     25.119     25.935
REMARK  Name = 67499_Pyrazolo.pdbqt.pdb
REMARK  0 active torsions:
REMARK  status: ('A' for Active; 'I' for Inactive)
REMARK                            x       y       z     vdW  Elec       q    Type
REMARK                         _______ _______ _______ _____ _____    ______ ____
ROOT
ATOM      1  N   UNL     1     -14.690  11.229  -2.759  0.00  0.00    +0.000 N 
ATOM      2  N   UNL     1     -14.456  12.392  -2.113  0.00  0.00    +0.000 NA
ATOM      3  N   UNL     1     -15.283   8.931  -2.274  0.00  0.00    +0.000 NA
ATOM      4  N   UNL     1     -15.550   8.554   0.103  0.00  0.00    +0.000 NA
ATOM      5  C   UNL     1     -14.970  10.716  -0.648  0.00  0.00    +0.000 A 
ATOM      6  C   UNL     1     -15.002  10.195  -1.925  0.00  0.00    +0.000 A 
ATOM      7  C   UNL     1     -14.629  12.069  -0.824  0.00  0.00    +0.000 A 
ATOM      8  C   UNL     1     -15.258   9.846   0.394  0.00  0.00    +0.000 A 
ATOM      9  C   UNL     1     -15.546   8.174  -1.192  0.00  0.00    +0.000 A 
ATOM     10  H   UNL     1     -14.622  11.202  -3.769  0.00  0.00    +0.000 HD
ENDROOT
TORSDOF 0
ENDMDL
MODEL 5
REMARK VINA RESULT:      -3.3     25.035     25.778
REMARK  Name = 67499_Pyrazolo.pdbqt.pdb
REMARK  0 active torsions:
REMARK  status: ('A' for Active; 'I' for Inactive)
REMARK                            x       y       z     vdW  Elec       q    Type
REMARK                         _______ _______ _______ _____ _____    ______ ____
ROOT
ATOM      1  N   UNL     1     -16.851   7.637  -1.889  0.00  0.00    +0.000 N 
ATOM      2  N   UNL     1     -15.871   8.026  -2.733  0.00  0.00    +0.000 NA
ATOM      3  N   UNL     1     -17.520   7.917   0.422  0.00  0.00    +0.000 NA
ATOM      4  N   UNL     1     -15.976   9.330   1.640  0.00  0.00    +0.000 NA
ATOM      5  C   UNL     1     -15.559   8.891  -0.642  0.00  0.00    +0.000 A 
ATOM      6  C   UNL     1     -16.709   8.129  -0.624  0.00  0.00    +0.000 A 
ATOM      7  C   UNL     1     -15.087   8.791  -1.963  0.00  0.00    +0.000 A 
ATOM      8  C   UNL     1     -15.194   9.508   0.546  0.00  0.00    +0.000 A 
ATOM      9  C   UNL     1     -17.076   8.558   1.520  0.00  0.00    +0.000 A 
ATOM     10  H   UNL     1     -17.590   7.035  -2.232  0.00  0.00    +0.000 HD
ENDROOT
TORSDOF 0
ENDMDL
MODEL 6
REMARK VINA RESULT:      -3.2     15.210     16.402
REMARK  Name = 67499_Pyrazolo.pdbqt.pdb
REMARK  0 active torsions:
REMARK  status: ('A' for Active; 'I' for Inactive)
REMARK                            x       y       z     vdW  Elec       q    Type
REMARK                         _______ _______ _______ _____ _____    ______ ____
ROOT
ATOM      1  N   UNL     1      -6.009  15.154  12.810  0.00  0.00    +0.000 N 
ATOM      2  N   UNL     1      -5.054  14.420  13.420  0.00  0.00    +0.000 NA
ATOM      3  N   UNL     1      -6.311  16.515  10.830  0.00  0.00    +0.000 NA
ATOM      4  N   UNL     1      -4.294  16.620   9.494  0.00  0.00    +0.000 NA
ATOM      5  C   UNL     1      -4.275  15.355  11.487  0.00  0.00    +0.000 A 
ATOM      6  C   UNL     1      -5.591  15.735  11.648  0.00  0.00    +0.000 A 
ATOM      7  C   UNL     1      -3.998  14.548  12.605  0.00  0.00    +0.000 A 
ATOM      8  C   UNL     1      -3.617  15.826  10.359  0.00  0.00    +0.000 A 
ATOM      9  C   UNL     1      -5.581  16.916   9.771  0.00  0.00    +0.000 A 
ATOM     10  H   UNL     1      -6.926  15.223  13.234  0.00  0.00    +0.000 HD
ENDROOT
TORSDOF 0
ENDMDL
MODEL 7
REMARK VINA RESULT:      -3.2     14.815     15.929
REMARK  Name = 67499_Pyrazolo.pdbqt.pdb
REMARK  0 active torsions:
REMARK  status: ('A' for Active; 'I' for Inactive)
REMARK                            x       y       z     vdW  Elec       q    Type
REMARK                         _______ _______ _______ _____ _____    ______ ____
ROOT
ATOM      1  N   UNL     1     -11.112   3.769  17.866  0.00  0.00    +0.000 N 
ATOM      2  N   UNL     1     -11.544   4.120  19.096  0.00  0.00    +0.000 NA
ATOM      3  N   UNL     1     -10.004   4.746  15.946  0.00  0.00    +0.000 NA
ATOM      4  N   UNL     1      -9.492   7.086  16.298  0.00  0.00    +0.000 NA
ATOM      5  C   UNL     1     -10.576   5.887  18.018  0.00  0.00    +0.000 A 
ATOM      6  C   UNL     1     -10.525   4.793  17.180  0.00  0.00    +0.000 A 
ATOM      7  C   UNL     1     -11.212   5.416  19.180  0.00  0.00    +0.000 A 
ATOM      8  C   UNL     1     -10.033   7.071  17.541  0.00  0.00    +0.000 A 
ATOM      9  C   UNL     1      -9.506   5.943  15.581  0.00  0.00    +0.000 A 
ATOM     10  H   UNL     1     -11.245   2.816  17.548  0.00  0.00    +0.000 HD
ENDROOT
TORSDOF 0
ENDMDL
MODEL 8
REMARK VINA RESULT:      -3.0     24.285     25.114
REMARK  Name = 67499_Pyrazolo.pdbqt.pdb
REMARK  0 active torsions:
REMARK  status: ('A' for Active; 'I' for Inactive)
REMARK                            x       y       z     vdW  Elec       q    Type
REMARK                         _______ _______ _______ _____ _____    ______ ____
ROOT
ATOM      1  N   UNL     1     -20.086   9.298  -0.464  0.00  0.00    +0.000 N 
ATOM      2  N   UNL     1     -20.505  10.135   0.509  0.00  0.00    +0.000 NA
ATOM      3  N   UNL     1     -18.131   8.006  -1.077  0.00  0.00    +0.000 NA
ATOM      4  N   UNL     1     -16.340   8.267   0.532  0.00  0.00    +0.000 NA
ATOM      5  C   UNL     1     -18.368   9.422   0.889  0.00  0.00    +0.000 A 
ATOM      6  C   UNL     1     -18.812   8.843  -0.282  0.00  0.00    +0.000 A 
ATOM      7  C   UNL     1     -19.449  10.205   1.331  0.00  0.00    +0.000 A 
ATOM      8  C   UNL     1     -17.079   9.109   1.296  0.00  0.00    +0.000 A 
ATOM      9  C   UNL     1     -16.896   7.770  -0.592  0.00  0.00    +0.000 A 
ATOM     10  H   UNL     1     -20.713   9.074  -1.228  0.00  0.00    +0.000 HD
ENDROOT
TORSDOF 0
ENDMDL
MODEL 9
REMARK VINA RESULT:      -2.9     23.852     25.425
REMARK  Name = 67499_Pyrazolo.pdbqt.pdb
REMARK  0 active torsions:
REMARK  status: ('A' for Active; 'I' for Inactive)
REMARK                            x       y       z     vdW  Elec       q    Type
REMARK                         _______ _______ _______ _____ _____    ______ ____
ROOT
ATOM      1  N   UNL     1       1.779   6.681  11.922  0.00  0.00    +0.000 N 
ATOM      2  N   UNL     1       0.458   6.705  12.199  0.00  0.00    +0.000 NA
ATOM      3  N   UNL     1       3.475   5.143  11.131  0.00  0.00    +0.000 NA
ATOM      4  N   UNL     1       2.559   2.946  10.683  0.00  0.00    +0.000 NA
ATOM      5  C   UNL     1       1.117   4.643  11.468  0.00  0.00    +0.000 A 
ATOM      6  C   UNL     1       2.222   5.467  11.481  0.00  0.00    +0.000 A 
ATOM      7  C   UNL     1       0.062   5.456  11.919  0.00  0.00    +0.000 A 
ATOM      8  C   UNL     1       1.312   3.334  11.050  0.00  0.00    +0.000 A 
ATOM      9  C   UNL     1       3.554   3.855  10.743  0.00  0.00    +0.000 A 
ATOM     10  H   UNL     1       2.328   7.522  12.053  0.00  0.00    +0.000 HD
ENDROOT
TORSDOF 0
ENDMDL
