MODEL 1
REMARK VINA RESULT:      -5.1      0.000      0.000
REMARK  Name = 71369791_5FluoroDione.pdbqt.pdb
REMARK  1 active torsions:
REMARK  status: ('A' for Active; 'I' for Inactive)
REMARK    1  A    between atoms: N_4  and  C_12
REMARK                            x       y       z     vdW  Elec       q    Type
REMARK                         _______ _______ _______ _____ _____    ______ ____
ROOT
ATOM      1  F   UNL     1     -21.217  17.071   8.909  0.00  0.00    +0.000 F 
ATOM      2  O   UNL     1     -23.964  13.049  11.345  0.00  0.00    +0.000 OA
ATOM      3  O   UNL     1     -22.568  17.417  11.375  0.00  0.00    +0.000 OA
ATOM      4  N   UNL     1     -22.887  13.830   9.392  0.00  0.00    +0.000 N 
ATOM      5  N   UNL     1     -23.312  15.241  11.238  0.00  0.00    +0.000 N 
ATOM      6  C   UNL     1     -22.335  14.932   8.847  0.00  0.00    +0.000 C 
ATOM      7  C   UNL     1     -22.186  16.240   9.325  0.00  0.00    +0.000 C 
ATOM      8  C   UNL     1     -23.434  13.941  10.691  0.00  0.00    +0.000 C 
ATOM      9  C   UNL     1     -22.694  16.389  10.721  0.00  0.00    +0.000 C 
ATOM     10  H   UNL     1     -23.660  15.330  12.183  0.00  0.00    +0.000 HD
ENDROOT
BRANCH   4  12
ATOM     11  O   UNL     1     -22.007  11.615   8.930  0.00  0.00    +0.000 OA
ATOM     12  C   UNL     1     -22.888  12.671   8.668  0.00  0.00    +0.000 C 
ATOM     13  C   UNL     1     -23.711  12.300   7.573  0.00  0.00    +0.000 C 
ATOM     14  C   UNL     1     -23.575  10.949   6.869  0.00  0.00    +0.000 C 
ATOM     15  C   UNL     1     -22.493  10.852   7.944  0.00  0.00    +0.000 C 
ENDBRANCH   4  12
TORSDOF 1
ENDMDL
MODEL 2
REMARK VINA RESULT:      -4.3      9.429     10.522
REMARK  Name = 71369791_5FluoroDione.pdbqt.pdb
REMARK  1 active torsions:
REMARK  status: ('A' for Active; 'I' for Inactive)
REMARK    1  A    between atoms: N_4  and  C_12
REMARK                            x       y       z     vdW  Elec       q    Type
REMARK                         _______ _______ _______ _____ _____    ______ ____
ROOT
ATOM      1  F   UNL     1     -26.898   7.389  19.008  0.00  0.00    +0.000 F 
ATOM      2  O   UNL     1     -23.703   9.229  14.999  0.00  0.00    +0.000 OA
ATOM      3  O   UNL     1     -27.749   9.356  17.155  0.00  0.00    +0.000 OA
ATOM      4  N   UNL     1     -23.870   8.002  17.012  0.00  0.00    +0.000 N 
ATOM      5  N   UNL     1     -25.659   9.306  16.188  0.00  0.00    +0.000 N 
ATOM      6  C   UNL     1     -24.720   7.712  18.016  0.00  0.00    +0.000 C 
ATOM      7  C   UNL     1     -26.036   8.114  18.276  0.00  0.00    +0.000 C 
ATOM      8  C   UNL     1     -24.328   8.864  15.990  0.00  0.00    +0.000 C 
ATOM      9  C   UNL     1     -26.585   8.977  17.188  0.00  0.00    +0.000 C 
ATOM     10  H   UNL     1     -26.019   9.890  15.446  0.00  0.00    +0.000 HD
ENDROOT
BRANCH   4  12
ATOM     11  O   UNL     1     -21.499   8.131  17.519  0.00  0.00    +0.000 OA
ATOM     12  C   UNL     1     -22.621   7.449  17.031  0.00  0.00    +0.000 C 
ATOM     13  C   UNL     1     -22.204   6.164  16.595  0.00  0.00    +0.000 C 
ATOM     14  C   UNL     1     -20.748   5.703  16.688  0.00  0.00    +0.000 C 
ATOM     15  C   UNL     1     -20.666   7.113  17.269  0.00  0.00    +0.000 C 
ENDBRANCH   4  12
TORSDOF 1
ENDMDL
MODEL 3
REMARK VINA RESULT:      -4.0     18.840     19.646
REMARK  Name = 71369791_5FluoroDione.pdbqt.pdb
REMARK  1 active torsions:
REMARK  status: ('A' for Active; 'I' for Inactive)
REMARK    1  A    between atoms: N_4  and  C_12
REMARK                            x       y       z     vdW  Elec       q    Type
REMARK                         _______ _______ _______ _____ _____    ______ ____
ROOT
ATOM      1  F   UNL     1      -6.522  19.484   1.231  0.00  0.00    +0.000 F 
ATOM      2  O   UNL     1      -5.797  14.092   0.995  0.00  0.00    +0.000 OA
ATOM      3  O   UNL     1      -7.853  17.844  -0.656  0.00  0.00    +0.000 OA
ATOM      4  N   UNL     1      -5.056  16.168   1.848  0.00  0.00    +0.000 N 
ATOM      5  N   UNL     1      -6.706  16.021   0.164  0.00  0.00    +0.000 N 
ATOM      6  C   UNL     1      -5.245  17.497   1.731  0.00  0.00    +0.000 C 
ATOM      7  C   UNL     1      -6.088  18.255   0.909  0.00  0.00    +0.000 C 
ATOM      8  C   UNL     1      -5.825  15.318   1.020  0.00  0.00    +0.000 C 
ATOM      9  C   UNL     1      -6.966  17.396   0.059  0.00  0.00    +0.000 C 
ATOM     10  H   UNL     1      -7.294  15.430  -0.406  0.00  0.00    +0.000 HD
ENDROOT
BRANCH   4  12
ATOM     11  O   UNL     1      -2.939  15.104   2.379  0.00  0.00    +0.000 OA
ATOM     12  C   UNL     1      -4.142  15.713   2.756  0.00  0.00    +0.000 C 
ATOM     13  C   UNL     1      -4.196  15.748   4.174  0.00  0.00    +0.000 C 
ATOM     14  C   UNL     1      -3.074  15.186   5.048  0.00  0.00    +0.000 C 
ATOM     15  C   UNL     1      -2.543  14.911   3.643  0.00  0.00    +0.000 C 
ENDBRANCH   4  12
TORSDOF 1
ENDMDL
MODEL 4
REMARK VINA RESULT:      -3.9     10.271     11.397
REMARK  Name = 71369791_5FluoroDione.pdbqt.pdb
REMARK  1 active torsions:
REMARK  status: ('A' for Active; 'I' for Inactive)
REMARK    1  A    between atoms: N_4  and  C_12
REMARK                            x       y       z     vdW  Elec       q    Type
REMARK                         _______ _______ _______ _____ _____    ______ ____
ROOT
ATOM      1  F   UNL     1     -25.878   8.068  16.470  0.00  0.00    +0.000 F 
ATOM      2  O   UNL     1     -22.474   4.121  14.892  0.00  0.00    +0.000 OA
ATOM      3  O   UNL     1     -26.178   6.680  14.019  0.00  0.00    +0.000 OA
ATOM      4  N   UNL     1     -22.909   5.901  16.386  0.00  0.00    +0.000 N 
ATOM      5  N   UNL     1     -24.252   5.504  14.484  0.00  0.00    +0.000 N 
ATOM      6  C   UNL     1     -23.757   6.924  16.607  0.00  0.00    +0.000 C 
ATOM      7  C   UNL     1     -24.873   7.385  15.899  0.00  0.00    +0.000 C 
ATOM      8  C   UNL     1     -23.131   5.095  15.246  0.00  0.00    +0.000 C 
ATOM      9  C   UNL     1     -25.185   6.526  14.718  0.00  0.00    +0.000 C 
ATOM     10  H   UNL     1     -24.453   4.915  13.688  0.00  0.00    +0.000 HD
ENDROOT
BRANCH   4  12
ATOM     11  O   UNL     1     -20.539   5.767  16.900  0.00  0.00    +0.000 OA
ATOM     12  C   UNL     1     -21.888   5.693  17.270  0.00  0.00    +0.000 C 
ATOM     13  C   UNL     1     -21.951   5.378  18.653  0.00  0.00    +0.000 C 
ATOM     14  C   UNL     1     -20.696   5.175  19.503  0.00  0.00    +0.000 C 
ATOM     15  C   UNL     1     -20.098   5.483  18.131  0.00  0.00    +0.000 C 
ENDBRANCH   4  12
TORSDOF 1
ENDMDL
MODEL 5
REMARK VINA RESULT:      -3.7     17.784     18.595
REMARK  Name = 71369791_5FluoroDione.pdbqt.pdb
REMARK  1 active torsions:
REMARK  status: ('A' for Active; 'I' for Inactive)
REMARK    1  A    between atoms: N_4  and  C_12
REMARK                            x       y       z     vdW  Elec       q    Type
REMARK                         _______ _______ _______ _____ _____    ______ ____
ROOT
ATOM      1  F   UNL     1      -9.361   7.902  16.969  0.00  0.00    +0.000 F 
ATOM      2  O   UNL     1     -10.133   2.680  18.311  0.00  0.00    +0.000 OA
ATOM      3  O   UNL     1     -11.649   7.008  18.381  0.00  0.00    +0.000 OA
ATOM      4  N   UNL     1      -8.907   4.253  17.042  0.00  0.00    +0.000 N 
ATOM      5  N   UNL     1     -10.868   4.847  18.217  0.00  0.00    +0.000 N 
ATOM      6  C   UNL     1      -8.890   5.551  16.682  0.00  0.00    +0.000 C 
ATOM      7  C   UNL     1      -9.750   6.616  16.975  0.00  0.00    +0.000 C 
ATOM      8  C   UNL     1      -9.960   3.815  17.877  0.00  0.00    +0.000 C 
ATOM      9  C   UNL     1     -10.845   6.214  17.907  0.00  0.00    +0.000 C 
ATOM     10  H   UNL     1     -11.605   4.563  18.847  0.00  0.00    +0.000 HD
ENDROOT
BRANCH   4  12
ATOM     11  O   UNL     1      -7.600   2.213  17.199  0.00  0.00    +0.000 OA
ATOM     12  C   UNL     1      -7.912   3.434  16.588  0.00  0.00    +0.000 C 
ATOM     13  C   UNL     1      -7.036   3.616  15.486  0.00  0.00    +0.000 C 
ATOM     14  C   UNL     1      -5.965   2.588  15.116  0.00  0.00    +0.000 C 
ATOM     15  C   UNL     1      -6.615   1.937  16.336  0.00  0.00    +0.000 C 
ENDBRANCH   4  12
TORSDOF 1
ENDMDL
MODEL 6
REMARK VINA RESULT:      -3.7      2.921      4.376
REMARK  Name = 71369791_5FluoroDione.pdbqt.pdb
REMARK  1 active torsions:
REMARK  status: ('A' for Active; 'I' for Inactive)
REMARK    1  A    between atoms: N_4  and  C_12
REMARK                            x       y       z     vdW  Elec       q    Type
REMARK                         _______ _______ _______ _____ _____    ______ ____
ROOT
ATOM      1  F   UNL     1     -26.648  16.942   7.930  0.00  0.00    +0.000 F 
ATOM      2  O   UNL     1     -24.305  13.280  11.210  0.00  0.00    +0.000 OA
ATOM      3  O   UNL     1     -27.993  14.618   8.835  0.00  0.00    +0.000 OA
ATOM      4  N   UNL     1     -24.031  15.153   9.796  0.00  0.00    +0.000 N 
ATOM      5  N   UNL     1     -26.069  13.964   9.921  0.00  0.00    +0.000 N 
ATOM      6  C   UNL     1     -24.689  15.922   8.906  0.00  0.00    +0.000 C 
ATOM      7  C   UNL     1     -25.996  15.868   8.407  0.00  0.00    +0.000 C 
ATOM      8  C   UNL     1     -24.733  14.074  10.380  0.00  0.00    +0.000 C 
ATOM      9  C   UNL     1     -26.796  14.781   9.043  0.00  0.00    +0.000 C 
ATOM     10  H   UNL     1     -26.600  13.225  10.358  0.00  0.00    +0.000 HD
ENDROOT
BRANCH   4  12
ATOM     11  O   UNL     1     -22.373  16.440  11.018  0.00  0.00    +0.000 OA
ATOM     12  C   UNL     1     -22.731  15.455  10.089  0.00  0.00    +0.000 C 
ATOM     13  C   UNL     1     -21.540  14.889   9.562  0.00  0.00    +0.000 C 
ATOM     14  C   UNL     1     -20.151  15.353  10.004  0.00  0.00    +0.000 C 
ATOM     15  C   UNL     1     -21.061  16.248  10.843  0.00  0.00    +0.000 C 
ENDBRANCH   4  12
TORSDOF 1
ENDMDL
MODEL 7
REMARK VINA RESULT:      -3.7     14.807     16.391
REMARK  Name = 71369791_5FluoroDione.pdbqt.pdb
REMARK  1 active torsions:
REMARK  status: ('A' for Active; 'I' for Inactive)
REMARK    1  A    between atoms: N_4  and  C_12
REMARK                            x       y       z     vdW  Elec       q    Type
REMARK                         _______ _______ _______ _____ _____    ______ ____
ROOT
ATOM      1  F   UNL     1     -25.533  11.542  26.115  0.00  0.00    +0.000 F 
ATOM      2  O   UNL     1     -25.612  16.986  25.969  0.00  0.00    +0.000 OA
ATOM      3  O   UNL     1     -24.207  13.143  28.041  0.00  0.00    +0.000 OA
ATOM      4  N   UNL     1     -26.054  14.954  24.845  0.00  0.00    +0.000 N 
ATOM      5  N   UNL     1     -24.869  15.025  26.887  0.00  0.00    +0.000 N 
ATOM      6  C   UNL     1     -25.868  13.623  24.937  0.00  0.00    +0.000 C 
ATOM      7  C   UNL     1     -25.224  12.831  25.895  0.00  0.00    +0.000 C 
ATOM      8  C   UNL     1     -25.532  15.765  25.879  0.00  0.00    +0.000 C 
ATOM      9  C   UNL     1     -24.710  13.640  27.040  0.00  0.00    +0.000 C 
ATOM     10  H   UNL     1     -24.525  15.583  27.656  0.00  0.00    +0.000 HD
ENDROOT
BRANCH   4  12
ATOM     11  O   UNL     1     -26.152  15.591  22.504  0.00  0.00    +0.000 OA
ATOM     12  C   UNL     1     -26.735  15.448  23.769  0.00  0.00    +0.000 C 
ATOM     13  C   UNL     1     -28.080  15.896  23.689  0.00  0.00    +0.000 C 
ATOM     14  C   UNL     1     -28.689  16.427  22.390  0.00  0.00    +0.000 C 
ATOM     15  C   UNL     1     -27.265  16.088  21.952  0.00  0.00    +0.000 C 
ENDBRANCH   4  12
TORSDOF 1
ENDMDL
MODEL 8
REMARK VINA RESULT:      -3.7     20.390     21.201
REMARK  Name = 71369791_5FluoroDione.pdbqt.pdb
REMARK  1 active torsions:
REMARK  status: ('A' for Active; 'I' for Inactive)
REMARK    1  A    between atoms: N_4  and  C_12
REMARK                            x       y       z     vdW  Elec       q    Type
REMARK                         _______ _______ _______ _____ _____    ______ ____
ROOT
ATOM      1  F   UNL     1      -4.156  15.931  -1.279  0.00  0.00    +0.000 F 
ATOM      2  O   UNL     1      -4.641  15.207   4.097  0.00  0.00    +0.000 OA
ATOM      3  O   UNL     1      -6.668  15.770   0.022  0.00  0.00    +0.000 OA
ATOM      4  N   UNL     1      -3.232  15.175   2.200  0.00  0.00    +0.000 N 
ATOM      5  N   UNL     1      -5.577  15.393   2.016  0.00  0.00    +0.000 N 
ATOM      6  C   UNL     1      -3.254  15.250   0.855  0.00  0.00    +0.000 C 
ATOM      7  C   UNL     1      -4.305  15.388  -0.059  0.00  0.00    +0.000 C 
ATOM      8  C   UNL     1      -4.467  15.248   2.884  0.00  0.00    +0.000 C 
ATOM      9  C   UNL     1      -5.627  15.532   0.621  0.00  0.00    +0.000 C 
ATOM     10  H   UNL     1      -6.465  15.489   2.488  0.00  0.00    +0.000 HD
ENDROOT
BRANCH   4  12
ATOM     11  O   UNL     1      -1.284  13.851   2.791  0.00  0.00    +0.000 OA
ATOM     12  C   UNL     1      -2.027  15.037   2.829  0.00  0.00    +0.000 C 
ATOM     13  C   UNL     1      -1.310  15.985   3.606  0.00  0.00    +0.000 C 
ATOM     14  C   UNL     1       0.040  15.659   4.248  0.00  0.00    +0.000 C 
ATOM     15  C   UNL     1      -0.296  14.345   3.545  0.00  0.00    +0.000 C 
ENDBRANCH   4  12
TORSDOF 1
ENDMDL
MODEL 9
REMARK VINA RESULT:      -3.5     16.548     18.185
REMARK  Name = 71369791_5FluoroDione.pdbqt.pdb
REMARK  1 active torsions:
REMARK  status: ('A' for Active; 'I' for Inactive)
REMARK    1  A    between atoms: N_4  and  C_12
REMARK                            x       y       z     vdW  Elec       q    Type
REMARK                         _______ _______ _______ _____ _____    ______ ____
ROOT
ATOM      1  F   UNL     1     -12.159  20.848  26.718  0.00  0.00    +0.000 F 
ATOM      2  O   UNL     1     -15.817  17.914  23.947  0.00  0.00    +0.000 OA
ATOM      3  O   UNL     1     -14.601  19.975  27.860  0.00  0.00    +0.000 OA
ATOM      4  N   UNL     1     -13.867  19.248  23.880  0.00  0.00    +0.000 N 
ATOM      5  N   UNL     1     -15.184  19.051  25.831  0.00  0.00    +0.000 N 
ATOM      6  C   UNL     1     -13.100  20.053  24.641  0.00  0.00    +0.000 C 
ATOM      7  C   UNL     1     -13.212  20.469  25.973  0.00  0.00    +0.000 C 
ATOM      8  C   UNL     1     -15.013  18.674  24.477  0.00  0.00    +0.000 C 
ATOM      9  C   UNL     1     -14.375  19.838  26.663  0.00  0.00    +0.000 C 
ATOM     10  H   UNL     1     -15.975  18.618  26.288  0.00  0.00    +0.000 HD
ENDROOT
BRANCH   4  12
ATOM     11  O   UNL     1     -14.140  19.635  21.499  0.00  0.00    +0.000 OA
ATOM     12  C   UNL     1     -13.499  19.025  22.584  0.00  0.00    +0.000 C 
ATOM     13  C   UNL     1     -12.468  18.190  22.077  0.00  0.00    +0.000 C 
ATOM     14  C   UNL     1     -12.190  18.054  20.579  0.00  0.00    +0.000 C 
ATOM     15  C   UNL     1     -13.359  19.037  20.591  0.00  0.00    +0.000 C 
ENDBRANCH   4  12
TORSDOF 1
ENDMDL
