MODEL 1
REMARK VINA RESULT:      -3.0      0.000      0.000
REMARK  Name = 7288_3Pentanone.pdbqt.pdb
REMARK  2 active torsions:
REMARK  status: ('A' for Active; 'I' for Inactive)
REMARK    1  A    between atoms: C_2  and  C_3
REMARK    2  A    between atoms: C_2  and  C_5
REMARK                            x       y       z     vdW  Elec       q    Type
REMARK                         _______ _______ _______ _____ _____    ______ ____
ROOT
ATOM      1  O   UNL     1     -21.544  10.148   8.481  0.00  0.00    +0.000 OA
ATOM      2  C   UNL     1     -22.589  10.448   7.917  0.00  0.00    +0.000 C 
ENDROOT
BRANCH   2   3
ATOM      3  C   UNL     1     -23.142  11.776   8.036  0.00  0.00    +0.000 C 
ATOM      4  C   UNL     1     -23.730  13.193   8.189  0.00  0.00    +0.000 C 
ENDBRANCH   2   3
BRANCH   2   5
ATOM      5  C   UNL     1     -23.301   9.482   7.114  0.00  0.00    +0.000 C 
ATOM      6  C   UNL     1     -24.082   8.460   6.263  0.00  0.00    +0.000 C 
ENDBRANCH   2   5
TORSDOF 2
ENDMDL
MODEL 2
REMARK VINA RESULT:      -3.0     11.334     11.769
REMARK  Name = 7288_3Pentanone.pdbqt.pdb
REMARK  2 active torsions:
REMARK  status: ('A' for Active; 'I' for Inactive)
REMARK    1  A    between atoms: C_2  and  C_3
REMARK    2  A    between atoms: C_2  and  C_5
REMARK                            x       y       z     vdW  Elec       q    Type
REMARK                         _______ _______ _______ _____ _____    ______ ____
ROOT
ATOM      1  O   UNL     1     -14.878   9.880  -1.792  0.00  0.00    +0.000 OA
ATOM      2  C   UNL     1     -15.180   8.927  -1.085  0.00  0.00    +0.000 C 
ENDROOT
BRANCH   2   3
ATOM      3  C   UNL     1     -15.614   9.124   0.278  0.00  0.00    +0.000 C 
ATOM      4  C   UNL     1     -16.101   9.331   1.726  0.00  0.00    +0.000 C 
ENDBRANCH   2   3
BRANCH   2   5
ATOM      5  C   UNL     1     -15.113   7.577  -1.592  0.00  0.00    +0.000 C 
ATOM      6  C   UNL     1     -15.028   6.129  -2.114  0.00  0.00    +0.000 C 
ENDBRANCH   2   5
TORSDOF 2
ENDMDL
MODEL 3
REMARK VINA RESULT:      -3.0     12.040     12.468
REMARK  Name = 7288_3Pentanone.pdbqt.pdb
REMARK  2 active torsions:
REMARK  status: ('A' for Active; 'I' for Inactive)
REMARK    1  A    between atoms: C_2  and  C_3
REMARK    2  A    between atoms: C_2  and  C_5
REMARK                            x       y       z     vdW  Elec       q    Type
REMARK                         _______ _______ _______ _____ _____    ______ ____
ROOT
ATOM      1  O   UNL     1     -15.141   7.712  -2.109  0.00  0.00    +0.000 OA
ATOM      2  C   UNL     1     -15.138   8.864  -1.693  0.00  0.00    +0.000 C 
ENDROOT
BRANCH   2   3
ATOM      3  C   UNL     1     -14.896   9.974  -2.584  0.00  0.00    +0.000 C 
ATOM      4  C   UNL     1     -14.645  11.174  -3.518  0.00  0.00    +0.000 C 
ENDBRANCH   2   3
BRANCH   2   5
ATOM      5  C   UNL     1     -15.376   9.148  -0.297  0.00  0.00    +0.000 C 
ATOM      6  C   UNL     1     -15.652   9.457   1.188  0.00  0.00    +0.000 C 
ENDBRANCH   2   5
TORSDOF 2
ENDMDL
MODEL 4
REMARK VINA RESULT:      -2.7     10.006     10.623
REMARK  Name = 7288_3Pentanone.pdbqt.pdb
REMARK  2 active torsions:
REMARK  status: ('A' for Active; 'I' for Inactive)
REMARK    1  A    between atoms: C_2  and  C_3
REMARK    2  A    between atoms: C_2  and  C_5
REMARK                            x       y       z     vdW  Elec       q    Type
REMARK                         _______ _______ _______ _____ _____    ______ ____
ROOT
ATOM      1  O   UNL     1     -16.479   7.819  -1.763  0.00  0.00    +0.000 OA
ATOM      2  C   UNL     1     -16.679   7.478  -0.603  0.00  0.00    +0.000 C 
ENDROOT
BRANCH   2   3
ATOM      3  C   UNL     1     -16.404   8.379   0.491  0.00  0.00    +0.000 C 
ATOM      4  C   UNL     1     -16.129   9.354   1.653  0.00  0.00    +0.000 C 
ENDBRANCH   2   3
BRANCH   2   5
ATOM      5  C   UNL     1     -17.195   6.166  -0.295  0.00  0.00    +0.000 C 
ATOM      6  C   UNL     1     -17.732   4.763   0.054  0.00  0.00    +0.000 C 
ENDBRANCH   2   5
TORSDOF 2
ENDMDL
MODEL 5
REMARK VINA RESULT:      -2.6     10.783     11.574
REMARK  Name = 7288_3Pentanone.pdbqt.pdb
REMARK  2 active torsions:
REMARK  status: ('A' for Active; 'I' for Inactive)
REMARK    1  A    between atoms: C_2  and  C_3
REMARK    2  A    between atoms: C_2  and  C_5
REMARK                            x       y       z     vdW  Elec       q    Type
REMARK                         _______ _______ _______ _____ _____    ______ ____
ROOT
ATOM      1  O   UNL     1     -20.759   5.468  16.314  0.00  0.00    +0.000 OA
ATOM      2  C   UNL     1     -20.523   6.220  17.253  0.00  0.00    +0.000 C 
ENDROOT
BRANCH   2   3
ATOM      3  C   UNL     1     -19.923   5.721  18.468  0.00  0.00    +0.000 C 
ATOM      4  C   UNL     1     -19.264   5.180  19.752  0.00  0.00    +0.000 C 
ENDBRANCH   2   3
BRANCH   2   5
ATOM      5  C   UNL     1     -20.837   7.626  17.173  0.00  0.00    +0.000 C 
ATOM      6  C   UNL     1     -21.194   9.125  17.100  0.00  0.00    +0.000 C 
ENDBRANCH   2   5
TORSDOF 2
ENDMDL
MODEL 6
REMARK VINA RESULT:      -2.5     10.990     11.546
REMARK  Name = 7288_3Pentanone.pdbqt.pdb
REMARK  2 active torsions:
REMARK  status: ('A' for Active; 'I' for Inactive)
REMARK    1  A    between atoms: C_2  and  C_3
REMARK    2  A    between atoms: C_2  and  C_5
REMARK                            x       y       z     vdW  Elec       q    Type
REMARK                         _______ _______ _______ _____ _____    ______ ____
ROOT
ATOM      1  O   UNL     1     -22.328   6.469  18.187  0.00  0.00    +0.000 OA
ATOM      2  C   UNL     1     -21.119   6.569  18.021  0.00  0.00    +0.000 C 
ENDROOT
BRANCH   2   3
ATOM      3  C   UNL     1     -20.565   7.648  17.237  0.00  0.00    +0.000 C 
ATOM      4  C   UNL     1     -19.955   8.801  16.416  0.00  0.00    +0.000 C 
ENDBRANCH   2   3
BRANCH   2   5
ATOM      5  C   UNL     1     -20.209   5.612  18.604  0.00  0.00    +0.000 C 
ATOM      6  C   UNL     1     -19.231   4.582  19.204  0.00  0.00    +0.000 C 
ENDBRANCH   2   5
TORSDOF 2
ENDMDL
MODEL 7
REMARK VINA RESULT:      -2.5     25.161     25.897
REMARK  Name = 7288_3Pentanone.pdbqt.pdb
REMARK  2 active torsions:
REMARK  status: ('A' for Active; 'I' for Inactive)
REMARK    1  A    between atoms: C_2  and  C_3
REMARK    2  A    between atoms: C_2  and  C_5
REMARK                            x       y       z     vdW  Elec       q    Type
REMARK                         _______ _______ _______ _____ _____    ______ ____
ROOT
ATOM      1  O   UNL     1       1.953   7.877   2.387  0.00  0.00    +0.000 OA
ATOM      2  C   UNL     1       2.066   7.334   3.479  0.00  0.00    +0.000 C 
ENDROOT
BRANCH   2   3
ATOM      3  C   UNL     1       1.014   6.493   4.000  0.00  0.00    +0.000 C 
ATOM      4  C   UNL     1      -0.120   5.596   4.535  0.00  0.00    +0.000 C 
ENDBRANCH   2   3
BRANCH   2   5
ATOM      5  C   UNL     1       3.253   7.517   4.279  0.00  0.00    +0.000 C 
ATOM      6  C   UNL     1       4.508   7.723   5.151  0.00  0.00    +0.000 C 
ENDBRANCH   2   5
TORSDOF 2
ENDMDL
MODEL 8
REMARK VINA RESULT:      -2.4     17.865     17.970
REMARK  Name = 7288_3Pentanone.pdbqt.pdb
REMARK  2 active torsions:
REMARK  status: ('A' for Active; 'I' for Inactive)
REMARK    1  A    between atoms: C_2  and  C_3
REMARK    2  A    between atoms: C_2  and  C_5
REMARK                            x       y       z     vdW  Elec       q    Type
REMARK                         _______ _______ _______ _____ _____    ______ ____
ROOT
ATOM      1  O   UNL     1      -9.475  -0.754   3.565  0.00  0.00    +0.000 OA
ATOM      2  C   UNL     1      -9.044   0.345   3.237  0.00  0.00    +0.000 C 
ENDROOT
BRANCH   2   3
ATOM      3  C   UNL     1      -8.231   1.122   4.143  0.00  0.00    +0.000 C 
ATOM      4  C   UNL     1      -7.347   1.934   5.109  0.00  0.00    +0.000 C 
ENDBRANCH   2   3
BRANCH   2   5
ATOM      5  C   UNL     1      -9.335   0.897   1.935  0.00  0.00    +0.000 C 
ATOM      6  C   UNL     1      -9.644   1.465   0.535  0.00  0.00    +0.000 C 
ENDBRANCH   2   5
TORSDOF 2
ENDMDL
MODEL 9
REMARK VINA RESULT:      -2.4     11.421     11.838
REMARK  Name = 7288_3Pentanone.pdbqt.pdb
REMARK  2 active torsions:
REMARK  status: ('A' for Active; 'I' for Inactive)
REMARK    1  A    between atoms: C_2  and  C_3
REMARK    2  A    between atoms: C_2  and  C_5
REMARK                            x       y       z     vdW  Elec       q    Type
REMARK                         _______ _______ _______ _____ _____    ______ ____
ROOT
ATOM      1  O   UNL     1     -14.935   8.010  -2.710  0.00  0.00    +0.000 OA
ATOM      2  C   UNL     1     -15.443   8.431  -1.678  0.00  0.00    +0.000 C 
ENDROOT
BRANCH   2   3
ATOM      3  C   UNL     1     -15.191   9.777  -1.223  0.00  0.00    +0.000 C 
ATOM      4  C   UNL     1     -14.919  11.206  -0.714  0.00  0.00    +0.000 C 
ENDBRANCH   2   3
BRANCH   2   5
ATOM      5  C   UNL     1     -16.310   7.592  -0.884  0.00  0.00    +0.000 C 
ATOM      6  C   UNL     1     -17.221   6.678  -0.039  0.00  0.00    +0.000 C 
ENDBRANCH   2   5
TORSDOF 2
ENDMDL
