MODEL 1
REMARK VINA RESULT:      -6.5      0.000      0.000
REMARK  Name = 73299_Hederagenin.pdbqt.pdb
REMARK  5 active torsions:
REMARK  status: ('A' for Active; 'I' for Inactive)
REMARK    1  A    between atoms: C_9  and  C_35
REMARK    2  A    between atoms: C_14  and  C_32
REMARK    3  A    between atoms: C_17  and  O_29
REMARK    4  A    between atoms: C_32  and  O_33
REMARK    5  A    between atoms: C_35  and  O_36
REMARK                            x       y       z     vdW  Elec       q    Type
REMARK                         _______ _______ _______ _____ _____    ______ ____
ROOT
ATOM      1  C   UNL     1      -8.258   5.813  18.755  0.00  0.00    +0.000 C 
ATOM      2  C   UNL     1      -9.773   5.360  18.636  0.00  0.00    +0.000 C 
ATOM      3  C   UNL     1     -10.890   5.905  19.533  0.00  0.00    +0.000 C 
ATOM      4  C   UNL     1      -7.210   4.543  18.573  0.00  0.00    +0.000 C 
ATOM      5  C   UNL     1     -10.509   6.264  20.998  0.00  0.00    +0.000 C 
ATOM      6  C   UNL     1      -8.136   6.414  20.088  0.00  0.00    +0.000 C 
ATOM      7  C   UNL     1      -9.147   6.642  21.162  0.00  0.00    +0.000 C 
ATOM      8  C   UNL     1      -7.561   3.640  17.269  0.00  0.00    +0.000 C 
ATOM      9  C   UNL     1     -11.426   5.977  22.200  0.00  0.00    +0.000 C 
ATOM     10  C   UNL     1      -6.559   3.086  16.332  0.00  0.00    +0.000 C 
ATOM     11  C   UNL     1      -9.956   4.331  17.659  0.00  0.00    +0.000 C 
ATOM     12  C   UNL     1     -11.957   4.916  19.649  0.00  0.00    +0.000 C 
ATOM     13  C   UNL     1      -5.815   4.961  18.340  0.00  0.00    +0.000 C 
ATOM     14  C   UNL     1      -5.115   3.821  16.018  0.00  0.00    +0.000 C 
ATOM     15  C   UNL     1      -8.024   6.914  17.642  0.00  0.00    +0.000 C 
ATOM     16  C   UNL     1      -4.862   4.619  17.218  0.00  0.00    +0.000 C 
ATOM     17  C   UNL     1     -12.760   5.227  21.941  0.00  0.00    +0.000 C 
ATOM     18  C   UNL     1      -8.836   3.557  17.023  0.00  0.00    +0.000 C 
ATOM     19  C   UNL     1     -11.436   7.196  18.869  0.00  0.00    +0.000 C 
ATOM     20  C   UNL     1     -12.908   4.527  20.731  0.00  0.00    +0.000 C 
ATOM     21  C   UNL     1      -7.267   3.536  19.802  0.00  0.00    +0.000 C 
ATOM     22  C   UNL     1      -6.573   1.644  16.086  0.00  0.00    +0.000 C 
ATOM     23  C   UNL     1      -4.177   2.690  15.783  0.00  0.00    +0.000 C 
ATOM     24  C   UNL     1      -5.719   0.438  15.765  0.00  0.00    +0.000 C 
ATOM     25  C   UNL     1     -11.766   7.330  22.906  0.00  0.00    +0.000 C 
ATOM     26  C   UNL     1      -4.414   1.164  15.644  0.00  0.00    +0.000 C 
ATOM     27  C   UNL     1      -5.711  -0.564  16.934  0.00  0.00    +0.000 C 
ATOM     28  C   UNL     1      -6.141  -0.213  14.437  0.00  0.00    +0.000 C 
ENDROOT
BRANCH  17  29
ATOM     29  O   UNL     1     -13.884   5.480  22.710  0.00  0.00    +0.000 OA
ATOM     30  H   UNL     1     -13.632   5.791  23.604  0.00  0.00    +0.000 HD
ENDBRANCH  17  29
BRANCH  14  32
ATOM     31  O   UNL     1      -4.577   5.591  14.392  0.00  0.00    +0.000 OA
ATOM     32  C   UNL     1      -5.291   4.663  14.748  0.00  0.00    +0.000 C 
BRANCH  32  33
ATOM     33  O   UNL     1      -6.389   4.355  14.023  0.00  0.00    +0.000 OA
ATOM     34  H   UNL     1      -6.938   3.797  14.615  0.00  0.00    +0.000 HD
ENDBRANCH  32  33
ENDBRANCH  14  32
BRANCH   9  35
ATOM     35  C   UNL     1     -10.666   5.102  23.149  0.00  0.00    +0.000 C 
BRANCH  35  36
ATOM     36  O   UNL     1     -10.002   4.315  23.999  0.00  0.00    +0.000 OA
ATOM     37  H   UNL     1     -10.427   4.307  24.876  0.00  0.00    +0.000 HD
ENDBRANCH  35  36
ENDBRANCH   9  35
TORSDOF 5
ENDMDL
MODEL 2
REMARK VINA RESULT:      -5.8      5.077      7.073
REMARK  Name = 73299_Hederagenin.pdbqt.pdb
REMARK  5 active torsions:
REMARK  status: ('A' for Active; 'I' for Inactive)
REMARK    1  A    between atoms: C_9  and  C_35
REMARK    2  A    between atoms: C_14  and  C_32
REMARK    3  A    between atoms: C_17  and  O_29
REMARK    4  A    between atoms: C_32  and  O_33
REMARK    5  A    between atoms: C_35  and  O_36
REMARK                            x       y       z     vdW  Elec       q    Type
REMARK                         _______ _______ _______ _____ _____    ______ ____
ROOT
ATOM      1  C   UNL     1      -4.784   9.345  18.039  0.00  0.00    +0.000 C 
ATOM      2  C   UNL     1      -5.458  10.658  17.458  0.00  0.00    +0.000 C 
ATOM      3  C   UNL     1      -5.106  12.070  17.937  0.00  0.00    +0.000 C 
ATOM      4  C   UNL     1      -5.876   8.116  18.237  0.00  0.00    +0.000 C 
ATOM      5  C   UNL     1      -4.722  12.234  19.437  0.00  0.00    +0.000 C 
ATOM      6  C   UNL     1      -4.197   9.745  19.323  0.00  0.00    +0.000 C 
ATOM      7  C   UNL     1      -4.145  11.067  20.012  0.00  0.00    +0.000 C 
ATOM      8  C   UNL     1      -6.796   7.894  16.917  0.00  0.00    +0.000 C 
ATOM      9  C   UNL     1      -5.168  13.431  20.293  0.00  0.00    +0.000 C 
ATOM     10  C   UNL     1      -7.174   6.575  16.364  0.00  0.00    +0.000 C 
ATOM     11  C   UNL     1      -6.484  10.364  16.505  0.00  0.00    +0.000 C 
ATOM     12  C   UNL     1      -6.247  12.958  17.738  0.00  0.00    +0.000 C 
ATOM     13  C   UNL     1      -5.248   6.799  18.446  0.00  0.00    +0.000 C 
ATOM     14  C   UNL     1      -6.223   5.234  16.503  0.00  0.00    +0.000 C 
ATOM     15  C   UNL     1      -3.638   8.936  17.026  0.00  0.00    +0.000 C 
ATOM     16  C   UNL     1      -5.419   5.498  17.696  0.00  0.00    +0.000 C 
ATOM     17  C   UNL     1      -6.105  14.486  19.646  0.00  0.00    +0.000 C 
ATOM     18  C   UNL     1      -7.067   8.997  16.281  0.00  0.00    +0.000 C 
ATOM     19  C   UNL     1      -3.900  12.563  17.096  0.00  0.00    +0.000 C 
ATOM     20  C   UNL     1      -6.797  14.135  18.474  0.00  0.00    +0.000 C 
ATOM     21  C   UNL     1      -6.904   8.410  19.414  0.00  0.00    +0.000 C 
ATOM     22  C   UNL     1      -8.597   6.294  16.170  0.00  0.00    +0.000 C 
ATOM     23  C   UNL     1      -7.194   4.112  16.612  0.00  0.00    +0.000 C 
ATOM     24  C   UNL     1      -9.653   5.213  16.173  0.00  0.00    +0.000 C 
ATOM     25  C   UNL     1      -3.895  14.177  20.814  0.00  0.00    +0.000 C 
ATOM     26  C   UNL     1      -8.736   4.061  16.450  0.00  0.00    +0.000 C 
ATOM     27  C   UNL     1     -10.665   5.427  17.313  0.00  0.00    +0.000 C 
ATOM     28  C   UNL     1     -10.335   5.087  14.799  0.00  0.00    +0.000 C 
ENDROOT
BRANCH  17  29
ATOM     29  O   UNL     1      -6.041  15.821  20.010  0.00  0.00    +0.000 OA
ATOM     30  H   UNL     1      -5.501  15.936  20.820  0.00  0.00    +0.000 HD
ENDBRANCH  17  29
BRANCH  14  32
ATOM     31  O   UNL     1      -4.224   5.453  15.081  0.00  0.00    +0.000 OA
ATOM     32  C   UNL     1      -5.393   5.120  15.218  0.00  0.00    +0.000 C 
BRANCH  32  33
ATOM     33  O   UNL     1      -6.083   4.666  14.148  0.00  0.00    +0.000 OA
ATOM     34  H   UNL     1      -5.719   3.773  13.969  0.00  0.00    +0.000 HD
ENDBRANCH  32  33
ENDBRANCH  14  32
BRANCH   9  35
ATOM     35  C   UNL     1      -5.935  12.892  21.460  0.00  0.00    +0.000 C 
BRANCH  35  36
ATOM     36  O   UNL     1      -6.632  12.418  22.496  0.00  0.00    +0.000 OA
ATOM     37  H   UNL     1      -6.542  11.450  22.567  0.00  0.00    +0.000 HD
ENDBRANCH  35  36
ENDBRANCH   9  35
TORSDOF 5
ENDMDL
MODEL 3
REMARK VINA RESULT:      -5.8     19.352     22.048
REMARK  Name = 73299_Hederagenin.pdbqt.pdb
REMARK  5 active torsions:
REMARK  status: ('A' for Active; 'I' for Inactive)
REMARK    1  A    between atoms: C_9  and  C_35
REMARK    2  A    between atoms: C_14  and  C_32
REMARK    3  A    between atoms: C_17  and  O_29
REMARK    4  A    between atoms: C_32  and  O_33
REMARK    5  A    between atoms: C_35  and  O_36
REMARK                            x       y       z     vdW  Elec       q    Type
REMARK                         _______ _______ _______ _____ _____    ______ ____
ROOT
ATOM      1  C   UNL     1     -23.593  16.226  10.640  0.00  0.00    +0.000 C 
ATOM      2  C   UNL     1     -22.595  17.408  10.291  0.00  0.00    +0.000 C 
ATOM      3  C   UNL     1     -22.464  18.679  11.136  0.00  0.00    +0.000 C 
ATOM      4  C   UNL     1     -24.326  15.607   9.290  0.00  0.00    +0.000 C 
ATOM      5  C   UNL     1     -23.752  19.201  11.836  0.00  0.00    +0.000 C 
ATOM      6  C   UNL     1     -24.579  16.808  11.558  0.00  0.00    +0.000 C 
ATOM      7  C   UNL     1     -24.696  18.179  12.137  0.00  0.00    +0.000 C 
ATOM      8  C   UNL     1     -23.260  15.284   8.107  0.00  0.00    +0.000 C 
ATOM      9  C   UNL     1     -24.104  20.694  11.945  0.00  0.00    +0.000 C 
ATOM     10  C   UNL     1     -23.289  14.078   7.251  0.00  0.00    +0.000 C 
ATOM     11  C   UNL     1     -21.902  17.185   9.059  0.00  0.00    +0.000 C 
ATOM     12  C   UNL     1     -22.013  19.785  10.298  0.00  0.00    +0.000 C 
ATOM     13  C   UNL     1     -24.988  14.309   9.522  0.00  0.00    +0.000 C 
ATOM     14  C   UNL     1     -23.874  12.622   7.764  0.00  0.00    +0.000 C 
ATOM     15  C   UNL     1     -22.744  15.120  11.390  0.00  0.00    +0.000 C 
ATOM     16  C   UNL     1     -24.815  12.979   8.826  0.00  0.00    +0.000 C 
ATOM     17  C   UNL     1     -23.164  21.721  11.260  0.00  0.00    +0.000 C 
ATOM     18  C   UNL     1     -22.266  16.122   8.061  0.00  0.00    +0.000 C 
ATOM     19  C   UNL     1     -21.419  18.398  12.246  0.00  0.00    +0.000 C 
ATOM     20  C   UNL     1     -22.269  21.255  10.280  0.00  0.00    +0.000 C 
ATOM     21  C   UNL     1     -25.363  16.627   8.647  0.00  0.00    +0.000 C 
ATOM     22  C   UNL     1     -23.316  14.266   5.800  0.00  0.00    +0.000 C 
ATOM     23  C   UNL     1     -24.475  12.023   6.542  0.00  0.00    +0.000 C 
ATOM     24  C   UNL     1     -23.809  13.695   4.490  0.00  0.00    +0.000 C 
ATOM     25  C   UNL     1     -24.208  21.075  13.459  0.00  0.00    +0.000 C 
ATOM     26  C   UNL     1     -24.450  12.464   5.056  0.00  0.00    +0.000 C 
ATOM     27  C   UNL     1     -24.842  14.628   3.832  0.00  0.00    +0.000 C 
ATOM     28  C   UNL     1     -22.641  13.355   3.548  0.00  0.00    +0.000 C 
ENDROOT
BRANCH  17  29
ATOM     29  O   UNL     1     -22.976  22.986  11.791  0.00  0.00    +0.000 OA
ATOM     30  H   UNL     1     -23.238  23.010  12.735  0.00  0.00    +0.000 HD
ENDBRANCH  17  29
BRANCH  14  32
ATOM     31  O   UNL     1     -22.441  10.629   7.958  0.00  0.00    +0.000 OA
ATOM     32  C   UNL     1     -22.682  11.792   8.255  0.00  0.00    +0.000 C 
BRANCH  32  33
ATOM     33  O   UNL     1     -21.891  12.426   9.148  0.00  0.00    +0.000 OA
ATOM     34  H   UNL     1     -21.214  11.764   9.405  0.00  0.00    +0.000 HD
ENDBRANCH  32  33
ENDBRANCH  14  32
BRANCH   9  35
ATOM     35  C   UNL     1     -25.438  20.893  11.293  0.00  0.00    +0.000 C 
BRANCH  35  36
ATOM     36  O   UNL     1     -26.621  21.076  10.700  0.00  0.00    +0.000 OA
ATOM     37  H   UNL     1     -26.975  20.235  10.357  0.00  0.00    +0.000 HD
ENDBRANCH  35  36
ENDBRANCH   9  35
TORSDOF 5
ENDMDL
MODEL 4
REMARK VINA RESULT:      -5.7     13.951     17.614
REMARK  Name = 73299_Hederagenin.pdbqt.pdb
REMARK  5 active torsions:
REMARK  status: ('A' for Active; 'I' for Inactive)
REMARK    1  A    between atoms: C_9  and  C_35
REMARK    2  A    between atoms: C_14  and  C_32
REMARK    3  A    between atoms: C_17  and  O_29
REMARK    4  A    between atoms: C_32  and  O_33
REMARK    5  A    between atoms: C_35  and  O_36
REMARK                            x       y       z     vdW  Elec       q    Type
REMARK                         _______ _______ _______ _____ _____    ______ ____
ROOT
ATOM      1  C   UNL     1     -10.021  19.566  20.767  0.00  0.00    +0.000 C 
ATOM      2  C   UNL     1     -10.045  18.816  19.370  0.00  0.00    +0.000 C 
ATOM      3  C   UNL     1      -8.895  18.878  18.359  0.00  0.00    +0.000 C 
ATOM      4  C   UNL     1     -11.488  20.236  21.142  0.00  0.00    +0.000 C 
ATOM      5  C   UNL     1      -8.087  20.206  18.286  0.00  0.00    +0.000 C 
ATOM      6  C   UNL     1      -8.985  20.598  20.636  0.00  0.00    +0.000 C 
ATOM      7  C   UNL     1      -8.068  20.934  19.509  0.00  0.00    +0.000 C 
ATOM      8  C   UNL     1     -12.711  19.186  20.943  0.00  0.00    +0.000 C 
ATOM      9  C   UNL     1      -7.591  20.817  16.965  0.00  0.00    +0.000 C 
ATOM     10  C   UNL     1     -13.854  19.035  21.871  0.00  0.00    +0.000 C 
ATOM     11  C   UNL     1     -11.290  18.152  19.134  0.00  0.00    +0.000 C 
ATOM     12  C   UNL     1      -9.412  18.673  17.010  0.00  0.00    +0.000 C 
ATOM     13  C   UNL     1     -11.607  20.641  22.555  0.00  0.00    +0.000 C 
ATOM     14  C   UNL     1     -13.742  19.323  23.492  0.00  0.00    +0.000 C 
ATOM     15  C   UNL     1      -9.585  18.497  21.850  0.00  0.00    +0.000 C 
ATOM     16  C   UNL     1     -12.627  20.263  23.603  0.00  0.00    +0.000 C 
ATOM     17  C   UNL     1      -7.979  20.110  15.639  0.00  0.00    +0.000 C 
ATOM     18  C   UNL     1     -12.533  18.363  19.951  0.00  0.00    +0.000 C 
ATOM     19  C   UNL     1      -7.895  17.749  18.718  0.00  0.00    +0.000 C 
ATOM     20  C   UNL     1      -9.044  19.192  15.660  0.00  0.00    +0.000 C 
ATOM     21  C   UNL     1     -11.844  21.469  20.203  0.00  0.00    +0.000 C 
ATOM     22  C   UNL     1     -15.205  19.162  21.323  0.00  0.00    +0.000 C 
ATOM     23  C   UNL     1     -15.081  19.861  23.856  0.00  0.00    +0.000 C 
ATOM     24  C   UNL     1     -16.620  19.604  21.617  0.00  0.00    +0.000 C 
ATOM     25  C   UNL     1      -6.030  20.918  17.014  0.00  0.00    +0.000 C 
ATOM     26  C   UNL     1     -16.399  19.985  23.049  0.00  0.00    +0.000 C 
ATOM     27  C   UNL     1     -17.014  20.818  20.756  0.00  0.00    +0.000 C 
ATOM     28  C   UNL     1     -17.615  18.438  21.478  0.00  0.00    +0.000 C 
ENDROOT
BRANCH  17  29
ATOM     29  O   UNL     1      -7.135  20.130  14.542  0.00  0.00    +0.000 OA
ATOM     30  H   UNL     1      -6.315  19.623  14.723  0.00  0.00    +0.000 HD
ENDBRANCH  17  29
BRANCH  14  32
ATOM     31  O   UNL     1     -12.544  17.225  23.968  0.00  0.00    +0.000 OA
ATOM     32  C   UNL     1     -13.484  17.979  24.183  0.00  0.00    +0.000 C 
BRANCH  32  33
ATOM     33  O   UNL     1     -14.447  17.605  25.054  0.00  0.00    +0.000 OA
ATOM     34  H   UNL     1     -14.989  18.411  25.197  0.00  0.00    +0.000 HD
ENDBRANCH  32  33
ENDBRANCH  14  32
BRANCH   9  35
ATOM     35  C   UNL     1      -8.171  22.193  16.857  0.00  0.00    +0.000 C 
BRANCH  35  36
ATOM     36  O   UNL     1      -8.703  23.414  16.761  0.00  0.00    +0.000 OA
ATOM     37  H   UNL     1      -8.078  24.037  16.345  0.00  0.00    +0.000 HD
ENDBRANCH  35  36
ENDBRANCH   9  35
TORSDOF 5
ENDMDL
MODEL 5
REMARK VINA RESULT:      -5.6     12.368     16.608
REMARK  Name = 73299_Hederagenin.pdbqt.pdb
REMARK  5 active torsions:
REMARK  status: ('A' for Active; 'I' for Inactive)
REMARK    1  A    between atoms: C_9  and  C_35
REMARK    2  A    between atoms: C_14  and  C_32
REMARK    3  A    between atoms: C_17  and  O_29
REMARK    4  A    between atoms: C_32  and  O_33
REMARK    5  A    between atoms: C_35  and  O_36
REMARK                            x       y       z     vdW  Elec       q    Type
REMARK                         _______ _______ _______ _____ _____    ______ ____
ROOT
ATOM      1  C   UNL     1     -10.386  19.555  19.414  0.00  0.00    +0.000 C 
ATOM      2  C   UNL     1      -8.897  19.284  19.888  0.00  0.00    +0.000 C 
ATOM      3  C   UNL     1      -7.710  19.176  18.923  0.00  0.00    +0.000 C 
ATOM      4  C   UNL     1     -11.485  18.653  20.262  0.00  0.00    +0.000 C 
ATOM      5  C   UNL     1      -7.991  18.559  17.522  0.00  0.00    +0.000 C 
ATOM      6  C   UNL     1     -10.407  19.213  17.987  0.00  0.00    +0.000 C 
ATOM      7  C   UNL     1      -9.327  18.745  17.070  0.00  0.00    +0.000 C 
ATOM      8  C   UNL     1     -11.245  18.741  21.866  0.00  0.00    +0.000 C 
ATOM      9  C   UNL     1      -7.015  17.605  16.813  0.00  0.00    +0.000 C 
ATOM     10  C   UNL     1     -12.319  18.867  22.875  0.00  0.00    +0.000 C 
ATOM     11  C   UNL     1      -8.808  19.070  21.300  0.00  0.00    +0.000 C 
ATOM     12  C   UNL     1      -6.673  18.332  19.509  0.00  0.00    +0.000 C 
ATOM     13  C   UNL     1     -12.877  19.113  20.096  0.00  0.00    +0.000 C 
ATOM     14  C   UNL     1     -13.753  19.627  22.575  0.00  0.00    +0.000 C 
ATOM     15  C   UNL     1     -10.648  21.105  19.602  0.00  0.00    +0.000 C 
ATOM     16  C   UNL     1     -13.906  19.521  21.124  0.00  0.00    +0.000 C 
ATOM     17  C   UNL     1      -5.725  17.183  17.566  0.00  0.00    +0.000 C 
ATOM     18  C   UNL     1      -9.990  18.837  22.198  0.00  0.00    +0.000 C 
ATOM     19  C   UNL     1      -7.160  20.607  18.695  0.00  0.00    +0.000 C 
ATOM     20  C   UNL     1      -5.674  17.371  18.958  0.00  0.00    +0.000 C 
ATOM     21  C   UNL     1     -11.391  17.105  19.912  0.00  0.00    +0.000 C 
ATOM     22  C   UNL     1     -12.369  17.877  23.952  0.00  0.00    +0.000 C 
ATOM     23  C   UNL     1     -14.741  18.868  23.388  0.00  0.00    +0.000 C 
ATOM     24  C   UNL     1     -13.281  17.113  24.883  0.00  0.00    +0.000 C 
ATOM     25  C   UNL     1      -6.587  18.246  15.452  0.00  0.00    +0.000 C 
ATOM     26  C   UNL     1     -14.566  17.749  24.447  0.00  0.00    +0.000 C 
ATOM     27  C   UNL     1     -13.255  15.605  24.574  0.00  0.00    +0.000 C 
ATOM     28  C   UNL     1     -12.962  17.415  26.358  0.00  0.00    +0.000 C 
ENDROOT
BRANCH  17  29
ATOM     29  O   UNL     1      -4.549  16.922  16.882  0.00  0.00    +0.000 OA
ATOM     30  H   UNL     1      -3.817  16.737  17.506  0.00  0.00    +0.000 HD
ENDBRANCH  17  29
BRANCH  14  32
ATOM     31  O   UNL     1     -12.865  21.924  22.632  0.00  0.00    +0.000 OA
ATOM     32  C   UNL     1     -13.624  21.071  23.074  0.00  0.00    +0.000 C 
BRANCH  32  33
ATOM     33  O   UNL     1     -14.392  21.361  24.147  0.00  0.00    +0.000 OA
ATOM     34  H   UNL     1     -13.871  22.009  24.668  0.00  0.00    +0.000 HD
ENDBRANCH  32  33
ENDBRANCH  14  32
BRANCH   9  35
ATOM     35  C   UNL     1      -7.747  16.326  16.548  0.00  0.00    +0.000 C 
BRANCH  35  36
ATOM     36  O   UNL     1      -8.391  15.182  16.298  0.00  0.00    +0.000 OA
ATOM     37  H   UNL     1      -7.782  14.504  15.953  0.00  0.00    +0.000 HD
ENDBRANCH  35  36
ENDBRANCH   9  35
TORSDOF 5
ENDMDL
MODEL 6
REMARK VINA RESULT:      -5.5     13.804     18.915
REMARK  Name = 73299_Hederagenin.pdbqt.pdb
REMARK  5 active torsions:
REMARK  status: ('A' for Active; 'I' for Inactive)
REMARK    1  A    between atoms: C_9  and  C_35
REMARK    2  A    between atoms: C_14  and  C_32
REMARK    3  A    between atoms: C_17  and  O_29
REMARK    4  A    between atoms: C_32  and  O_33
REMARK    5  A    between atoms: C_35  and  O_36
REMARK                            x       y       z     vdW  Elec       q    Type
REMARK                         _______ _______ _______ _____ _____    ______ ____
ROOT
ATOM      1  C   UNL     1     -25.535   5.264  16.977  0.00  0.00    +0.000 C 
ATOM      2  C   UNL     1     -24.103   5.862  16.646  0.00  0.00    +0.000 C 
ATOM      3  C   UNL     1     -22.804   5.060  16.773  0.00  0.00    +0.000 C 
ATOM      4  C   UNL     1     -26.498   6.352  17.772  0.00  0.00    +0.000 C 
ATOM      5  C   UNL     1     -22.736   3.995  17.906  0.00  0.00    +0.000 C 
ATOM      6  C   UNL     1     -25.279   4.080  17.805  0.00  0.00    +0.000 C 
ATOM      7  C   UNL     1     -24.003   3.456  18.263  0.00  0.00    +0.000 C 
ATOM      8  C   UNL     1     -26.508   7.806  17.047  0.00  0.00    +0.000 C 
ATOM      9  C   UNL     1     -21.476   3.746  18.751  0.00  0.00    +0.000 C 
ATOM     10  C   UNL     1     -27.710   8.648  16.859  0.00  0.00    +0.000 C 
ATOM     11  C   UNL     1     -24.162   7.250  16.303  0.00  0.00    +0.000 C 
ATOM     12  C   UNL     1     -21.688   5.964  17.034  0.00  0.00    +0.000 C 
ATOM     13  C   UNL     1     -27.922   5.969  17.796  0.00  0.00    +0.000 C 
ATOM     14  C   UNL     1     -29.227   8.023  16.675  0.00  0.00    +0.000 C 
ATOM     15  C   UNL     1     -26.176   4.831  15.597  0.00  0.00    +0.000 C 
ATOM     16  C   UNL     1     -29.150   6.721  17.337  0.00  0.00    +0.000 C 
ATOM     17  C   UNL     1     -20.239   4.652  18.508  0.00  0.00    +0.000 C 
ATOM     18  C   UNL     1     -25.368   8.123  16.503  0.00  0.00    +0.000 C 
ATOM     19  C   UNL     1     -22.579   4.318  15.430  0.00  0.00    +0.000 C 
ATOM     20  C   UNL     1     -20.425   5.865  17.822  0.00  0.00    +0.000 C 
ATOM     21  C   UNL     1     -25.996   6.630  19.254  0.00  0.00    +0.000 C 
ATOM     22  C   UNL     1     -27.675  10.020  17.366  0.00  0.00    +0.000 C 
ATOM     23  C   UNL     1     -30.112   9.028  17.325  0.00  0.00    +0.000 C 
ATOM     24  C   UNL     1     -28.501  11.139  17.957  0.00  0.00    +0.000 C 
ATOM     25  C   UNL     1     -21.027   2.260  18.557  0.00  0.00    +0.000 C 
ATOM     26  C   UNL     1     -29.826  10.442  17.893  0.00  0.00    +0.000 C 
ATOM     27  C   UNL     1     -28.080  11.435  19.408  0.00  0.00    +0.000 C 
ATOM     28  C   UNL     1     -28.468  12.394  17.067  0.00  0.00    +0.000 C 
ENDROOT
BRANCH  17  29
ATOM     29  O   UNL     1     -18.952   4.167  18.672  0.00  0.00    +0.000 OA
ATOM     30  H   UNL     1     -18.823   3.341  18.160  0.00  0.00    +0.000 HD
ENDBRANCH  17  29
BRANCH  14  32
ATOM     31  O   UNL     1     -29.275   6.972  14.449  0.00  0.00    +0.000 OA
ATOM     32  C   UNL     1     -29.510   7.932  15.171  0.00  0.00    +0.000 C 
BRANCH  32  33
ATOM     33  O   UNL     1     -30.003   9.066  14.627  0.00  0.00    +0.000 OA
ATOM     34  H   UNL     1     -29.831   8.984  13.664  0.00  0.00    +0.000 HD
ENDBRANCH  32  33
ENDBRANCH  14  32
BRANCH   9  35
ATOM     35  C   UNL     1     -21.843   3.967  20.186  0.00  0.00    +0.000 C 
BRANCH  35  36
ATOM     36  O   UNL     1     -22.158   4.156  21.471  0.00  0.00    +0.000 OA
ATOM     37  H   UNL     1     -22.995   4.648  21.557  0.00  0.00    +0.000 HD
ENDBRANCH  35  36
ENDBRANCH   9  35
TORSDOF 5
ENDMDL
MODEL 7
REMARK VINA RESULT:      -5.5      5.688      7.777
REMARK  Name = 73299_Hederagenin.pdbqt.pdb
REMARK  5 active torsions:
REMARK  status: ('A' for Active; 'I' for Inactive)
REMARK    1  A    between atoms: C_9  and  C_35
REMARK    2  A    between atoms: C_14  and  C_32
REMARK    3  A    between atoms: C_17  and  O_29
REMARK    4  A    between atoms: C_32  and  O_33
REMARK    5  A    between atoms: C_35  and  O_36
REMARK                            x       y       z     vdW  Elec       q    Type
REMARK                         _______ _______ _______ _____ _____    ______ ____
ROOT
ATOM      1  C   UNL     1      -5.197  10.617  17.924  0.00  0.00    +0.000 C 
ATOM      2  C   UNL     1      -5.800  11.563  16.803  0.00  0.00    +0.000 C 
ATOM      3  C   UNL     1      -5.704  13.092  16.848  0.00  0.00    +0.000 C 
ATOM      4  C   UNL     1      -6.198   9.345  18.274  0.00  0.00    +0.000 C 
ATOM      5  C   UNL     1      -5.744  13.763  18.252  0.00  0.00    +0.000 C 
ATOM      6  C   UNL     1      -5.004  11.478  19.097  0.00  0.00    +0.000 C 
ATOM      7  C   UNL     1      -5.245  12.937  19.297  0.00  0.00    +0.000 C 
ATOM      8  C   UNL     1      -6.716   8.586  16.935  0.00  0.00    +0.000 C 
ATOM      9  C   UNL     1      -6.496  15.074  18.536  0.00  0.00    +0.000 C 
ATOM     10  C   UNL     1      -6.825   7.118  16.786  0.00  0.00    +0.000 C 
ATOM     11  C   UNL     1      -6.511  10.830  15.801  0.00  0.00    +0.000 C 
ATOM     12  C   UNL     1      -6.822  13.679  16.115  0.00  0.00    +0.000 C 
ATOM     13  C   UNL     1      -5.541   8.274  19.046  0.00  0.00    +0.000 C 
ATOM     14  C   UNL     1      -5.837   6.056  17.573  0.00  0.00    +0.000 C 
ATOM     15  C   UNL     1      -3.796  10.113  17.388  0.00  0.00    +0.000 C 
ATOM     16  C   UNL     1      -5.401   6.798  18.756  0.00  0.00    +0.000 C 
ATOM     17  C   UNL     1      -7.314  15.715  17.383  0.00  0.00    +0.000 C 
ATOM     18  C   UNL     1      -6.900   9.384  15.923  0.00  0.00    +0.000 C 
ATOM     19  C   UNL     1      -4.365  13.497  16.181  0.00  0.00    +0.000 C 
ATOM     20  C   UNL     1      -7.641  14.916  16.273  0.00  0.00    +0.000 C 
ATOM     21  C   UNL     1      -7.520   9.810  19.026  0.00  0.00    +0.000 C 
ATOM     22  C   UNL     1      -8.119   6.562  16.386  0.00  0.00    +0.000 C 
ATOM     23  C   UNL     1      -6.707   4.877  17.832  0.00  0.00    +0.000 C 
ATOM     24  C   UNL     1      -9.046   5.376  16.516  0.00  0.00    +0.000 C 
ATOM     25  C   UNL     1      -5.472  16.140  19.047  0.00  0.00    +0.000 C 
ATOM     26  C   UNL     1      -8.142   4.528  17.359  0.00  0.00    +0.000 C 
ATOM     27  C   UNL     1     -10.336   5.757  17.264  0.00  0.00    +0.000 C 
ATOM     28  C   UNL     1      -9.329   4.729  15.148  0.00  0.00    +0.000 C 
ENDROOT
BRANCH  17  29
ATOM     29  O   UNL     1      -7.458  17.089  17.284  0.00  0.00    +0.000 OA
ATOM     30  H   UNL     1      -7.680  17.351  16.367  0.00  0.00    +0.000 HD
ENDBRANCH  17  29
BRANCH  14  32
ATOM     31  O   UNL     1      -3.602   6.247  16.557  0.00  0.00    +0.000 OA
ATOM     32  C   UNL     1      -4.692   5.695  16.619  0.00  0.00    +0.000 C 
BRANCH  32  33
ATOM     33  O   UNL     1      -4.989   4.714  15.738  0.00  0.00    +0.000 OA
ATOM     34  H   UNL     1      -5.190   3.928  16.290  0.00  0.00    +0.000 HD
ENDBRANCH  32  33
ENDBRANCH  14  32
BRANCH   9  35
ATOM     35  C   UNL     1      -7.497  14.796  19.615  0.00  0.00    +0.000 C 
BRANCH  35  36
ATOM     36  O   UNL     1      -8.391  14.562  20.580  0.00  0.00    +0.000 OA
ATOM     37  H   UNL     1      -8.329  15.232  21.285  0.00  0.00    +0.000 HD
ENDBRANCH  35  36
ENDBRANCH   9  35
TORSDOF 5
ENDMDL
MODEL 8
REMARK VINA RESULT:      -5.5     12.599     16.537
REMARK  Name = 73299_Hederagenin.pdbqt.pdb
REMARK  5 active torsions:
REMARK  status: ('A' for Active; 'I' for Inactive)
REMARK    1  A    between atoms: C_9  and  C_35
REMARK    2  A    between atoms: C_14  and  C_32
REMARK    3  A    between atoms: C_17  and  O_29
REMARK    4  A    between atoms: C_32  and  O_33
REMARK    5  A    between atoms: C_35  and  O_36
REMARK                            x       y       z     vdW  Elec       q    Type
REMARK                         _______ _______ _______ _____ _____    ______ ____
ROOT
ATOM      1  C   UNL     1      -9.034  17.913  20.253  0.00  0.00    +0.000 C 
ATOM      2  C   UNL     1      -9.723  18.230  18.860  0.00  0.00    +0.000 C 
ATOM      3  C   UNL     1      -8.942  18.625  17.602  0.00  0.00    +0.000 C 
ATOM      4  C   UNL     1      -9.888  18.536  21.528  0.00  0.00    +0.000 C 
ATOM      5  C   UNL     1      -7.645  19.461  17.808  0.00  0.00    +0.000 C 
ATOM      6  C   UNL     1      -7.696  18.509  20.169  0.00  0.00    +0.000 C 
ATOM      7  C   UNL     1      -7.011  19.238  19.061  0.00  0.00    +0.000 C 
ATOM      8  C   UNL     1     -11.470  18.176  21.442  0.00  0.00    +0.000 C 
ATOM      9  C   UNL     1      -7.235  20.617  16.880  0.00  0.00    +0.000 C 
ATOM     10  C   UNL     1     -12.305  17.765  22.592  0.00  0.00    +0.000 C 
ATOM     11  C   UNL     1     -11.151  18.186  18.939  0.00  0.00    +0.000 C 
ATOM     12  C   UNL     1      -9.785  19.439  16.732  0.00  0.00    +0.000 C 
ATOM     13  C   UNL     1      -9.479  17.986  22.834  0.00  0.00    +0.000 C 
ATOM     14  C   UNL     1     -11.708  16.943  23.892  0.00  0.00    +0.000 C 
ATOM     15  C   UNL     1      -8.918  16.338  20.355  0.00  0.00    +0.000 C 
ATOM     16  C   UNL     1     -10.290  17.301  23.909  0.00  0.00    +0.000 C 
ATOM     17  C   UNL     1      -8.198  21.011  15.729  0.00  0.00    +0.000 C 
ATOM     18  C   UNL     1     -11.928  18.138  20.225  0.00  0.00    +0.000 C 
ATOM     19  C   UNL     1      -8.536  17.318  16.873  0.00  0.00    +0.000 C 
ATOM     20  C   UNL     1      -9.533  20.575  15.798  0.00  0.00    +0.000 C 
ATOM     21  C   UNL     1      -9.826  20.124  21.575  0.00  0.00    +0.000 C 
ATOM     22  C   UNL     1     -13.523  18.530  22.863  0.00  0.00    +0.000 C 
ATOM     23  C   UNL     1     -12.515  17.443  25.037  0.00  0.00    +0.000 C 
ATOM     24  C   UNL     1     -14.457  19.020  23.946  0.00  0.00    +0.000 C 
ATOM     25  C   UNL     1      -5.844  20.282  16.246  0.00  0.00    +0.000 C 
ATOM     26  C   UNL     1     -13.766  18.358  25.098  0.00  0.00    +0.000 C 
ATOM     27  C   UNL     1     -14.419  20.555  24.060  0.00  0.00    +0.000 C 
ATOM     28  C   UNL     1     -15.884  18.481  23.745  0.00  0.00    +0.000 C 
ENDROOT
BRANCH  17  29
ATOM     29  O   UNL     1      -7.716  21.503  14.527  0.00  0.00    +0.000 OA
ATOM     30  H   UNL     1      -7.946  20.903  13.788  0.00  0.00    +0.000 HD
ENDBRANCH  17  29
BRANCH  14  32
ATOM     31  O   UNL     1     -11.258  14.695  22.992  0.00  0.00    +0.000 OA
ATOM     32  C   UNL     1     -11.961  15.450  23.651  0.00  0.00    +0.000 C 
BRANCH  32  33
ATOM     33  O   UNL     1     -13.116  14.988  24.180  0.00  0.00    +0.000 OA
ATOM     34  H   UNL     1     -12.842  14.350  24.873  0.00  0.00    +0.000 HD
ENDBRANCH  32  33
ENDBRANCH  14  32
BRANCH   9  35
ATOM     35  C   UNL     1      -7.109  21.849  17.721  0.00  0.00    +0.000 C 
BRANCH  35  36
ATOM     36  O   UNL     1      -7.009  22.945  18.480  0.00  0.00    +0.000 OA
ATOM     37  H   UNL     1      -7.887  23.333  18.652  0.00  0.00    +0.000 HD
ENDBRANCH  35  36
ENDBRANCH   9  35
TORSDOF 5
ENDMDL
MODEL 9
REMARK VINA RESULT:      -5.5     19.422     22.424
REMARK  Name = 73299_Hederagenin.pdbqt.pdb
REMARK  5 active torsions:
REMARK  status: ('A' for Active; 'I' for Inactive)
REMARK    1  A    between atoms: C_9  and  C_35
REMARK    2  A    between atoms: C_14  and  C_32
REMARK    3  A    between atoms: C_17  and  O_29
REMARK    4  A    between atoms: C_32  and  O_33
REMARK    5  A    between atoms: C_35  and  O_36
REMARK                            x       y       z     vdW  Elec       q    Type
REMARK                         _______ _______ _______ _____ _____    ______ ____
ROOT
ATOM      1  C   UNL     1     -24.749  15.744   8.021  0.00  0.00    +0.000 C 
ATOM      2  C   UNL     1     -23.629  15.150   8.974  0.00  0.00    +0.000 C 
ATOM      3  C   UNL     1     -23.226  15.792  10.306  0.00  0.00    +0.000 C 
ATOM      4  C   UNL     1     -24.328  15.643   6.422  0.00  0.00    +0.000 C 
ATOM      5  C   UNL     1     -23.293  17.345  10.392  0.00  0.00    +0.000 C 
ATOM      6  C   UNL     1     -24.913  17.142   8.438  0.00  0.00    +0.000 C 
ATOM      7  C   UNL     1     -24.260  17.927   9.526  0.00  0.00    +0.000 C 
ATOM      8  C   UNL     1     -23.794  14.162   6.021  0.00  0.00    +0.000 C 
ATOM      9  C   UNL     1     -22.239  18.192  11.125  0.00  0.00    +0.000 C 
ATOM     10  C   UNL     1     -24.140  13.450   4.772  0.00  0.00    +0.000 C 
ATOM     11  C   UNL     1     -22.987  14.004   8.407  0.00  0.00    +0.000 C 
ATOM     12  C   UNL     1     -21.842  15.454  10.620  0.00  0.00    +0.000 C 
ATOM     13  C   UNL     1     -25.458  15.864   5.501  0.00  0.00    +0.000 C 
ATOM     14  C   UNL     1     -25.574  13.660   3.982  0.00  0.00    +0.000 C 
ATOM     15  C   UNL     1     -26.075  14.933   8.317  0.00  0.00    +0.000 C 
ATOM     16  C   UNL     1     -26.002  14.999   4.389  0.00  0.00    +0.000 C 
ATOM     17  C   UNL     1     -21.015  17.465  11.744  0.00  0.00    +0.000 C 
ATOM     18  C   UNL     1     -23.132  13.573   6.975  0.00  0.00    +0.000 C 
ATOM     19  C   UNL     1     -24.169  15.230  11.401  0.00  0.00    +0.000 C 
ATOM     20  C   UNL     1     -20.722  16.161  11.307  0.00  0.00    +0.000 C 
ATOM     21  C   UNL     1     -23.136  16.628   6.051  0.00  0.00    +0.000 C 
ATOM     22  C   UNL     1     -23.045  12.975   3.926  0.00  0.00    +0.000 C 
ATOM     23  C   UNL     1     -25.222  13.502   2.546  0.00  0.00    +0.000 C 
ATOM     24  C   UNL     1     -22.613  12.700   2.504  0.00  0.00    +0.000 C 
ATOM     25  C   UNL     1     -22.946  18.995  12.266  0.00  0.00    +0.000 C 
ATOM     26  C   UNL     1     -23.912  13.054   1.846  0.00  0.00    +0.000 C 
ATOM     27  C   UNL     1     -21.477  13.646   2.074  0.00  0.00    +0.000 C 
ATOM     28  C   UNL     1     -22.251  11.218   2.301  0.00  0.00    +0.000 C 
ENDROOT
BRANCH  17  29
ATOM     29  O   UNL     1     -20.411  17.935  12.898  0.00  0.00    +0.000 OA
ATOM     30  H   UNL     1     -20.717  17.433  13.682  0.00  0.00    +0.000 HD
ENDBRANCH  17  29
BRANCH  14  32
ATOM     31  O   UNL     1     -26.362  11.345   4.273  0.00  0.00    +0.000 OA
ATOM     32  C   UNL     1     -26.523  12.547   4.442  0.00  0.00    +0.000 C 
BRANCH  32  33
ATOM     33  O   UNL     1     -27.660  12.988   5.023  0.00  0.00    +0.000 OA
ATOM     34  H   UNL     1     -28.255  13.219   4.278  0.00  0.00    +0.000 HD
ENDBRANCH  32  33
ENDBRANCH  14  32
BRANCH   9  35
ATOM     35  C   UNL     1     -21.660  19.152  10.132  0.00  0.00    +0.000 C 
BRANCH  35  36
ATOM     36  O   UNL     1     -21.141  19.997   9.238  0.00  0.00    +0.000 OA
ATOM     37  H   UNL     1     -21.769  20.169   8.512  0.00  0.00    +0.000 HD
ENDBRANCH  35  36
ENDBRANCH   9  35
TORSDOF 5
ENDMDL
