MODEL 1
REMARK VINA RESULT:      -6.8      0.000      0.000
REMARK  Name = 73659_MaslinicAcid.pdbqt.pdb
REMARK  4 active torsions:
REMARK  status: ('A' for Active; 'I' for Inactive)
REMARK    1  A    between atoms: C_14  and  C_35
REMARK    2  A    between atoms: C_17  and  O_30
REMARK    3  A    between atoms: C_19  and  O_32
REMARK    4  A    between atoms: C_35  and  O_36
REMARK                            x       y       z     vdW  Elec       q    Type
REMARK                         _______ _______ _______ _____ _____    ______ ____
ROOT
ATOM      1  C   UNL     1     -17.081   3.828  -2.364  0.00  0.00    +0.000 C 
ATOM      2  C   UNL     1     -15.590   3.297  -2.225  0.00  0.00    +0.000 C 
ATOM      3  C   UNL     1     -15.223   1.810  -2.207  0.00  0.00    +0.000 C 
ATOM      4  C   UNL     1     -17.374   5.135  -1.392  0.00  0.00    +0.000 C 
ATOM      5  C   UNL     1     -16.236   0.842  -1.588  0.00  0.00    +0.000 C 
ATOM      6  C   UNL     1     -17.929   2.688  -1.999  0.00  0.00    +0.000 C 
ATOM      7  C   UNL     1     -17.586   1.283  -1.631  0.00  0.00    +0.000 C 
ATOM      8  C   UNL     1     -16.222   6.272  -1.532  0.00  0.00    +0.000 C 
ATOM      9  C   UNL     1     -15.753  -0.403  -0.859  0.00  0.00    +0.000 C 
ATOM     10  C   UNL     1     -16.475   7.727  -1.611  0.00  0.00    +0.000 C 
ATOM     11  C   UNL     1     -14.652   4.362  -2.042  0.00  0.00    +0.000 C 
ATOM     12  C   UNL     1     -14.018   1.608  -1.419  0.00  0.00    +0.000 C 
ATOM     13  C   UNL     1     -18.614   5.854  -1.733  0.00  0.00    +0.000 C 
ATOM     14  C   UNL     1     -17.853   8.368  -2.256  0.00  0.00    +0.000 C 
ATOM     15  C   UNL     1     -17.292   4.186  -3.892  0.00  0.00    +0.000 C 
ATOM     16  C   UNL     1     -18.843   7.305  -2.091  0.00  0.00    +0.000 C 
ATOM     17  C   UNL     1     -14.276  -0.465  -0.392  0.00  0.00    +0.000 C 
ATOM     18  C   UNL     1     -14.985   1.370  -3.671  0.00  0.00    +0.000 C 
ATOM     19  C   UNL     1     -13.436   0.672  -0.571  0.00  0.00    +0.000 C 
ATOM     20  C   UNL     1     -15.031   5.781  -1.732  0.00  0.00    +0.000 C 
ATOM     21  C   UNL     1     -17.386   4.742   0.148  0.00  0.00    +0.000 C 
ATOM     22  C   UNL     1     -15.789   8.598  -0.658  0.00  0.00    +0.000 C 
ATOM     23  C   UNL     1     -18.085   9.601  -1.457  0.00  0.00    +0.000 C 
ATOM     24  C   UNL     1     -15.888   9.882   0.135  0.00  0.00    +0.000 C 
ATOM     25  C   UNL     1     -16.580  -0.558   0.465  0.00  0.00    +0.000 C 
ATOM     26  C   UNL     1     -16.011  -1.652  -1.749  0.00  0.00    +0.000 C 
ATOM     27  C   UNL     1     -17.219  10.322  -0.392  0.00  0.00    +0.000 C 
ATOM     28  C   UNL     1     -14.766  10.866  -0.243  0.00  0.00    +0.000 C 
ATOM     29  C   UNL     1     -15.936   9.598   1.648  0.00  0.00    +0.000 C 
ENDROOT
BRANCH  17  30
ATOM     30  O   UNL     1     -13.695  -1.592   0.183  0.00  0.00    +0.000 OA
ATOM     31  H   UNL     1     -12.828  -1.792  -0.229  0.00  0.00    +0.000 HD
ENDBRANCH  17  30
BRANCH  19  32
ATOM     32  O   UNL     1     -12.096   0.591  -0.344  0.00  0.00    +0.000 OA
ATOM     33  H   UNL     1     -11.732   1.457  -0.076  0.00  0.00    +0.000 HD
ENDBRANCH  19  32
BRANCH  14  35
ATOM     34  O   UNL     1     -17.249   7.917  -4.602  0.00  0.00    +0.000 OA
ATOM     35  C   UNL     1     -17.563   8.708  -3.723  0.00  0.00    +0.000 C 
BRANCH  35  36
ATOM     36  O   UNL     1     -17.607  10.030  -4.006  0.00  0.00    +0.000 OA
ATOM     37  H   UNL     1     -17.657  10.476  -3.132  0.00  0.00    +0.000 HD
ENDBRANCH  35  36
ENDBRANCH  14  35
TORSDOF 4
ENDMDL
MODEL 2
REMARK VINA RESULT:      -6.2     22.922     26.346
REMARK  Name = 73659_MaslinicAcid.pdbqt.pdb
REMARK  4 active torsions:
REMARK  status: ('A' for Active; 'I' for Inactive)
REMARK    1  A    between atoms: C_14  and  C_35
REMARK    2  A    between atoms: C_17  and  O_30
REMARK    3  A    between atoms: C_19  and  O_32
REMARK    4  A    between atoms: C_35  and  O_36
REMARK                            x       y       z     vdW  Elec       q    Type
REMARK                         _______ _______ _______ _____ _____    ______ ____
ROOT
ATOM      1  C   UNL     1      -8.434  17.070  19.672  0.00  0.00    +0.000 C 
ATOM      2  C   UNL     1      -8.946  17.069  18.169  0.00  0.00    +0.000 C 
ATOM      3  C   UNL     1      -8.009  17.086  16.957  0.00  0.00    +0.000 C 
ATOM      4  C   UNL     1      -9.358  18.035  20.648  0.00  0.00    +0.000 C 
ATOM      5  C   UNL     1      -6.678  17.831  17.108  0.00  0.00    +0.000 C 
ATOM      6  C   UNL     1      -7.048  17.549  19.604  0.00  0.00    +0.000 C 
ATOM      7  C   UNL     1      -6.189  17.915  18.440  0.00  0.00    +0.000 C 
ATOM      8  C   UNL     1     -10.947  17.749  20.463  0.00  0.00    +0.000 C 
ATOM      9  C   UNL     1      -6.060  18.537  15.911  0.00  0.00    +0.000 C 
ATOM     10  C   UNL     1     -11.925  17.660  21.570  0.00  0.00    +0.000 C 
ATOM     11  C   UNL     1     -10.374  17.128  18.084  0.00  0.00    +0.000 C 
ATOM     12  C   UNL     1      -8.658  17.752  15.839  0.00  0.00    +0.000 C 
ATOM     13  C   UNL     1      -9.130  17.804  22.087  0.00  0.00    +0.000 C 
ATOM     14  C   UNL     1     -11.526  17.143  23.086  0.00  0.00    +0.000 C 
ATOM     15  C   UNL     1      -8.458  15.564  20.158  0.00  0.00    +0.000 C 
ATOM     16  C   UNL     1     -10.097  17.435  23.189  0.00  0.00    +0.000 C 
ATOM     17  C   UNL     1      -6.960  18.851  14.688  0.00  0.00    +0.000 C 
ATOM     18  C   UNL     1      -7.688  15.617  16.594  0.00  0.00    +0.000 C 
ATOM     19  C   UNL     1      -8.352  18.559  14.749  0.00  0.00    +0.000 C 
ATOM     20  C   UNL     1     -11.279  17.440  19.241  0.00  0.00    +0.000 C 
ATOM     21  C   UNL     1      -9.171  19.577  20.315  0.00  0.00    +0.000 C 
ATOM     22  C   UNL     1     -13.110  18.515  21.511  0.00  0.00    +0.000 C 
ATOM     23  C   UNL     1     -12.416  17.931  23.981  0.00  0.00    +0.000 C 
ATOM     24  C   UNL     1     -14.121  19.282  22.334  0.00  0.00    +0.000 C 
ATOM     25  C   UNL     1      -5.540  19.942  16.375  0.00  0.00    +0.000 C 
ATOM     26  C   UNL     1      -4.848  17.709  15.395  0.00  0.00    +0.000 C 
ATOM     27  C   UNL     1     -13.602  18.883  23.682  0.00  0.00    +0.000 C 
ATOM     28  C   UNL     1     -15.551  18.767  22.093  0.00  0.00    +0.000 C 
ATOM     29  C   UNL     1     -13.994  20.799  22.098  0.00  0.00    +0.000 C 
ENDROOT
BRANCH  17  30
ATOM     30  O   UNL     1      -6.482  19.392  13.497  0.00  0.00    +0.000 OA
ATOM     31  H   UNL     1      -7.184  19.417  12.814  0.00  0.00    +0.000 HD
ENDBRANCH  17  30
BRANCH  19  32
ATOM     32  O   UNL     1      -9.133  18.649  13.636  0.00  0.00    +0.000 OA
ATOM     33  H   UNL     1      -9.415  17.764  13.333  0.00  0.00    +0.000 HD
ENDBRANCH  19  32
BRANCH  14  35
ATOM     34  O   UNL     1     -12.641  15.116  23.933  0.00  0.00    +0.000 OA
ATOM     35  C   UNL     1     -11.849  15.646  23.166  0.00  0.00    +0.000 C 
BRANCH  35  36
ATOM     36  O   UNL     1     -11.113  14.875  22.334  0.00  0.00    +0.000 OA
ATOM     37  H   UNL     1     -11.258  15.254  21.440  0.00  0.00    +0.000 HD
ENDBRANCH  35  36
ENDBRANCH  14  35
TORSDOF 4
ENDMDL
MODEL 3
REMARK VINA RESULT:      -6.1     13.807     19.275
REMARK  Name = 73659_MaslinicAcid.pdbqt.pdb
REMARK  4 active torsions:
REMARK  status: ('A' for Active; 'I' for Inactive)
REMARK    1  A    between atoms: C_14  and  C_35
REMARK    2  A    between atoms: C_17  and  O_30
REMARK    3  A    between atoms: C_19  and  O_32
REMARK    4  A    between atoms: C_35  and  O_36
REMARK                            x       y       z     vdW  Elec       q    Type
REMARK                         _______ _______ _______ _____ _____    ______ ____
ROOT
ATOM      1  C   UNL     1     -23.618  16.325  10.643  0.00  0.00    +0.000 C 
ATOM      2  C   UNL     1     -22.613  17.504  10.293  0.00  0.00    +0.000 C 
ATOM      3  C   UNL     1     -22.477  18.775  11.136  0.00  0.00    +0.000 C 
ATOM      4  C   UNL     1     -24.344  15.699   9.293  0.00  0.00    +0.000 C 
ATOM      5  C   UNL     1     -23.735  19.286  11.848  0.00  0.00    +0.000 C 
ATOM      6  C   UNL     1     -24.603  16.918  11.554  0.00  0.00    +0.000 C 
ATOM      7  C   UNL     1     -24.701  18.287  12.142  0.00  0.00    +0.000 C 
ATOM      8  C   UNL     1     -23.270  15.364   8.121  0.00  0.00    +0.000 C 
ATOM      9  C   UNL     1     -23.940  20.779  12.051  0.00  0.00    +0.000 C 
ATOM     10  C   UNL     1     -23.283  14.142   7.287  0.00  0.00    +0.000 C 
ATOM     11  C   UNL     1     -21.915  17.273   9.065  0.00  0.00    +0.000 C 
ATOM     12  C   UNL     1     -22.074  19.888  10.293  0.00  0.00    +0.000 C 
ATOM     13  C   UNL     1     -25.012  14.407   9.532  0.00  0.00    +0.000 C 
ATOM     14  C   UNL     1     -23.869  12.693   7.819  0.00  0.00    +0.000 C 
ATOM     15  C   UNL     1     -22.775  15.225  11.407  0.00  0.00    +0.000 C 
ATOM     16  C   UNL     1     -24.829  13.066   8.859  0.00  0.00    +0.000 C 
ATOM     17  C   UNL     1     -23.112  21.768  11.191  0.00  0.00    +0.000 C 
ATOM     18  C   UNL     1     -21.402  18.505  12.217  0.00  0.00    +0.000 C 
ATOM     19  C   UNL     1     -22.253  21.262  10.173  0.00  0.00    +0.000 C 
ATOM     20  C   UNL     1     -22.275  16.203   8.074  0.00  0.00    +0.000 C 
ATOM     21  C   UNL     1     -25.369  16.721   8.638  0.00  0.00    +0.000 C 
ATOM     22  C   UNL     1     -23.286  14.300   5.833  0.00  0.00    +0.000 C 
ATOM     23  C   UNL     1     -24.445  12.067   6.599  0.00  0.00    +0.000 C 
ATOM     24  C   UNL     1     -23.751  13.699   4.526  0.00  0.00    +0.000 C 
ATOM     25  C   UNL     1     -25.431  21.128  11.708  0.00  0.00    +0.000 C 
ATOM     26  C   UNL     1     -23.684  21.135  13.544  0.00  0.00    +0.000 C 
ATOM     27  C   UNL     1     -24.395  12.477   5.105  0.00  0.00    +0.000 C 
ATOM     28  C   UNL     1     -22.563  13.346   3.614  0.00  0.00    +0.000 C 
ATOM     29  C   UNL     1     -24.777  14.612   3.829  0.00  0.00    +0.000 C 
ENDROOT
BRANCH  17  30
ATOM     30  O   UNL     1     -23.135  23.149  11.366  0.00  0.00    +0.000 OA
ATOM     31  H   UNL     1     -22.233  23.528  11.309  0.00  0.00    +0.000 HD
ENDBRANCH  17  30
BRANCH  19  32
ATOM     32  O   UNL     1     -21.378  22.083   9.528  0.00  0.00    +0.000 OA
ATOM     33  H   UNL     1     -20.592  22.261  10.080  0.00  0.00    +0.000 HD
ENDBRANCH  19  32
BRANCH  14  35
ATOM     34  O   UNL     1     -22.212  10.870   7.842  0.00  0.00    +0.000 OA
ATOM     35  C   UNL     1     -22.683  11.879   8.349  0.00  0.00    +0.000 C 
BRANCH  35  36
ATOM     36  O   UNL     1     -22.188  12.322   9.527  0.00  0.00    +0.000 OA
ATOM     37  H   UNL     1     -22.371  13.287   9.534  0.00  0.00    +0.000 HD
ENDBRANCH  35  36
ENDBRANCH  14  35
TORSDOF 4
ENDMDL
MODEL 4
REMARK VINA RESULT:      -5.9     20.125     22.804
REMARK  Name = 73659_MaslinicAcid.pdbqt.pdb
REMARK  4 active torsions:
REMARK  status: ('A' for Active; 'I' for Inactive)
REMARK    1  A    between atoms: C_14  and  C_35
REMARK    2  A    between atoms: C_17  and  O_30
REMARK    3  A    between atoms: C_19  and  O_32
REMARK    4  A    between atoms: C_35  and  O_36
REMARK                            x       y       z     vdW  Elec       q    Type
REMARK                         _______ _______ _______ _____ _____    ______ ____
ROOT
ATOM      1  C   UNL     1      -8.224   6.119  19.795  0.00  0.00    +0.000 C 
ATOM      2  C   UNL     1      -8.186   6.040  18.208  0.00  0.00    +0.000 C 
ATOM      3  C   UNL     1      -8.081   4.724  17.431  0.00  0.00    +0.000 C 
ATOM      4  C   UNL     1      -7.338   7.388  20.380  0.00  0.00    +0.000 C 
ATOM      5  C   UNL     1      -7.289   3.584  18.081  0.00  0.00    +0.000 C 
ATOM      6  C   UNL     1      -7.686   4.834  20.255  0.00  0.00    +0.000 C 
ATOM      7  C   UNL     1      -7.239   3.626  19.500  0.00  0.00    +0.000 C 
ATOM      8  C   UNL     1      -7.681   8.779  19.613  0.00  0.00    +0.000 C 
ATOM      9  C   UNL     1      -6.511   2.607  17.213  0.00  0.00    +0.000 C 
ATOM     10  C   UNL     1      -7.854  10.090  20.277  0.00  0.00    +0.000 C 
ATOM     11  C   UNL     1      -8.181   7.336  17.603  0.00  0.00    +0.000 C 
ATOM     12  C   UNL     1      -7.398   4.949  16.167  0.00  0.00    +0.000 C 
ATOM     13  C   UNL     1      -7.617   7.695  21.795  0.00  0.00    +0.000 C 
ATOM     14  C   UNL     1      -8.415  10.252  21.821  0.00  0.00    +0.000 C 
ATOM     15  C   UNL     1      -9.748   6.241  20.203  0.00  0.00    +0.000 C 
ATOM     16  C   UNL     1      -8.069   8.979  22.453  0.00  0.00    +0.000 C 
ATOM     17  C   UNL     1      -6.185   3.007  15.752  0.00  0.00    +0.000 C 
ATOM     18  C   UNL     1      -9.520   4.215  17.180  0.00  0.00    +0.000 C 
ATOM     19  C   UNL     1      -6.536   4.306  15.286  0.00  0.00    +0.000 C 
ATOM     20  C   UNL     1      -7.954   8.620  18.349  0.00  0.00    +0.000 C 
ATOM     21  C   UNL     1      -5.777   7.173  20.174  0.00  0.00    +0.000 C 
ATOM     22  C   UNL     1      -7.047  11.213  19.803  0.00  0.00    +0.000 C 
ATOM     23  C   UNL     1      -7.702  11.449  22.340  0.00  0.00    +0.000 C 
ATOM     24  C   UNL     1      -6.356  12.495  20.209  0.00  0.00    +0.000 C 
ATOM     25  C   UNL     1      -5.105   2.369  17.868  0.00  0.00    +0.000 C 
ATOM     26  C   UNL     1      -7.266   1.248  17.165  0.00  0.00    +0.000 C 
ATOM     27  C   UNL     1      -6.787  12.490  21.644  0.00  0.00    +0.000 C 
ATOM     28  C   UNL     1      -6.920  13.706  19.444  0.00  0.00    +0.000 C 
ATOM     29  C   UNL     1      -4.828  12.371  20.071  0.00  0.00    +0.000 C 
ENDROOT
BRANCH  17  30
ATOM     30  O   UNL     1      -5.577   2.153  14.835  0.00  0.00    +0.000 OA
ATOM     31  H   UNL     1      -5.357   1.291  15.247  0.00  0.00    +0.000 HD
ENDBRANCH  17  30
BRANCH  19  32
ATOM     32  O   UNL     1      -6.433   4.625  13.965  0.00  0.00    +0.000 OA
ATOM     33  H   UNL     1      -5.498   4.664  13.685  0.00  0.00    +0.000 HD
ENDBRANCH  19  32
BRANCH  14  35
ATOM     34  O   UNL     1     -10.476  11.588  21.627  0.00  0.00    +0.000 OA
ATOM     35  C   UNL     1      -9.926  10.501  21.742  0.00  0.00    +0.000 C 
BRANCH  35  36
ATOM     36  O   UNL     1     -10.681   9.388  21.885  0.00  0.00    +0.000 OA
ATOM     37  H   UNL     1     -10.166   8.674  21.450  0.00  0.00    +0.000 HD
ENDBRANCH  35  36
ENDBRANCH  14  35
TORSDOF 4
ENDMDL
MODEL 5
REMARK VINA RESULT:      -5.7      2.076      8.210
REMARK  Name = 73659_MaslinicAcid.pdbqt.pdb
REMARK  4 active torsions:
REMARK  status: ('A' for Active; 'I' for Inactive)
REMARK    1  A    between atoms: C_14  and  C_35
REMARK    2  A    between atoms: C_17  and  O_30
REMARK    3  A    between atoms: C_19  and  O_32
REMARK    4  A    between atoms: C_35  and  O_36
REMARK                            x       y       z     vdW  Elec       q    Type
REMARK                         _______ _______ _______ _____ _____    ______ ____
ROOT
ATOM      1  C   UNL     1     -16.872   5.038  -1.841  0.00  0.00    +0.000 C 
ATOM      2  C   UNL     1     -16.359   6.526  -1.630  0.00  0.00    +0.000 C 
ATOM      3  C   UNL     1     -17.296   7.726  -1.462  0.00  0.00    +0.000 C 
ATOM      4  C   UNL     1     -15.961   4.211  -2.947  0.00  0.00    +0.000 C 
ATOM      5  C   UNL     1     -18.637   7.682  -2.203  0.00  0.00    +0.000 C 
ATOM      6  C   UNL     1     -18.264   5.172  -2.286  0.00  0.00    +0.000 C 
ATOM      7  C   UNL     1     -19.128   6.376  -2.471  0.00  0.00    +0.000 C 
ATOM      8  C   UNL     1     -14.368   4.356  -2.658  0.00  0.00    +0.000 C 
ATOM      9  C   UNL     1     -19.263   8.967  -2.722  0.00  0.00    +0.000 C 
ATOM     10  C   UNL     1     -13.390   3.250  -2.742  0.00  0.00    +0.000 C 
ATOM     11  C   UNL     1     -14.933   6.621  -1.695  0.00  0.00    +0.000 C 
ATOM     12  C   UNL     1     -16.656   8.929  -1.968  0.00  0.00    +0.000 C 
ATOM     13  C   UNL     1     -16.186   2.755  -2.922  0.00  0.00    +0.000 C 
ATOM     14  C   UNL     1     -13.782   1.675  -2.442  0.00  0.00    +0.000 C 
ATOM     15  C   UNL     1     -16.829   4.341  -0.420  0.00  0.00    +0.000 C 
ATOM     16  C   UNL     1     -15.216   1.612  -2.728  0.00  0.00    +0.000 C 
ATOM     17  C   UNL     1     -18.367  10.224  -2.869  0.00  0.00    +0.000 C 
ATOM     18  C   UNL     1     -17.597   7.875   0.048  0.00  0.00    +0.000 C 
ATOM     19  C   UNL     1     -16.971  10.124  -2.607  0.00  0.00    +0.000 C 
ATOM     20  C   UNL     1     -14.032   5.521  -2.181  0.00  0.00    +0.000 C 
ATOM     21  C   UNL     1     -16.167   4.762  -4.423  0.00  0.00    +0.000 C 
ATOM     22  C   UNL     1     -12.216   3.432  -3.595  0.00  0.00    +0.000 C 
ATOM     23  C   UNL     1     -12.903   0.903  -3.361  0.00  0.00    +0.000 C 
ATOM     24  C   UNL     1     -11.216   2.729  -4.485  0.00  0.00    +0.000 C 
ATOM     25  C   UNL     1     -19.802   8.708  -4.172  0.00  0.00    +0.000 C 
ATOM     26  C   UNL     1     -20.464   9.357  -1.813  0.00  0.00    +0.000 C 
ATOM     27  C   UNL     1     -11.730   1.337  -4.277  0.00  0.00    +0.000 C 
ATOM     28  C   UNL     1      -9.779   2.896  -3.958  0.00  0.00    +0.000 C 
ATOM     29  C   UNL     1     -11.362   3.180  -5.950  0.00  0.00    +0.000 C 
ENDROOT
BRANCH  17  30
ATOM     30  O   UNL     1     -18.852  11.479  -3.227  0.00  0.00    +0.000 OA
ATOM     31  H   UNL     1     -18.616  11.698  -4.153  0.00  0.00    +0.000 HD
ENDBRANCH  17  30
BRANCH  19  32
ATOM     32  O   UNL     1     -16.191  11.239  -2.546  0.00  0.00    +0.000 OA
ATOM     33  H   UNL     1     -16.392  11.765  -1.748  0.00  0.00    +0.000 HD
ENDBRANCH  19  32
BRANCH  14  35
ATOM     34  O   UNL     1     -12.427   1.729  -0.385  0.00  0.00    +0.000 OA
ATOM     35  C   UNL     1     -13.440   1.381  -0.977  0.00  0.00    +0.000 C 
BRANCH  35  36
ATOM     36  O   UNL     1     -14.346   0.604  -0.340  0.00  0.00    +0.000 OA
ATOM     37  H   UNL     1     -13.909  -0.270  -0.245  0.00  0.00    +0.000 HD
ENDBRANCH  35  36
ENDBRANCH  14  35
TORSDOF 4
ENDMDL
MODEL 6
REMARK VINA RESULT:      -5.6     27.703     31.594
REMARK  Name = 73659_MaslinicAcid.pdbqt.pdb
REMARK  4 active torsions:
REMARK  status: ('A' for Active; 'I' for Inactive)
REMARK    1  A    between atoms: C_14  and  C_35
REMARK    2  A    between atoms: C_17  and  O_30
REMARK    3  A    between atoms: C_19  and  O_32
REMARK    4  A    between atoms: C_35  and  O_36
REMARK                            x       y       z     vdW  Elec       q    Type
REMARK                         _______ _______ _______ _____ _____    ______ ____
ROOT
ATOM      1  C   UNL     1     -13.364  15.959  28.791  0.00  0.00    +0.000 C 
ATOM      2  C   UNL     1     -13.197  14.388  28.623  0.00  0.00    +0.000 C 
ATOM      3  C   UNL     1     -13.066  13.422  29.805  0.00  0.00    +0.000 C 
ATOM      4  C   UNL     1     -12.493  16.805  27.666  0.00  0.00    +0.000 C 
ATOM      5  C   UNL     1     -12.364  13.941  31.064  0.00  0.00    +0.000 C 
ATOM      6  C   UNL     1     -12.903  16.249  30.154  0.00  0.00    +0.000 C 
ATOM      7  C   UNL     1     -12.429  15.349  31.247  0.00  0.00    +0.000 C 
ATOM      8  C   UNL     1     -12.733  16.244  26.160  0.00  0.00    +0.000 C 
ATOM      9  C   UNL     1     -11.545  12.992  31.925  0.00  0.00    +0.000 C 
ATOM     10  C   UNL     1     -12.923  17.092  24.963  0.00  0.00    +0.000 C 
ATOM     11  C   UNL     1     -13.107  13.998  27.250  0.00  0.00    +0.000 C 
ATOM     12  C   UNL     1     -12.276  12.266  29.414  0.00  0.00    +0.000 C 
ATOM     13  C   UNL     1     -12.879  18.225  27.573  0.00  0.00    +0.000 C 
ATOM     14  C   UNL     1     -13.604  18.595  25.021  0.00  0.00    +0.000 C 
ATOM     15  C   UNL     1     -14.912  16.263  28.673  0.00  0.00    +0.000 C 
ATOM     16  C   UNL     1     -13.347  19.041  26.390  0.00  0.00    +0.000 C 
ATOM     17  C   UNL     1     -11.088  11.642  31.316  0.00  0.00    +0.000 C 
ATOM     18  C   UNL     1     -14.494  12.983  30.210  0.00  0.00    +0.000 C 
ATOM     19  C   UNL     1     -11.362  11.362  29.946  0.00  0.00    +0.000 C 
ATOM     20  C   UNL     1     -12.905  14.954  26.109  0.00  0.00    +0.000 C 
ATOM     21  C   UNL     1     -10.928  16.687  27.910  0.00  0.00    +0.000 C 
ATOM     22  C   UNL     1     -12.047  16.866  23.814  0.00  0.00    +0.000 C 
ATOM     23  C   UNL     1     -12.902  19.350  23.950  0.00  0.00    +0.000 C 
ATOM     24  C   UNL     1     -11.356  17.522  22.640  0.00  0.00    +0.000 C 
ATOM     25  C   UNL     1     -10.205  13.707  32.319  0.00  0.00    +0.000 C 
ATOM     26  C   UNL     1     -12.332  12.671  33.228  0.00  0.00    +0.000 C 
ATOM     27  C   UNL     1     -11.904  18.901  22.851  0.00  0.00    +0.000 C 
ATOM     28  C   UNL     1     -11.820  16.918  21.302  0.00  0.00    +0.000 C 
ATOM     29  C   UNL     1      -9.825  17.484  22.803  0.00  0.00    +0.000 C 
ENDROOT
BRANCH  17  30
ATOM     30  O   UNL     1     -10.432  10.650  32.041  0.00  0.00    +0.000 OA
ATOM     31  H   UNL     1      -9.498  10.896  32.210  0.00  0.00    +0.000 HD
ENDBRANCH  17  30
BRANCH  19  32
ATOM     32  O   UNL     1     -11.143  10.121  29.430  0.00  0.00    +0.000 OA
ATOM     33  H   UNL     1     -11.911   9.537  29.580  0.00  0.00    +0.000 HD
ENDBRANCH  19  32
BRANCH  14  35
ATOM     34  O   UNL     1     -15.581  18.224  23.599  0.00  0.00    +0.000 OA
ATOM     35  C   UNL     1     -15.095  18.441  24.701  0.00  0.00    +0.000 C 
BRANCH  35  36
ATOM     36  O   UNL     1     -15.914  18.639  25.759  0.00  0.00    +0.000 OA
ATOM     37  H   UNL     1     -16.322  17.762  25.932  0.00  0.00    +0.000 HD
ENDBRANCH  35  36
ENDBRANCH  14  35
TORSDOF 4
ENDMDL
MODEL 7
REMARK VINA RESULT:      -5.5     12.607     14.821
REMARK  Name = 73659_MaslinicAcid.pdbqt.pdb
REMARK  4 active torsions:
REMARK  status: ('A' for Active; 'I' for Inactive)
REMARK    1  A    between atoms: C_14  and  C_35
REMARK    2  A    between atoms: C_17  and  O_30
REMARK    3  A    between atoms: C_19  and  O_32
REMARK    4  A    between atoms: C_35  and  O_36
REMARK                            x       y       z     vdW  Elec       q    Type
REMARK                         _______ _______ _______ _____ _____    ______ ____
ROOT
ATOM      1  C   UNL     1      -3.166   1.788   2.377  0.00  0.00    +0.000 C 
ATOM      2  C   UNL     1      -3.531   1.139   0.973  0.00  0.00    +0.000 C 
ATOM      3  C   UNL     1      -4.080  -0.282   0.817  0.00  0.00    +0.000 C 
ATOM      4  C   UNL     1      -1.780   2.689   2.310  0.00  0.00    +0.000 C 
ATOM      5  C   UNL     1      -3.612  -1.333   1.830  0.00  0.00    +0.000 C 
ATOM      6  C   UNL     1      -3.023   0.654   3.297  0.00  0.00    +0.000 C 
ATOM      7  C   UNL     1      -3.219  -0.812   3.092  0.00  0.00    +0.000 C 
ATOM      8  C   UNL     1      -1.781   3.721   1.055  0.00  0.00    +0.000 C 
ATOM      9  C   UNL     1      -3.453  -2.784   1.402  0.00  0.00    +0.000 C 
ATOM     10  C   UNL     1      -1.322   5.126   1.115  0.00  0.00    +0.000 C 
ATOM     11  C   UNL     1      -3.213   2.005  -0.121  0.00  0.00    +0.000 C 
ATOM     12  C   UNL     1      -3.678  -0.830  -0.468  0.00  0.00    +0.000 C 
ATOM     13  C   UNL     1      -1.594   3.567   3.480  0.00  0.00    +0.000 C 
ATOM     14  C   UNL     1      -1.412   6.046   2.482  0.00  0.00    +0.000 C 
ATOM     15  C   UNL     1      -4.409   2.670   2.803  0.00  0.00    +0.000 C 
ATOM     16  C   UNL     1      -1.398   5.063   3.566  0.00  0.00    +0.000 C 
ATOM     17  C   UNL     1      -3.359  -3.107  -0.111  0.00  0.00    +0.000 C 
ATOM     18  C   UNL     1      -5.623  -0.198   0.906  0.00  0.00    +0.000 C 
ATOM     19  C   UNL     1      -3.329  -2.041  -1.055  0.00  0.00    +0.000 C 
ATOM     20  C   UNL     1      -2.381   3.250  -0.002  0.00  0.00    +0.000 C 
ATOM     21  C   UNL     1      -0.489   1.786   2.105  0.00  0.00    +0.000 C 
ATOM     22  C   UNL     1      -0.306   5.559   0.157  0.00  0.00    +0.000 C 
ATOM     23  C   UNL     1      -0.223   6.935   2.397  0.00  0.00    +0.000 C 
ATOM     24  C   UNL     1       0.866   6.489  -0.065  0.00  0.00    +0.000 C 
ATOM     25  C   UNL     1      -2.109  -3.334   1.996  0.00  0.00    +0.000 C 
ATOM     26  C   UNL     1      -4.627  -3.623   1.984  0.00  0.00    +0.000 C 
ATOM     27  C   UNL     1       0.809   7.176   1.266  0.00  0.00    +0.000 C 
ATOM     28  C   UNL     1       0.602   7.463  -1.227  0.00  0.00    +0.000 C 
ATOM     29  C   UNL     1       2.175   5.699  -0.245  0.00  0.00    +0.000 C 
ENDROOT
BRANCH  17  30
ATOM     30  O   UNL     1      -3.323  -4.402  -0.623  0.00  0.00    +0.000 OA
ATOM     31  H   UNL     1      -2.400  -4.706  -0.750  0.00  0.00    +0.000 HD
ENDBRANCH  17  30
BRANCH  19  32
ATOM     32  O   UNL     1      -3.433  -2.289  -2.390  0.00  0.00    +0.000 OA
ATOM     33  H   UNL     1      -2.998  -3.131  -2.626  0.00  0.00    +0.000 HD
ENDBRANCH  19  32
BRANCH  14  35
ATOM     34  O   UNL     1      -3.277   7.233   1.394  0.00  0.00    +0.000 OA
ATOM     35  C   UNL     1      -2.712   6.856   2.412  0.00  0.00    +0.000 C 
BRANCH  35  36
ATOM     36  O   UNL     1      -3.206   7.219   3.617  0.00  0.00    +0.000 OA
ATOM     37  H   UNL     1      -3.737   8.027   3.442  0.00  0.00    +0.000 HD
ENDBRANCH  35  36
ENDBRANCH  14  35
TORSDOF 4
ENDMDL
MODEL 8
REMARK VINA RESULT:      -5.4     26.134     29.817
REMARK  Name = 73659_MaslinicAcid.pdbqt.pdb
REMARK  4 active torsions:
REMARK  status: ('A' for Active; 'I' for Inactive)
REMARK    1  A    between atoms: C_14  and  C_35
REMARK    2  A    between atoms: C_17  and  O_30
REMARK    3  A    between atoms: C_19  and  O_32
REMARK    4  A    between atoms: C_35  and  O_36
REMARK                            x       y       z     vdW  Elec       q    Type
REMARK                         _______ _______ _______ _____ _____    ______ ____
ROOT
ATOM      1  C   UNL     1     -10.344  17.863  22.896  0.00  0.00    +0.000 C 
ATOM      2  C   UNL     1     -11.794  17.813  22.250  0.00  0.00    +0.000 C 
ATOM      3  C   UNL     1     -12.286  18.814  21.200  0.00  0.00    +0.000 C 
ATOM      4  C   UNL     1     -10.367  17.519  24.514  0.00  0.00    +0.000 C 
ATOM      5  C   UNL     1     -11.746  20.246  21.286  0.00  0.00    +0.000 C 
ATOM      6  C   UNL     1      -9.860  19.226  22.645  0.00  0.00    +0.000 C 
ATOM      7  C   UNL     1     -10.473  20.368  21.904  0.00  0.00    +0.000 C 
ATOM      8  C   UNL     1     -11.220  16.176  24.842  0.00  0.00    +0.000 C 
ATOM      9  C   UNL     1     -12.624  21.417  20.868  0.00  0.00    +0.000 C 
ATOM     10  C   UNL     1     -10.808  15.124  25.798  0.00  0.00    +0.000 C 
ATOM     11  C   UNL     1     -12.604  16.779  22.819  0.00  0.00    +0.000 C 
ATOM     12  C   UNL     1     -13.727  18.976  21.307  0.00  0.00    +0.000 C 
ATOM     13  C   UNL     1      -9.033  17.227  25.071  0.00  0.00    +0.000 C 
ATOM     14  C   UNL     1      -9.228  14.772  26.123  0.00  0.00    +0.000 C 
ATOM     15  C   UNL     1      -9.458  16.824  22.096  0.00  0.00    +0.000 C 
ATOM     16  C   UNL     1      -8.522  16.016  25.818  0.00  0.00    +0.000 C 
ATOM     17  C   UNL     1     -14.154  21.198  20.764  0.00  0.00    +0.000 C 
ATOM     18  C   UNL     1     -11.911  18.253  19.808  0.00  0.00    +0.000 C 
ATOM     19  C   UNL     1     -14.712  19.945  21.148  0.00  0.00    +0.000 C 
ATOM     20  C   UNL     1     -12.251  16.013  24.062  0.00  0.00    +0.000 C 
ATOM     21  C   UNL     1     -11.062  18.671  25.360  0.00  0.00    +0.000 C 
ATOM     22  C   UNL     1     -11.744  14.751  26.856  0.00  0.00    +0.000 C 
ATOM     23  C   UNL     1      -9.237  14.365  27.554  0.00  0.00    +0.000 C 
ATOM     24  C   UNL     1     -11.865  14.256  28.280  0.00  0.00    +0.000 C 
ATOM     25  C   UNL     1     -12.471  22.558  21.933  0.00  0.00    +0.000 C 
ATOM     26  C   UNL     1     -12.137  21.959  19.494  0.00  0.00    +0.000 C 
ATOM     27  C   UNL     1     -10.399  14.104  28.547  0.00  0.00    +0.000 C 
ATOM     28  C   UNL     1     -12.604  12.908  28.348  0.00  0.00    +0.000 C 
ATOM     29  C   UNL     1     -12.505  15.324  29.187  0.00  0.00    +0.000 C 
ENDROOT
BRANCH  17  30
ATOM     30  O   UNL     1     -15.041  22.161  20.287  0.00  0.00    +0.000 OA
ATOM     31  H   UNL     1     -14.618  22.722  19.604  0.00  0.00    +0.000 HD
ENDBRANCH  17  30
BRANCH  19  32
ATOM     32  O   UNL     1     -16.019  19.657  20.897  0.00  0.00    +0.000 OA
ATOM     33  H   UNL     1     -16.534  20.472  20.739  0.00  0.00    +0.000 HD
ENDBRANCH  19  32
BRANCH  14  35
ATOM     34  O   UNL     1      -8.903  13.564  24.001  0.00  0.00    +0.000 OA
ATOM     35  C   UNL     1      -8.818  13.602  25.221  0.00  0.00    +0.000 C 
BRANCH  35  36
ATOM     36  O   UNL     1      -8.391  12.507  25.890  0.00  0.00    +0.000 OA
ATOM     37  H   UNL     1      -7.737  12.083  25.293  0.00  0.00    +0.000 HD
ENDBRANCH  35  36
ENDBRANCH  14  35
TORSDOF 4
ENDMDL
MODEL 9
REMARK VINA RESULT:      -5.4      9.726     13.707
REMARK  Name = 73659_MaslinicAcid.pdbqt.pdb
REMARK  4 active torsions:
REMARK  status: ('A' for Active; 'I' for Inactive)
REMARK    1  A    between atoms: C_14  and  C_35
REMARK    2  A    between atoms: C_17  and  O_30
REMARK    3  A    between atoms: C_19  and  O_32
REMARK    4  A    between atoms: C_35  and  O_36
REMARK                            x       y       z     vdW  Elec       q    Type
REMARK                         _______ _______ _______ _____ _____    ______ ____
ROOT
ATOM      1  C   UNL     1      -4.971  -0.724   1.863  0.00  0.00    +0.000 C 
ATOM      2  C   UNL     1      -6.285  -0.176   2.568  0.00  0.00    +0.000 C 
ATOM      3  C   UNL     1      -7.670  -0.802   2.376  0.00  0.00    +0.000 C 
ATOM      4  C   UNL     1      -3.984   0.498   1.342  0.00  0.00    +0.000 C 
ATOM      5  C   UNL     1      -7.973  -1.438   1.015  0.00  0.00    +0.000 C 
ATOM      6  C   UNL     1      -5.450  -1.540   0.742  0.00  0.00    +0.000 C 
ATOM      7  C   UNL     1      -6.832  -1.902   0.306  0.00  0.00    +0.000 C 
ATOM      8  C   UNL     1      -3.732   1.615   2.494  0.00  0.00    +0.000 C 
ATOM      9  C   UNL     1      -9.387  -1.401   0.455  0.00  0.00    +0.000 C 
ATOM     10  C   UNL     1      -2.425   2.241   2.794  0.00  0.00    +0.000 C 
ATOM     11  C   UNL     1      -6.035   1.008   3.332  0.00  0.00    +0.000 C 
ATOM     12  C   UNL     1      -8.698   0.215   2.524  0.00  0.00    +0.000 C 
ATOM     13  C   UNL     1      -2.625   0.045   0.994  0.00  0.00    +0.000 C 
ATOM     14  C   UNL     1      -0.983   1.474   2.555  0.00  0.00    +0.000 C 
ATOM     15  C   UNL     1      -4.241  -1.644   2.924  0.00  0.00    +0.000 C 
ATOM     16  C   UNL     1      -1.276   0.496   1.508  0.00  0.00    +0.000 C 
ATOM     17  C   UNL     1     -10.394  -0.382   1.046  0.00  0.00    +0.000 C 
ATOM     18  C   UNL     1      -7.840  -1.897   3.456  0.00  0.00    +0.000 C 
ATOM     19  C   UNL     1      -9.953   0.552   2.027  0.00  0.00    +0.000 C 
ATOM     20  C   UNL     1      -4.767   1.809   3.262  0.00  0.00    +0.000 C 
ATOM     21  C   UNL     1      -4.614   1.295   0.120  0.00  0.00    +0.000 C 
ATOM     22  C   UNL     1      -2.345   3.701   2.791  0.00  0.00    +0.000 C 
ATOM     23  C   UNL     1      -0.051   2.570   2.177  0.00  0.00    +0.000 C 
ATOM     24  C   UNL     1      -1.450   4.888   2.516  0.00  0.00    +0.000 C 
ATOM     25  C   UNL     1      -9.310  -1.026  -1.066  0.00  0.00    +0.000 C 
ATOM     26  C   UNL     1     -10.026  -2.814   0.581  0.00  0.00    +0.000 C 
ATOM     27  C   UNL     1      -0.217   4.111   2.166  0.00  0.00    +0.000 C 
ATOM     28  C   UNL     1      -1.250   5.747   3.778  0.00  0.00    +0.000 C 
ATOM     29  C   UNL     1      -1.968   5.709   1.321  0.00  0.00    +0.000 C 
ENDROOT
BRANCH  17  30
ATOM     30  O   UNL     1     -11.740  -0.333   0.691  0.00  0.00    +0.000 OA
ATOM     31  H   UNL     1     -12.142   0.522   0.951  0.00  0.00    +0.000 HD
ENDBRANCH  17  30
BRANCH  19  32
ATOM     32  O   UNL     1     -10.845   1.332   2.698  0.00  0.00    +0.000 OA
ATOM     33  H   UNL     1     -11.564   1.630   2.108  0.00  0.00    +0.000 HD
ENDBRANCH  19  32
BRANCH  14  35
ATOM     34  O   UNL     1      -0.944  -0.247   4.318  0.00  0.00    +0.000 OA
ATOM     35  C   UNL     1      -0.571   0.836   3.887  0.00  0.00    +0.000 C 
BRANCH  35  36
ATOM     36  O   UNL     1       0.230   1.613   4.651  0.00  0.00    +0.000 OA
ATOM     37  H   UNL     1       1.044   1.082   4.788  0.00  0.00    +0.000 HD
ENDBRANCH  35  36
ENDBRANCH  14  35
TORSDOF 4
ENDMDL
