MODEL 1
REMARK VINA RESULT:      -4.0      0.000      0.000
REMARK  Name = 76617_Cardol.pdbqt.pdb
REMARK  10 active torsions:
REMARK  status: ('A' for Active; 'I' for Inactive)
REMARK    1  A    between atoms: C_1  and  C_2
REMARK    2  A    between atoms: C_3  and  C_4
REMARK    3  A    between atoms: C_5  and  C_6
REMARK    4  A    between atoms: C_7  and  C_8
REMARK    5  A    between atoms: C_8  and  C_9
REMARK    6  A    between atoms: C_10  and  C_11
REMARK    7  A    between atoms: C_14  and  C_15
REMARK    8  A    between atoms: C_15  and  C_16
REMARK    9  A    between atoms: C_19  and  O_24
REMARK   10  A    between atoms: C_20  and  O_22
REMARK                            x       y       z     vdW  Elec       q    Type
REMARK                         _______ _______ _______ _____ _____    ______ ____
ROOT
ATOM      1  C   UNL     1     -11.149  18.528  19.089  0.00  0.00    +0.000 C 
ATOM      2  C   UNL     1     -11.938  18.618  19.989  0.00  0.00    +0.000 C 
ENDROOT
BRANCH   1   3
ATOM      3  C   UNL     1     -10.144  18.415  17.939  0.00  0.00    +0.000 C 
ATOM      4  C   UNL     1      -9.137  18.300  16.789  0.00  0.00    +0.000 C 
BRANCH   4   5
ATOM      5  C   UNL     1      -8.133  18.184  15.640  0.00  0.00    +0.000 C 
ATOM      6  C   UNL     1      -7.128  18.068  14.490  0.00  0.00    +0.000 C 
BRANCH   6   7
ATOM      7  C   UNL     1      -6.123  17.952  13.339  0.00  0.00    +0.000 C 
ATOM      8  C   UNL     1      -5.120  17.836  12.188  0.00  0.00    +0.000 C 
BRANCH   8   9
ATOM      9  C   UNL     1      -4.116  17.720  11.038  0.00  0.00    +0.000 C 
BRANCH   9  10
ATOM     10  C   UNL     1      -3.113  17.604   9.885  0.00  0.00    +0.000 C 
ATOM     11  C   UNL     1      -2.110  17.491   8.734  0.00  0.00    +0.000 C 
BRANCH  11  12
ATOM     12  C   UNL     1      -1.107  17.376   7.581  0.00  0.00    +0.000 C 
ATOM     13  C   UNL     1      -0.105  17.263   6.429  0.00  0.00    +0.000 C 
ATOM     14  C   UNL     1       0.898  17.148   5.276  0.00  0.00    +0.000 C 
ENDBRANCH  11  12
ENDBRANCH   9  10
ENDBRANCH   8   9
ENDBRANCH   6   7
ENDBRANCH   4   5
ENDBRANCH   1   3
BRANCH   2  15
ATOM     15  C   UNL     1     -12.943  18.731  21.139  0.00  0.00    +0.000 C 
BRANCH  15  16
ATOM     16  C   UNL     1     -13.878  18.838  22.209  0.00  0.00    +0.000 A 
ATOM     17  C   UNL     1     -13.661  18.136  23.393  0.00  0.00    +0.000 A 
ATOM     18  C   UNL     1     -15.005  19.644  22.066  0.00  0.00    +0.000 A 
ATOM     19  C   UNL     1     -15.913  19.742  23.118  0.00  0.00    +0.000 A 
ATOM     20  C   UNL     1     -14.580  18.247  24.433  0.00  0.00    +0.000 A 
ATOM     21  C   UNL     1     -15.711  19.047  24.306  0.00  0.00    +0.000 A 
BRANCH  20  22
ATOM     22  O   UNL     1     -14.390  17.570  25.603  0.00  0.00    +0.000 OA
ATOM     23  H   UNL     1     -14.687  18.134  26.337  0.00  0.00    +0.000 HD
ENDBRANCH  20  22
BRANCH  19  24
ATOM     24  O   UNL     1     -17.026  20.525  23.004  0.00  0.00    +0.000 OA
ATOM     25  H   UNL     1     -16.923  21.092  22.221  0.00  0.00    +0.000 HD
ENDBRANCH  19  24
ENDBRANCH  15  16
ENDBRANCH   2  15
TORSDOF 10
ENDMDL
MODEL 2
REMARK VINA RESULT:      -4.0     22.040     22.939
REMARK  Name = 76617_Cardol.pdbqt.pdb
REMARK  10 active torsions:
REMARK  status: ('A' for Active; 'I' for Inactive)
REMARK    1  A    between atoms: C_1  and  C_2
REMARK    2  A    between atoms: C_3  and  C_4
REMARK    3  A    between atoms: C_5  and  C_6
REMARK    4  A    between atoms: C_7  and  C_8
REMARK    5  A    between atoms: C_8  and  C_9
REMARK    6  A    between atoms: C_10  and  C_11
REMARK    7  A    between atoms: C_14  and  C_15
REMARK    8  A    between atoms: C_15  and  C_16
REMARK    9  A    between atoms: C_19  and  O_24
REMARK   10  A    between atoms: C_20  and  O_22
REMARK                            x       y       z     vdW  Elec       q    Type
REMARK                         _______ _______ _______ _____ _____    ______ ____
ROOT
ATOM      1  C   UNL     1      -4.323   2.855   2.586  0.00  0.00    +0.000 C 
ATOM      2  C   UNL     1      -5.382   2.310   2.439  0.00  0.00    +0.000 C 
ENDROOT
BRANCH   1   3
ATOM      3  C   UNL     1      -2.971   3.549   2.773  0.00  0.00    +0.000 C 
ATOM      4  C   UNL     1      -1.618   4.245   2.960  0.00  0.00    +0.000 C 
BRANCH   4   5
ATOM      5  C   UNL     1      -0.268   4.941   3.147  0.00  0.00    +0.000 C 
ATOM      6  C   UNL     1       1.083   5.638   3.335  0.00  0.00    +0.000 C 
BRANCH   6   7
ATOM      7  C   UNL     1       2.434   6.335   3.523  0.00  0.00    +0.000 C 
ATOM      8  C   UNL     1       3.785   7.032   3.712  0.00  0.00    +0.000 C 
BRANCH   8   9
ATOM      9  C   UNL     1       5.135   7.729   3.900  0.00  0.00    +0.000 C 
BRANCH   9  10
ATOM     10  C   UNL     1       6.487   8.426   4.089  0.00  0.00    +0.000 C 
ATOM     11  C   UNL     1       7.838   9.120   4.277  0.00  0.00    +0.000 C 
BRANCH  11  12
ATOM     12  C   UNL     1       9.190   9.815   4.466  0.00  0.00    +0.000 C 
ATOM     13  C   UNL     1      10.541  10.510   4.656  0.00  0.00    +0.000 C 
ATOM     14  C   UNL     1      11.894  11.206   4.845  0.00  0.00    +0.000 C 
ENDBRANCH  11  12
ENDBRANCH   9  10
ENDBRANCH   8   9
ENDBRANCH   6   7
ENDBRANCH   4   5
ENDBRANCH   1   3
BRANCH   2  15
ATOM     15  C   UNL     1      -6.735   1.616   2.252  0.00  0.00    +0.000 C 
BRANCH  15  16
ATOM     16  C   UNL     1      -7.993   0.971   2.077  0.00  0.00    +0.000 A 
ATOM     17  C   UNL     1      -8.080  -0.182   1.299  0.00  0.00    +0.000 A 
ATOM     18  C   UNL     1      -9.131   1.497   2.685  0.00  0.00    +0.000 A 
ATOM     19  C   UNL     1     -10.357   0.860   2.508  0.00  0.00    +0.000 A 
ATOM     20  C   UNL     1      -9.315  -0.804   1.136  0.00  0.00    +0.000 A 
ATOM     21  C   UNL     1     -10.461  -0.292   1.735  0.00  0.00    +0.000 A 
BRANCH  20  22
ATOM     22  O   UNL     1      -9.427  -1.935   0.379  0.00  0.00    +0.000 OA
ATOM     23  H   UNL     1      -9.540  -1.673  -0.551  0.00  0.00    +0.000 HD
ENDBRANCH  20  22
BRANCH  19  24
ATOM     24  O   UNL     1     -11.488   1.355   3.092  0.00  0.00    +0.000 OA
ATOM     25  H   UNL     1     -12.251   0.853   2.756  0.00  0.00    +0.000 HD
ENDBRANCH  19  24
ENDBRANCH  15  16
ENDBRANCH   2  15
TORSDOF 10
ENDMDL
MODEL 3
REMARK VINA RESULT:      -4.0      4.983      5.117
REMARK  Name = 76617_Cardol.pdbqt.pdb
REMARK  10 active torsions:
REMARK  status: ('A' for Active; 'I' for Inactive)
REMARK    1  A    between atoms: C_1  and  C_2
REMARK    2  A    between atoms: C_3  and  C_4
REMARK    3  A    between atoms: C_5  and  C_6
REMARK    4  A    between atoms: C_7  and  C_8
REMARK    5  A    between atoms: C_8  and  C_9
REMARK    6  A    between atoms: C_10  and  C_11
REMARK    7  A    between atoms: C_14  and  C_15
REMARK    8  A    between atoms: C_15  and  C_16
REMARK    9  A    between atoms: C_19  and  O_24
REMARK   10  A    between atoms: C_20  and  O_22
REMARK                            x       y       z     vdW  Elec       q    Type
REMARK                         _______ _______ _______ _____ _____    ______ ____
ROOT
ATOM      1  C   UNL     1     -10.708  17.502  20.309  0.00  0.00    +0.000 C 
ATOM      2  C   UNL     1     -11.755  17.868  20.767  0.00  0.00    +0.000 C 
ENDROOT
BRANCH   1   3
ATOM      3  C   UNL     1      -9.372  17.035  19.723  0.00  0.00    +0.000 C 
ATOM      4  C   UNL     1      -8.037  16.566  19.137  0.00  0.00    +0.000 C 
BRANCH   4   5
ATOM      5  C   UNL     1      -6.702  16.099  18.550  0.00  0.00    +0.000 C 
ATOM      6  C   UNL     1      -5.368  15.631  17.961  0.00  0.00    +0.000 C 
BRANCH   6   7
ATOM      7  C   UNL     1      -4.033  15.162  17.373  0.00  0.00    +0.000 C 
ATOM      8  C   UNL     1      -2.699  14.694  16.786  0.00  0.00    +0.000 C 
BRANCH   8   9
ATOM      9  C   UNL     1      -1.364  14.226  16.198  0.00  0.00    +0.000 C 
BRANCH   9  10
ATOM     10  C   UNL     1      -0.028  13.758  15.612  0.00  0.00    +0.000 C 
ATOM     11  C   UNL     1       1.307  13.292  15.026  0.00  0.00    +0.000 C 
BRANCH  11  12
ATOM     12  C   UNL     1       2.643  12.825  14.439  0.00  0.00    +0.000 C 
ATOM     13  C   UNL     1       3.978  12.357  13.851  0.00  0.00    +0.000 C 
ATOM     14  C   UNL     1       5.313  11.890  13.264  0.00  0.00    +0.000 C 
ENDBRANCH  11  12
ENDBRANCH   9  10
ENDBRANCH   8   9
ENDBRANCH   6   7
ENDBRANCH   4   5
ENDBRANCH   1   3
BRANCH   2  15
ATOM     15  C   UNL     1     -13.091  18.336  21.354  0.00  0.00    +0.000 C 
BRANCH  15  16
ATOM     16  C   UNL     1     -14.332  18.771  21.900  0.00  0.00    +0.000 A 
ATOM     17  C   UNL     1     -14.614  18.548  23.247  0.00  0.00    +0.000 A 
ATOM     18  C   UNL     1     -15.259  19.418  21.085  0.00  0.00    +0.000 A 
ATOM     19  C   UNL     1     -16.470  19.839  21.629  0.00  0.00    +0.000 A 
ATOM     20  C   UNL     1     -15.831  18.978  23.771  0.00  0.00    +0.000 A 
ATOM     21  C   UNL     1     -16.767  19.624  22.971  0.00  0.00    +0.000 A 
BRANCH  20  22
ATOM     22  O   UNL     1     -16.130  18.772  25.087  0.00  0.00    +0.000 OA
ATOM     23  H   UNL     1     -15.298  18.724  25.588  0.00  0.00    +0.000 HD
ENDBRANCH  20  22
BRANCH  19  24
ATOM     24  O   UNL     1     -17.397  20.475  20.852  0.00  0.00    +0.000 OA
ATOM     25  H   UNL     1     -16.952  21.195  20.373  0.00  0.00    +0.000 HD
ENDBRANCH  19  24
ENDBRANCH  15  16
ENDBRANCH   2  15
TORSDOF 10
ENDMDL
MODEL 4
REMARK VINA RESULT:      -3.9     15.297     18.615
REMARK  Name = 76617_Cardol.pdbqt.pdb
REMARK  10 active torsions:
REMARK  status: ('A' for Active; 'I' for Inactive)
REMARK    1  A    between atoms: C_1  and  C_2
REMARK    2  A    between atoms: C_3  and  C_4
REMARK    3  A    between atoms: C_5  and  C_6
REMARK    4  A    between atoms: C_7  and  C_8
REMARK    5  A    between atoms: C_8  and  C_9
REMARK    6  A    between atoms: C_10  and  C_11
REMARK    7  A    between atoms: C_14  and  C_15
REMARK    8  A    between atoms: C_15  and  C_16
REMARK    9  A    between atoms: C_19  and  O_24
REMARK   10  A    between atoms: C_20  and  O_22
REMARK                            x       y       z     vdW  Elec       q    Type
REMARK                         _______ _______ _______ _____ _____    ______ ____
ROOT
ATOM      1  C   UNL     1     -21.791  17.127  10.939  0.00  0.00    +0.000 C 
ATOM      2  C   UNL     1     -22.056  16.132  10.324  0.00  0.00    +0.000 C 
ENDROOT
BRANCH   1   3
ATOM      3  C   UNL     1     -21.452  18.397  11.725  0.00  0.00    +0.000 C 
ATOM      4  C   UNL     1     -21.111  19.667  12.512  0.00  0.00    +0.000 C 
BRANCH   4   5
ATOM      5  C   UNL     1     -20.771  20.937  13.296  0.00  0.00    +0.000 C 
ATOM      6  C   UNL     1     -20.432  22.207  14.081  0.00  0.00    +0.000 C 
BRANCH   6   7
ATOM      7  C   UNL     1     -20.092  23.478  14.867  0.00  0.00    +0.000 C 
ATOM      8  C   UNL     1     -19.753  24.748  15.652  0.00  0.00    +0.000 C 
BRANCH   8   9
ATOM      9  C   UNL     1     -19.415  26.018  16.437  0.00  0.00    +0.000 C 
BRANCH   9  10
ATOM     10  C   UNL     1     -19.076  27.289  17.225  0.00  0.00    +0.000 C 
ATOM     11  C   UNL     1     -18.739  28.558  18.011  0.00  0.00    +0.000 C 
BRANCH  11  12
ATOM     12  C   UNL     1     -18.400  29.829  18.797  0.00  0.00    +0.000 C 
ATOM     13  C   UNL     1     -18.061  31.099  19.583  0.00  0.00    +0.000 C 
ATOM     14  C   UNL     1     -17.722  32.369  20.369  0.00  0.00    +0.000 C 
ENDBRANCH  11  12
ENDBRANCH   9  10
ENDBRANCH   8   9
ENDBRANCH   6   7
ENDBRANCH   4   5
ENDBRANCH   1   3
BRANCH   2  15
ATOM     15  C   UNL     1     -22.395  14.861   9.536  0.00  0.00    +0.000 C 
BRANCH  15  16
ATOM     16  C   UNL     1     -22.711  13.681   8.806  0.00  0.00    +0.000 A 
ATOM     17  C   UNL     1     -22.096  12.474   9.135  0.00  0.00    +0.000 A 
ATOM     18  C   UNL     1     -23.636  13.737   7.764  0.00  0.00    +0.000 A 
ATOM     19  C   UNL     1     -23.939  12.577   7.056  0.00  0.00    +0.000 A 
ATOM     20  C   UNL     1     -22.413  11.326   8.414  0.00  0.00    +0.000 A 
ATOM     21  C   UNL     1     -23.332  11.365   7.372  0.00  0.00    +0.000 A 
BRANCH  20  22
ATOM     22  O   UNL     1     -21.823  10.132   8.717  0.00  0.00    +0.000 OA
ATOM     23  H   UNL     1     -22.265   9.762   9.501  0.00  0.00    +0.000 HD
ENDBRANCH  20  22
BRANCH  19  24
ATOM     24  O   UNL     1     -24.840  12.604   6.030  0.00  0.00    +0.000 OA
ATOM     25  H   UNL     1     -25.641  12.129   6.314  0.00  0.00    +0.000 HD
ENDBRANCH  19  24
ENDBRANCH  15  16
ENDBRANCH   2  15
TORSDOF 10
ENDMDL
MODEL 5
REMARK VINA RESULT:      -3.9     13.557     14.260
REMARK  Name = 76617_Cardol.pdbqt.pdb
REMARK  10 active torsions:
REMARK  status: ('A' for Active; 'I' for Inactive)
REMARK    1  A    between atoms: C_1  and  C_2
REMARK    2  A    between atoms: C_3  and  C_4
REMARK    3  A    between atoms: C_5  and  C_6
REMARK    4  A    between atoms: C_7  and  C_8
REMARK    5  A    between atoms: C_8  and  C_9
REMARK    6  A    between atoms: C_10  and  C_11
REMARK    7  A    between atoms: C_14  and  C_15
REMARK    8  A    between atoms: C_15  and  C_16
REMARK    9  A    between atoms: C_19  and  O_24
REMARK   10  A    between atoms: C_20  and  O_22
REMARK                            x       y       z     vdW  Elec       q    Type
REMARK                         _______ _______ _______ _____ _____    ______ ____
ROOT
ATOM      1  C   UNL     1      -7.673   4.858  17.842  0.00  0.00    +0.000 C 
ATOM      2  C   UNL     1      -8.698   4.808  18.464  0.00  0.00    +0.000 C 
ENDROOT
BRANCH   1   3
ATOM      3  C   UNL     1      -6.365   4.923  17.048  0.00  0.00    +0.000 C 
ATOM      4  C   UNL     1      -5.056   4.988  16.254  0.00  0.00    +0.000 C 
BRANCH   4   5
ATOM      5  C   UNL     1      -3.747   5.053  15.462  0.00  0.00    +0.000 C 
ATOM      6  C   UNL     1      -2.439   5.118  14.669  0.00  0.00    +0.000 C 
BRANCH   6   7
ATOM      7  C   UNL     1      -1.130   5.183  13.875  0.00  0.00    +0.000 C 
ATOM      8  C   UNL     1       0.179   5.247  13.083  0.00  0.00    +0.000 C 
BRANCH   8   9
ATOM      9  C   UNL     1       1.488   5.312  12.291  0.00  0.00    +0.000 C 
BRANCH   9  10
ATOM     10  C   UNL     1       2.797   5.375  11.498  0.00  0.00    +0.000 C 
ATOM     11  C   UNL     1       4.107   5.438  10.708  0.00  0.00    +0.000 C 
BRANCH  11  12
ATOM     12  C   UNL     1       5.418   5.502   9.916  0.00  0.00    +0.000 C 
ATOM     13  C   UNL     1       6.727   5.567   9.126  0.00  0.00    +0.000 C 
ATOM     14  C   UNL     1       8.038   5.631   8.334  0.00  0.00    +0.000 C 
ENDBRANCH  11  12
ENDBRANCH   9  10
ENDBRANCH   8   9
ENDBRANCH   6   7
ENDBRANCH   4   5
ENDBRANCH   1   3
BRANCH   2  15
ATOM     15  C   UNL     1     -10.006   4.742  19.259  0.00  0.00    +0.000 C 
BRANCH  15  16
ATOM     16  C   UNL     1     -11.222   4.680  19.998  0.00  0.00    +0.000 A 
ATOM     17  C   UNL     1     -12.172   3.707  19.692  0.00  0.00    +0.000 A 
ATOM     18  C   UNL     1     -11.456   5.592  21.025  0.00  0.00    +0.000 A 
ATOM     19  C   UNL     1     -12.648   5.524  21.742  0.00  0.00    +0.000 A 
ATOM     20  C   UNL     1     -13.357   3.655  20.421  0.00  0.00    +0.000 A 
ATOM     21  C   UNL     1     -13.606   4.559  21.448  0.00  0.00    +0.000 A 
BRANCH  20  22
ATOM     22  O   UNL     1     -14.303   2.712  20.140  0.00  0.00    +0.000 OA
ATOM     23  H   UNL     1     -15.145   2.992  20.540  0.00  0.00    +0.000 HD
ENDBRANCH  20  22
BRANCH  19  24
ATOM     24  O   UNL     1     -12.902   6.406  22.753  0.00  0.00    +0.000 OA
ATOM     25  H   UNL     1     -13.359   7.179  22.377  0.00  0.00    +0.000 HD
ENDBRANCH  19  24
ENDBRANCH  15  16
ENDBRANCH   2  15
TORSDOF 10
ENDMDL
MODEL 6
REMARK VINA RESULT:      -3.8     20.984     23.203
REMARK  Name = 76617_Cardol.pdbqt.pdb
REMARK  10 active torsions:
REMARK  status: ('A' for Active; 'I' for Inactive)
REMARK    1  A    between atoms: C_1  and  C_2
REMARK    2  A    between atoms: C_3  and  C_4
REMARK    3  A    between atoms: C_5  and  C_6
REMARK    4  A    between atoms: C_7  and  C_8
REMARK    5  A    between atoms: C_8  and  C_9
REMARK    6  A    between atoms: C_10  and  C_11
REMARK    7  A    between atoms: C_14  and  C_15
REMARK    8  A    between atoms: C_15  and  C_16
REMARK    9  A    between atoms: C_19  and  O_24
REMARK   10  A    between atoms: C_20  and  O_22
REMARK                            x       y       z     vdW  Elec       q    Type
REMARK                         _______ _______ _______ _____ _____    ______ ____
ROOT
ATOM      1  C   UNL     1     -13.526  13.827  -3.104  0.00  0.00    +0.000 C 
ATOM      2  C   UNL     1     -13.952  12.826  -2.596  0.00  0.00    +0.000 C 
ENDROOT
BRANCH   1   3
ATOM      3  C   UNL     1     -12.982  15.103  -3.753  0.00  0.00    +0.000 C 
ATOM      4  C   UNL     1     -12.437  16.380  -4.401  0.00  0.00    +0.000 C 
BRANCH   4   5
ATOM      5  C   UNL     1     -11.892  17.655  -5.050  0.00  0.00    +0.000 C 
ATOM      6  C   UNL     1     -11.346  18.930  -5.699  0.00  0.00    +0.000 C 
BRANCH   6   7
ATOM      7  C   UNL     1     -10.799  20.205  -6.349  0.00  0.00    +0.000 C 
ATOM      8  C   UNL     1     -10.253  21.480  -6.999  0.00  0.00    +0.000 C 
BRANCH   8   9
ATOM      9  C   UNL     1      -9.707  22.754  -7.649  0.00  0.00    +0.000 C 
BRANCH   9  10
ATOM     10  C   UNL     1      -9.161  24.030  -8.299  0.00  0.00    +0.000 C 
ATOM     11  C   UNL     1      -8.617  25.304  -8.950  0.00  0.00    +0.000 C 
BRANCH  11  12
ATOM     12  C   UNL     1      -8.072  26.580  -9.601  0.00  0.00    +0.000 C 
ATOM     13  C   UNL     1      -7.528  27.854 -10.252  0.00  0.00    +0.000 C 
ATOM     14  C   UNL     1      -6.983  29.130 -10.903  0.00  0.00    +0.000 C 
ENDBRANCH  11  12
ENDBRANCH   9  10
ENDBRANCH   8   9
ENDBRANCH   6   7
ENDBRANCH   4   5
ENDBRANCH   1   3
BRANCH   2  15
ATOM     15  C   UNL     1     -14.496  11.550  -1.946  0.00  0.00    +0.000 C 
BRANCH  15  16
ATOM     16  C   UNL     1     -15.001  10.364  -1.341  0.00  0.00    +0.000 A 
ATOM     17  C   UNL     1     -15.162   9.209  -2.104  0.00  0.00    +0.000 A 
ATOM     18  C   UNL     1     -15.333  10.364   0.013  0.00  0.00    +0.000 A 
ATOM     19  C   UNL     1     -15.826   9.199   0.596  0.00  0.00    +0.000 A 
ATOM     20  C   UNL     1     -15.656   8.055  -1.502  0.00  0.00    +0.000 A 
ATOM     21  C   UNL     1     -15.992   8.038  -0.153  0.00  0.00    +0.000 A 
BRANCH  20  22
ATOM     22  O   UNL     1     -15.822   6.911  -2.229  0.00  0.00    +0.000 OA
ATOM     23  H   UNL     1     -16.724   6.578  -2.076  0.00  0.00    +0.000 HD
ENDBRANCH  20  22
BRANCH  19  24
ATOM     24  O   UNL     1     -16.159   9.172   1.920  0.00  0.00    +0.000 OA
ATOM     25  H   UNL     1     -16.915   9.769   2.058  0.00  0.00    +0.000 HD
ENDBRANCH  19  24
ENDBRANCH  15  16
ENDBRANCH   2  15
TORSDOF 10
ENDMDL
MODEL 7
REMARK VINA RESULT:      -3.7     23.062     25.367
REMARK  Name = 76617_Cardol.pdbqt.pdb
REMARK  10 active torsions:
REMARK  status: ('A' for Active; 'I' for Inactive)
REMARK    1  A    between atoms: C_1  and  C_2
REMARK    2  A    between atoms: C_3  and  C_4
REMARK    3  A    between atoms: C_5  and  C_6
REMARK    4  A    between atoms: C_7  and  C_8
REMARK    5  A    between atoms: C_8  and  C_9
REMARK    6  A    between atoms: C_10  and  C_11
REMARK    7  A    between atoms: C_14  and  C_15
REMARK    8  A    between atoms: C_15  and  C_16
REMARK    9  A    between atoms: C_19  and  O_24
REMARK   10  A    between atoms: C_20  and  O_22
REMARK                            x       y       z     vdW  Elec       q    Type
REMARK                         _______ _______ _______ _____ _____    ______ ____
ROOT
ATOM      1  C   UNL     1     -17.586   3.509  -1.154  0.00  0.00    +0.000 C 
ATOM      2  C   UNL     1     -18.028   2.422  -0.902  0.00  0.00    +0.000 C 
ENDROOT
BRANCH   1   3
ATOM      3  C   UNL     1     -17.022   4.896  -1.476  0.00  0.00    +0.000 C 
ATOM      4  C   UNL     1     -16.458   6.284  -1.796  0.00  0.00    +0.000 C 
BRANCH   4   5
ATOM      5  C   UNL     1     -15.894   7.671  -2.115  0.00  0.00    +0.000 C 
ATOM      6  C   UNL     1     -15.330   9.059  -2.435  0.00  0.00    +0.000 C 
BRANCH   6   7
ATOM      7  C   UNL     1     -14.766  10.447  -2.755  0.00  0.00    +0.000 C 
ATOM      8  C   UNL     1     -14.203  11.835  -3.074  0.00  0.00    +0.000 C 
BRANCH   8   9
ATOM      9  C   UNL     1     -13.640  13.222  -3.393  0.00  0.00    +0.000 C 
BRANCH   9  10
ATOM     10  C   UNL     1     -13.078  14.611  -3.713  0.00  0.00    +0.000 C 
ATOM     11  C   UNL     1     -12.515  15.999  -4.033  0.00  0.00    +0.000 C 
BRANCH  11  12
ATOM     12  C   UNL     1     -11.952  17.388  -4.352  0.00  0.00    +0.000 C 
ATOM     13  C   UNL     1     -11.391  18.776  -4.671  0.00  0.00    +0.000 C 
ATOM     14  C   UNL     1     -10.828  20.165  -4.990  0.00  0.00    +0.000 C 
ENDBRANCH  11  12
ENDBRANCH   9  10
ENDBRANCH   8   9
ENDBRANCH   6   7
ENDBRANCH   4   5
ENDBRANCH   1   3
BRANCH   2  15
ATOM     15  C   UNL     1     -18.593   1.034  -0.582  0.00  0.00    +0.000 C 
BRANCH  15  16
ATOM     16  C   UNL     1     -19.119  -0.255  -0.284  0.00  0.00    +0.000 A 
ATOM     17  C   UNL     1     -20.004  -0.866  -1.171  0.00  0.00    +0.000 A 
ATOM     18  C   UNL     1     -18.746  -0.901   0.893  0.00  0.00    +0.000 A 
ATOM     19  C   UNL     1     -19.265  -2.162   1.176  0.00  0.00    +0.000 A 
ATOM     20  C   UNL     1     -20.512  -2.128  -0.870  0.00  0.00    +0.000 A 
ATOM     21  C   UNL     1     -20.150  -2.785   0.301  0.00  0.00    +0.000 A 
BRANCH  20  22
ATOM     22  O   UNL     1     -21.380  -2.747  -1.722  0.00  0.00    +0.000 OA
ATOM     23  H   UNL     1     -20.880  -3.063  -2.495  0.00  0.00    +0.000 HD
ENDBRANCH  20  22
BRANCH  19  24
ATOM     24  O   UNL     1     -18.917  -2.816   2.323  0.00  0.00    +0.000 OA
ATOM     25  H   UNL     1     -18.530  -3.675   2.080  0.00  0.00    +0.000 HD
ENDBRANCH  19  24
ENDBRANCH  15  16
ENDBRANCH   2  15
TORSDOF 10
ENDMDL
MODEL 8
REMARK VINA RESULT:      -3.7     23.092     24.851
REMARK  Name = 76617_Cardol.pdbqt.pdb
REMARK  10 active torsions:
REMARK  status: ('A' for Active; 'I' for Inactive)
REMARK    1  A    between atoms: C_1  and  C_2
REMARK    2  A    between atoms: C_3  and  C_4
REMARK    3  A    between atoms: C_5  and  C_6
REMARK    4  A    between atoms: C_7  and  C_8
REMARK    5  A    between atoms: C_8  and  C_9
REMARK    6  A    between atoms: C_10  and  C_11
REMARK    7  A    between atoms: C_14  and  C_15
REMARK    8  A    between atoms: C_15  and  C_16
REMARK    9  A    between atoms: C_19  and  O_24
REMARK   10  A    between atoms: C_20  and  O_22
REMARK                            x       y       z     vdW  Elec       q    Type
REMARK                         _______ _______ _______ _____ _____    ______ ____
ROOT
ATOM      1  C   UNL     1     -16.866   5.260  -1.832  0.00  0.00    +0.000 C 
ATOM      2  C   UNL     1     -17.304   4.168  -1.597  0.00  0.00    +0.000 C 
ENDROOT
BRANCH   1   3
ATOM      3  C   UNL     1     -16.307   6.653  -2.132  0.00  0.00    +0.000 C 
ATOM      4  C   UNL     1     -15.746   8.048  -2.430  0.00  0.00    +0.000 C 
BRANCH   4   5
ATOM      5  C   UNL     1     -15.185   9.441  -2.730  0.00  0.00    +0.000 C 
ATOM      6  C   UNL     1     -14.623  10.833  -3.030  0.00  0.00    +0.000 C 
BRANCH   6   7
ATOM      7  C   UNL     1     -14.061  12.227  -3.331  0.00  0.00    +0.000 C 
ATOM      8  C   UNL     1     -13.498  13.619  -3.631  0.00  0.00    +0.000 C 
BRANCH   8   9
ATOM      9  C   UNL     1     -12.936  15.011  -3.932  0.00  0.00    +0.000 C 
BRANCH   9  10
ATOM     10  C   UNL     1     -12.373  16.404  -4.232  0.00  0.00    +0.000 C 
ATOM     11  C   UNL     1     -11.809  17.796  -4.531  0.00  0.00    +0.000 C 
BRANCH  11  12
ATOM     12  C   UNL     1     -11.246  19.189  -4.830  0.00  0.00    +0.000 C 
ATOM     13  C   UNL     1     -10.683  20.581  -5.130  0.00  0.00    +0.000 C 
ATOM     14  C   UNL     1     -10.120  21.974  -5.428  0.00  0.00    +0.000 C 
ENDBRANCH  11  12
ENDBRANCH   9  10
ENDBRANCH   8   9
ENDBRANCH   6   7
ENDBRANCH   4   5
ENDBRANCH   1   3
BRANCH   2  15
ATOM     15  C   UNL     1     -17.864   2.773  -1.299  0.00  0.00    +0.000 C 
BRANCH  15  16
ATOM     16  C   UNL     1     -18.384   1.476  -1.021  0.00  0.00    +0.000 A 
ATOM     17  C   UNL     1     -17.787   0.683  -0.043  0.00  0.00    +0.000 A 
ATOM     18  C   UNL     1     -19.488   1.007  -1.729  0.00  0.00    +0.000 A 
ATOM     19  C   UNL     1     -19.990  -0.263  -1.451  0.00  0.00    +0.000 A 
ATOM     20  C   UNL     1     -18.303  -0.583   0.220  0.00  0.00    +0.000 A 
ATOM     21  C   UNL     1     -19.404  -1.067  -0.478  0.00  0.00    +0.000 A 
BRANCH  20  22
ATOM     22  O   UNL     1     -17.736  -1.379   1.173  0.00  0.00    +0.000 OA
ATOM     23  H   UNL     1     -17.008  -1.878   0.764  0.00  0.00    +0.000 HD
ENDBRANCH  20  22
BRANCH  19  24
ATOM     24  O   UNL     1     -21.070  -0.747  -2.131  0.00  0.00    +0.000 OA
ATOM     25  H   UNL     1     -21.258  -1.646  -1.807  0.00  0.00    +0.000 HD
ENDBRANCH  19  24
ENDBRANCH  15  16
ENDBRANCH   2  15
TORSDOF 10
ENDMDL
MODEL 9
REMARK VINA RESULT:      -3.6     22.903     23.625
REMARK  Name = 76617_Cardol.pdbqt.pdb
REMARK  10 active torsions:
REMARK  status: ('A' for Active; 'I' for Inactive)
REMARK    1  A    between atoms: C_1  and  C_2
REMARK    2  A    between atoms: C_3  and  C_4
REMARK    3  A    between atoms: C_5  and  C_6
REMARK    4  A    between atoms: C_7  and  C_8
REMARK    5  A    between atoms: C_8  and  C_9
REMARK    6  A    between atoms: C_10  and  C_11
REMARK    7  A    between atoms: C_14  and  C_15
REMARK    8  A    between atoms: C_15  and  C_16
REMARK    9  A    between atoms: C_19  and  O_24
REMARK   10  A    between atoms: C_20  and  O_22
REMARK                            x       y       z     vdW  Elec       q    Type
REMARK                         _______ _______ _______ _____ _____    ______ ____
ROOT
ATOM      1  C   UNL     1     -14.722  10.248  -2.761  0.00  0.00    +0.000 C 
ATOM      2  C   UNL     1     -15.130   9.154  -2.485  0.00  0.00    +0.000 C 
ENDROOT
BRANCH   1   3
ATOM      3  C   UNL     1     -14.200  11.644  -3.112  0.00  0.00    +0.000 C 
ATOM      4  C   UNL     1     -13.676  13.041  -3.464  0.00  0.00    +0.000 C 
BRANCH   4   5
ATOM      5  C   UNL     1     -13.153  14.436  -3.817  0.00  0.00    +0.000 C 
ATOM      6  C   UNL     1     -12.631  15.832  -4.169  0.00  0.00    +0.000 C 
BRANCH   6   7
ATOM      7  C   UNL     1     -12.109  17.229  -4.522  0.00  0.00    +0.000 C 
ATOM      8  C   UNL     1     -11.586  18.624  -4.875  0.00  0.00    +0.000 C 
BRANCH   8   9
ATOM      9  C   UNL     1     -11.064  20.019  -5.228  0.00  0.00    +0.000 C 
BRANCH   9  10
ATOM     10  C   UNL     1     -10.540  21.415  -5.581  0.00  0.00    +0.000 C 
ATOM     11  C   UNL     1     -10.017  22.810  -5.936  0.00  0.00    +0.000 C 
BRANCH  11  12
ATOM     12  C   UNL     1      -9.492  24.205  -6.290  0.00  0.00    +0.000 C 
ATOM     13  C   UNL     1      -8.969  25.600  -6.644  0.00  0.00    +0.000 C 
ATOM     14  C   UNL     1      -8.445  26.995  -6.998  0.00  0.00    +0.000 C 
ENDBRANCH  11  12
ENDBRANCH   9  10
ENDBRANCH   8   9
ENDBRANCH   6   7
ENDBRANCH   4   5
ENDBRANCH   1   3
BRANCH   2  15
ATOM     15  C   UNL     1     -15.653   7.757  -2.135  0.00  0.00    +0.000 C 
BRANCH  15  16
ATOM     16  C   UNL     1     -16.139   6.459  -1.810  0.00  0.00    +0.000 A 
ATOM     17  C   UNL     1     -17.472   6.288  -1.443  0.00  0.00    +0.000 A 
ATOM     18  C   UNL     1     -15.278   5.364  -1.861  0.00  0.00    +0.000 A 
ATOM     19  C   UNL     1     -15.763   4.098  -1.541  0.00  0.00    +0.000 A 
ATOM     20  C   UNL     1     -17.938   5.014  -1.128  0.00  0.00    +0.000 A 
ATOM     21  C   UNL     1     -17.092   3.911  -1.173  0.00  0.00    +0.000 A 
BRANCH  20  22
ATOM     22  O   UNL     1     -19.240   4.821  -0.766  0.00  0.00    +0.000 OA
ATOM     23  H   UNL     1     -19.631   5.686  -0.554  0.00  0.00    +0.000 HD
ENDBRANCH  20  22
BRANCH  19  24
ATOM     24  O   UNL     1     -14.941   3.008  -1.582  0.00  0.00    +0.000 OA
ATOM     25  H   UNL     1     -15.116   2.463  -0.796  0.00  0.00    +0.000 HD
ENDBRANCH  19  24
ENDBRANCH  15  16
ENDBRANCH   2  15
TORSDOF 10
ENDMDL
