MODEL 1
REMARK VINA RESULT:      -5.0      0.000      0.000
REMARK  Name = 85668777_Hyaluronidase.pdbqt.pdb
REMARK  5 active torsions:
REMARK  status: ('A' for Active; 'I' for Inactive)
REMARK    1  A    between atoms: N_1  and  C_13
REMARK    2  A    between atoms: C_14  and  C_15
REMARK    3  A    between atoms: C_15  and  C_16
REMARK    4  A    between atoms: C_17  and  C_19
REMARK    5  A    between atoms: C_19  and  O_20
REMARK                            x       y       z     vdW  Elec       q    Type
REMARK                         _______ _______ _______ _____ _____    ______ ____
ROOT
ATOM      1  N   UNL     1     -16.103   4.919  -2.090  0.00  0.00    +0.000 N 
ATOM      2  C   UNL     1     -17.264   2.796  -2.142  0.00  0.00    +0.000 C 
ATOM      3  C   UNL     1     -15.753   2.632  -1.983  0.00  0.00    +0.000 A 
ATOM      4  C   UNL     1     -17.381   4.369  -2.201  0.00  0.00    +0.000 C 
ATOM      5  C   UNL     1     -15.141   3.903  -1.961  0.00  0.00    +0.000 A 
ATOM      6  C   UNL     1     -17.717   2.115  -3.472  0.00  0.00    +0.000 C 
ATOM      7  C   UNL     1     -17.978   2.196  -0.888  0.00  0.00    +0.000 C 
ATOM      8  C   UNL     1     -14.998   1.473  -1.871  0.00  0.00    +0.000 A 
ATOM      9  C   UNL     1     -13.770   4.029  -1.826  0.00  0.00    +0.000 A 
ATOM     10  C   UNL     1     -18.471   5.151  -2.336  0.00  0.00    +0.000 C 
ATOM     11  C   UNL     1     -13.616   1.602  -1.735  0.00  0.00    +0.000 A 
ATOM     12  C   UNL     1     -13.010   2.865  -1.712  0.00  0.00    +0.000 A 
ENDROOT
BRANCH   1  13
ATOM     13  C   UNL     1     -15.781   6.325  -2.100  0.00  0.00    +0.000 C 
ATOM     14  C   UNL     1     -15.437   7.818  -2.106  0.00  0.00    +0.000 C 
BRANCH  14  15
ATOM     15  C   UNL     1     -15.092   9.311  -2.111  0.00  0.00    +0.000 C 
BRANCH  15  16
ATOM     16  C   UNL     1     -14.747  10.802  -2.116  0.00  0.00    +0.000 C 
ATOM     17  C   UNL     1     -14.401  12.294  -2.120  0.00  0.00    +0.000 C 
BRANCH  17  19
ATOM     18  O   UNL     1     -13.644  14.281  -1.152  0.00  0.00    +0.000 OA
ATOM     19  C   UNL     1     -14.076  13.689  -2.126  0.00  0.00    +0.000 C 
BRANCH  19  20
ATOM     20  O   UNL     1     -14.291  14.296  -3.306  0.00  0.00    +0.000 OA
ATOM     21  H   UNL     1     -14.756  13.617  -3.835  0.00  0.00    +0.000 HD
ENDBRANCH  19  20
ENDBRANCH  17  19
ENDBRANCH  15  16
ENDBRANCH  14  15
ENDBRANCH   1  13
TORSDOF 5
ENDMDL
MODEL 2
REMARK VINA RESULT:      -4.9      6.047      9.225
REMARK  Name = 85668777_Hyaluronidase.pdbqt.pdb
REMARK  5 active torsions:
REMARK  status: ('A' for Active; 'I' for Inactive)
REMARK    1  A    between atoms: N_1  and  C_13
REMARK    2  A    between atoms: C_14  and  C_15
REMARK    3  A    between atoms: C_15  and  C_16
REMARK    4  A    between atoms: C_17  and  C_19
REMARK    5  A    between atoms: C_19  and  O_20
REMARK                            x       y       z     vdW  Elec       q    Type
REMARK                         _______ _______ _______ _____ _____    ______ ____
ROOT
ATOM      1  N   UNL     1     -16.576   7.184  -0.936  0.00  0.00    +0.000 N 
ATOM      2  C   UNL     1     -15.982   9.438  -0.284  0.00  0.00    +0.000 C 
ATOM      3  C   UNL     1     -15.540   9.105  -1.709  0.00  0.00    +0.000 A 
ATOM      4  C   UNL     1     -16.665   8.077   0.133  0.00  0.00    +0.000 C 
ATOM      5  C   UNL     1     -15.915   7.782  -2.022  0.00  0.00    +0.000 A 
ATOM      6  C   UNL     1     -14.723   9.761   0.581  0.00  0.00    +0.000 C 
ATOM      7  C   UNL     1     -16.999  10.623  -0.328  0.00  0.00    +0.000 C 
ATOM      8  C   UNL     1     -14.871   9.896  -2.633  0.00  0.00    +0.000 A 
ATOM      9  C   UNL     1     -15.628   7.236  -3.260  0.00  0.00    +0.000 A 
ATOM     10  C   UNL     1     -17.260   7.728   1.292  0.00  0.00    +0.000 C 
ATOM     11  C   UNL     1     -14.582   9.344  -3.880  0.00  0.00    +0.000 A 
ATOM     12  C   UNL     1     -14.957   8.029  -4.190  0.00  0.00    +0.000 A 
ENDROOT
BRANCH   1  13
ATOM     13  C   UNL     1     -17.081   5.832  -0.955  0.00  0.00    +0.000 C 
ATOM     14  C   UNL     1     -17.623   4.399  -0.974  0.00  0.00    +0.000 C 
BRANCH  14  15
ATOM     15  C   UNL     1     -18.165   2.967  -0.992  0.00  0.00    +0.000 C 
BRANCH  15  16
ATOM     16  C   UNL     1     -18.707   1.536  -1.011  0.00  0.00    +0.000 C 
ATOM     17  C   UNL     1     -19.251   0.103  -1.029  0.00  0.00    +0.000 C 
BRANCH  17  19
ATOM     18  O   UNL     1     -19.066  -2.215  -1.254  0.00  0.00    +0.000 OA
ATOM     19  C   UNL     1     -19.760  -1.235  -1.045  0.00  0.00    +0.000 C 
BRANCH  19  20
ATOM     20  O   UNL     1     -21.080  -1.321  -0.807  0.00  0.00    +0.000 OA
ATOM     21  H   UNL     1     -21.481  -0.816  -1.543  0.00  0.00    +0.000 HD
ENDBRANCH  19  20
ENDBRANCH  17  19
ENDBRANCH  15  16
ENDBRANCH  14  15
ENDBRANCH   1  13
TORSDOF 5
ENDMDL
MODEL 3
REMARK VINA RESULT:      -4.7     17.445     19.321
REMARK  Name = 85668777_Hyaluronidase.pdbqt.pdb
REMARK  5 active torsions:
REMARK  status: ('A' for Active; 'I' for Inactive)
REMARK    1  A    between atoms: N_1  and  C_13
REMARK    2  A    between atoms: C_14  and  C_15
REMARK    3  A    between atoms: C_15  and  C_16
REMARK    4  A    between atoms: C_17  and  C_19
REMARK    5  A    between atoms: C_19  and  O_20
REMARK                            x       y       z     vdW  Elec       q    Type
REMARK                         _______ _______ _______ _____ _____    ______ ____
ROOT
ATOM      1  N   UNL     1       0.721   6.820   3.038  0.00  0.00    +0.000 N 
ATOM      2  C   UNL     1      -1.494   6.006   2.503  0.00  0.00    +0.000 C 
ATOM      3  C   UNL     1      -0.906   6.874   1.391  0.00  0.00    +0.000 A 
ATOM      4  C   UNL     1      -0.316   6.040   3.552  0.00  0.00    +0.000 C 
ATOM      5  C   UNL     1       0.380   7.313   1.767  0.00  0.00    +0.000 A 
ATOM      6  C   UNL     1      -2.794   6.680   3.046  0.00  0.00    +0.000 C 
ATOM      7  C   UNL     1      -1.752   4.569   1.947  0.00  0.00    +0.000 C 
ATOM      8  C   UNL     1      -1.457   7.238   0.171  0.00  0.00    +0.000 A 
ATOM      9  C   UNL     1       1.130   8.119   0.928  0.00  0.00    +0.000 A 
ATOM     10  C   UNL     1      -0.219   5.456   4.764  0.00  0.00    +0.000 C 
ATOM     11  C   UNL     1      -0.701   8.050  -0.673  0.00  0.00    +0.000 A 
ATOM     12  C   UNL     1       0.578   8.485  -0.299  0.00  0.00    +0.000 A 
ENDROOT
BRANCH   1  13
ATOM     13  C   UNL     1       1.978   7.098   3.691  0.00  0.00    +0.000 C 
ATOM     14  C   UNL     1       3.310   7.398   4.384  0.00  0.00    +0.000 C 
BRANCH  14  15
ATOM     15  C   UNL     1       4.643   7.699   5.077  0.00  0.00    +0.000 C 
BRANCH  15  16
ATOM     16  C   UNL     1       5.975   8.000   5.769  0.00  0.00    +0.000 C 
ATOM     17  C   UNL     1       7.308   8.301   6.461  0.00  0.00    +0.000 C 
BRANCH  17  19
ATOM     18  O   UNL     1       9.620   8.635   6.517  0.00  0.00    +0.000 OA
ATOM     19  C   UNL     1       8.554   8.584   7.107  0.00  0.00    +0.000 C 
BRANCH  19  20
ATOM     20  O   UNL     1       8.450   8.791   8.431  0.00  0.00    +0.000 OA
ATOM     21  H   UNL     1       8.315   9.758   8.504  0.00  0.00    +0.000 HD
ENDBRANCH  19  20
ENDBRANCH  17  19
ENDBRANCH  15  16
ENDBRANCH  14  15
ENDBRANCH   1  13
TORSDOF 5
ENDMDL
MODEL 4
REMARK VINA RESULT:      -4.7      4.818      9.509
REMARK  Name = 85668777_Hyaluronidase.pdbqt.pdb
REMARK  5 active torsions:
REMARK  status: ('A' for Active; 'I' for Inactive)
REMARK    1  A    between atoms: N_1  and  C_13
REMARK    2  A    between atoms: C_14  and  C_15
REMARK    3  A    between atoms: C_15  and  C_16
REMARK    4  A    between atoms: C_17  and  C_19
REMARK    5  A    between atoms: C_19  and  O_20
REMARK                            x       y       z     vdW  Elec       q    Type
REMARK                         _______ _______ _______ _____ _____    ______ ____
ROOT
ATOM      1  N   UNL     1     -14.654  10.346  -3.734  0.00  0.00    +0.000 N 
ATOM      2  C   UNL     1     -13.907  12.263  -5.008  0.00  0.00    +0.000 C 
ATOM      3  C   UNL     1     -14.001  12.556  -3.511  0.00  0.00    +0.000 A 
ATOM      4  C   UNL     1     -14.367  10.754  -5.038  0.00  0.00    +0.000 C 
ATOM      5  C   UNL     1     -14.441  11.401  -2.831  0.00  0.00    +0.000 A 
ATOM      6  C   UNL     1     -14.892  13.200  -5.776  0.00  0.00    +0.000 C 
ATOM      7  C   UNL     1     -12.425  12.441  -5.471  0.00  0.00    +0.000 C 
ATOM      8  C   UNL     1     -13.726  13.729  -2.822  0.00  0.00    +0.000 A 
ATOM      9  C   UNL     1     -14.609  11.405  -1.458  0.00  0.00    +0.000 A 
ATOM     10  C   UNL     1     -14.497   9.910  -6.082  0.00  0.00    +0.000 C 
ATOM     11  C   UNL     1     -13.896  13.731  -1.438  0.00  0.00    +0.000 A 
ATOM     12  C   UNL     1     -14.332  12.582  -0.764  0.00  0.00    +0.000 A 
ENDROOT
BRANCH   1  13
ATOM     13  C   UNL     1     -15.106   9.034  -3.337  0.00  0.00    +0.000 C 
ATOM     14  C   UNL     1     -15.587   7.641  -2.919  0.00  0.00    +0.000 C 
BRANCH  14  15
ATOM     15  C   UNL     1     -16.068   6.247  -2.503  0.00  0.00    +0.000 C 
BRANCH  15  16
ATOM     16  C   UNL     1     -16.550   4.855  -2.087  0.00  0.00    +0.000 C 
ATOM     17  C   UNL     1     -17.032   3.462  -1.670  0.00  0.00    +0.000 C 
BRANCH  17  19
ATOM     18  O   UNL     1     -18.661   1.865  -1.165  0.00  0.00    +0.000 OA
ATOM     19  C   UNL     1     -17.484   2.161  -1.279  0.00  0.00    +0.000 C 
BRANCH  19  20
ATOM     20  O   UNL     1     -16.491   1.285  -1.045  0.00  0.00    +0.000 OA
ATOM     21  H   UNL     1     -16.847   0.437  -1.381  0.00  0.00    +0.000 HD
ENDBRANCH  19  20
ENDBRANCH  17  19
ENDBRANCH  15  16
ENDBRANCH  14  15
ENDBRANCH   1  13
TORSDOF 5
ENDMDL
MODEL 5
REMARK VINA RESULT:      -4.5      1.564      2.081
REMARK  Name = 85668777_Hyaluronidase.pdbqt.pdb
REMARK  5 active torsions:
REMARK  status: ('A' for Active; 'I' for Inactive)
REMARK    1  A    between atoms: N_1  and  C_13
REMARK    2  A    between atoms: C_14  and  C_15
REMARK    3  A    between atoms: C_15  and  C_16
REMARK    4  A    between atoms: C_17  and  C_19
REMARK    5  A    between atoms: C_19  and  O_20
REMARK                            x       y       z     vdW  Elec       q    Type
REMARK                         _______ _______ _______ _____ _____    ______ ____
ROOT
ATOM      1  N   UNL     1     -16.112   6.743  -2.049  0.00  0.00    +0.000 N 
ATOM      2  C   UNL     1     -17.419   4.812  -1.402  0.00  0.00    +0.000 C 
ATOM      3  C   UNL     1     -15.954   4.465  -1.664  0.00  0.00    +0.000 A 
ATOM      4  C   UNL     1     -17.406   6.364  -1.689  0.00  0.00    +0.000 C 
ATOM      5  C   UNL     1     -15.253   5.631  -2.036  0.00  0.00    +0.000 A 
ATOM      6  C   UNL     1     -18.320   4.028  -2.408  0.00  0.00    +0.000 C 
ATOM      7  C   UNL     1     -17.762   4.488   0.088  0.00  0.00    +0.000 C 
ATOM      8  C   UNL     1     -15.309   3.239  -1.583  0.00  0.00    +0.000 A 
ATOM      9  C   UNL     1     -13.902   5.585  -2.329  0.00  0.00    +0.000 A 
ATOM     10  C   UNL     1     -18.410   7.263  -1.631  0.00  0.00    +0.000 C 
ATOM     11  C   UNL     1     -13.948   3.194  -1.879  0.00  0.00    +0.000 A 
ATOM     12  C   UNL     1     -13.252   4.354  -2.247  0.00  0.00    +0.000 A 
ENDROOT
BRANCH   1  13
ATOM     13  C   UNL     1     -15.683   8.079  -2.389  0.00  0.00    +0.000 C 
ATOM     14  C   UNL     1     -15.226   9.497  -2.745  0.00  0.00    +0.000 C 
BRANCH  14  15
ATOM     15  C   UNL     1     -14.769  10.915  -3.100  0.00  0.00    +0.000 C 
BRANCH  15  16
ATOM     16  C   UNL     1     -14.311  12.332  -3.455  0.00  0.00    +0.000 C 
ATOM     17  C   UNL     1     -13.852  13.750  -3.811  0.00  0.00    +0.000 C 
BRANCH  17  19
ATOM     18  O   UNL     1     -12.536  15.662  -3.549  0.00  0.00    +0.000 OA
ATOM     19  C   UNL     1     -13.422  15.074  -4.144  0.00  0.00    +0.000 C 
BRANCH  19  20
ATOM     20  O   UNL     1     -14.085  15.621  -5.178  0.00  0.00    +0.000 OA
ATOM     21  H   UNL     1     -15.027  15.492  -4.944  0.00  0.00    +0.000 HD
ENDBRANCH  19  20
ENDBRANCH  17  19
ENDBRANCH  15  16
ENDBRANCH  14  15
ENDBRANCH   1  13
TORSDOF 5
ENDMDL
MODEL 6
REMARK VINA RESULT:      -4.4     21.125     23.232
REMARK  Name = 85668777_Hyaluronidase.pdbqt.pdb
REMARK  5 active torsions:
REMARK  status: ('A' for Active; 'I' for Inactive)
REMARK    1  A    between atoms: N_1  and  C_13
REMARK    2  A    between atoms: C_14  and  C_15
REMARK    3  A    between atoms: C_15  and  C_16
REMARK    4  A    between atoms: C_17  and  C_19
REMARK    5  A    between atoms: C_19  and  O_20
REMARK                            x       y       z     vdW  Elec       q    Type
REMARK                         _______ _______ _______ _____ _____    ______ ____
ROOT
ATOM      1  N   UNL     1      -7.007  15.224  16.215  0.00  0.00    +0.000 N 
ATOM      2  C   UNL     1      -5.213  14.754  14.660  0.00  0.00    +0.000 C 
ATOM      3  C   UNL     1      -5.588  13.537  15.506  0.00  0.00    +0.000 A 
ATOM      4  C   UNL     1      -6.230  15.822  15.222  0.00  0.00    +0.000 C 
ATOM      5  C   UNL     1      -6.635  13.880  16.387  0.00  0.00    +0.000 A 
ATOM      6  C   UNL     1      -3.727  15.139  14.946  0.00  0.00    +0.000 C 
ATOM      7  C   UNL     1      -5.468  14.427  13.154  0.00  0.00    +0.000 C 
ATOM      8  C   UNL     1      -5.053  12.257  15.496  0.00  0.00    +0.000 A 
ATOM      9  C   UNL     1      -7.158  12.948  17.265  0.00  0.00    +0.000 A 
ATOM     10  C   UNL     1      -6.405  17.115  14.878  0.00  0.00    +0.000 C 
ATOM     11  C   UNL     1      -5.581  11.319  16.381  0.00  0.00    +0.000 A 
ATOM     12  C   UNL     1      -6.622  11.660  17.255  0.00  0.00    +0.000 A 
ENDROOT
BRANCH   1  13
ATOM     13  C   UNL     1      -8.054  15.865  16.975  0.00  0.00    +0.000 C 
ATOM     14  C   UNL     1      -9.164  16.550  17.777  0.00  0.00    +0.000 C 
BRANCH  14  15
ATOM     15  C   UNL     1     -10.275  17.235  18.579  0.00  0.00    +0.000 C 
BRANCH  15  16
ATOM     16  C   UNL     1     -11.385  17.921  19.380  0.00  0.00    +0.000 C 
ATOM     17  C   UNL     1     -12.495  18.608  20.182  0.00  0.00    +0.000 C 
BRANCH  17  19
ATOM     18  O   UNL     1     -14.672  19.387  20.518  0.00  0.00    +0.000 OA
ATOM     19  C   UNL     1     -13.532  19.252  20.929  0.00  0.00    +0.000 C 
BRANCH  19  20
ATOM     20  O   UNL     1     -13.141  19.699  22.135  0.00  0.00    +0.000 OA
ATOM     21  H   UNL     1     -12.519  20.424  21.923  0.00  0.00    +0.000 HD
ENDBRANCH  19  20
ENDBRANCH  17  19
ENDBRANCH  15  16
ENDBRANCH  14  15
ENDBRANCH   1  13
TORSDOF 5
ENDMDL
MODEL 7
REMARK VINA RESULT:      -4.4      9.793     11.987
REMARK  Name = 85668777_Hyaluronidase.pdbqt.pdb
REMARK  5 active torsions:
REMARK  status: ('A' for Active; 'I' for Inactive)
REMARK    1  A    between atoms: N_1  and  C_13
REMARK    2  A    between atoms: C_14  and  C_15
REMARK    3  A    between atoms: C_15  and  C_16
REMARK    4  A    between atoms: C_17  and  C_19
REMARK    5  A    between atoms: C_19  and  O_20
REMARK                            x       y       z     vdW  Elec       q    Type
REMARK                         _______ _______ _______ _____ _____    ______ ____
ROOT
ATOM      1  N   UNL     1      -7.332   1.041   1.513  0.00  0.00    +0.000 N 
ATOM      2  C   UNL     1      -9.559   0.094   1.469  0.00  0.00    +0.000 C 
ATOM      3  C   UNL     1      -8.757  -0.239   0.211  0.00  0.00    +0.000 A 
ATOM      4  C   UNL     1      -8.503   0.953   2.267  0.00  0.00    +0.000 C 
ATOM      5  C   UNL     1      -7.475   0.342   0.302  0.00  0.00    +0.000 A 
ATOM      6  C   UNL     1     -10.820   0.923   1.068  0.00  0.00    +0.000 C 
ATOM      7  C   UNL     1      -9.925  -1.234   2.207  0.00  0.00    +0.000 C 
ATOM      8  C   UNL     1      -9.128  -0.980  -0.902  0.00  0.00    +0.000 A 
ATOM      9  C   UNL     1      -6.551   0.187  -0.716  0.00  0.00    +0.000 A 
ATOM     10  C   UNL     1      -8.606   1.547   3.474  0.00  0.00    +0.000 C 
ATOM     11  C   UNL     1      -8.196  -1.135  -1.927  0.00  0.00    +0.000 A 
ATOM     12  C   UNL     1      -6.921  -0.558  -1.835  0.00  0.00    +0.000 A 
ENDROOT
BRANCH   1  13
ATOM     13  C   UNL     1      -6.129   1.740   1.893  0.00  0.00    +0.000 C 
ATOM     14  C   UNL     1      -4.854   2.485   2.301  0.00  0.00    +0.000 C 
BRANCH  14  15
ATOM     15  C   UNL     1      -3.580   3.230   2.709  0.00  0.00    +0.000 C 
BRANCH  15  16
ATOM     16  C   UNL     1      -2.306   3.976   3.117  0.00  0.00    +0.000 C 
ATOM     17  C   UNL     1      -1.033   4.724   3.525  0.00  0.00    +0.000 C 
BRANCH  17  19
ATOM     18  O   UNL     1       1.248   5.216   3.405  0.00  0.00    +0.000 OA
ATOM     19  C   UNL     1       0.156   5.423   3.907  0.00  0.00    +0.000 C 
BRANCH  19  20
ATOM     20  O   UNL     1      -0.032   6.336   4.876  0.00  0.00    +0.000 OA
ATOM     21  H   UNL     1       0.799   6.852   4.873  0.00  0.00    +0.000 HD
ENDBRANCH  19  20
ENDBRANCH  17  19
ENDBRANCH  15  16
ENDBRANCH  14  15
ENDBRANCH   1  13
TORSDOF 5
ENDMDL
MODEL 8
REMARK VINA RESULT:      -4.3     23.967     26.864
REMARK  Name = 85668777_Hyaluronidase.pdbqt.pdb
REMARK  5 active torsions:
REMARK  status: ('A' for Active; 'I' for Inactive)
REMARK    1  A    between atoms: N_1  and  C_13
REMARK    2  A    between atoms: C_14  and  C_15
REMARK    3  A    between atoms: C_15  and  C_16
REMARK    4  A    between atoms: C_17  and  C_19
REMARK    5  A    between atoms: C_19  and  O_20
REMARK                            x       y       z     vdW  Elec       q    Type
REMARK                         _______ _______ _______ _____ _____    ______ ____
ROOT
ATOM      1  N   UNL     1     -12.780  18.595  22.121  0.00  0.00    +0.000 N 
ATOM      2  C   UNL     1     -13.377  18.153  24.425  0.00  0.00    +0.000 C 
ATOM      3  C   UNL     1     -14.581  18.563  23.576  0.00  0.00    +0.000 A 
ATOM      4  C   UNL     1     -12.229  18.208  23.344  0.00  0.00    +0.000 C 
ATOM      5  C   UNL     1     -14.163  18.805  22.251  0.00  0.00    +0.000 A 
ATOM      6  C   UNL     1     -13.173  19.201  25.564  0.00  0.00    +0.000 C 
ATOM      7  C   UNL     1     -13.607  16.708  24.973  0.00  0.00    +0.000 C 
ATOM      8  C   UNL     1     -15.911  18.708  23.944  0.00  0.00    +0.000 A 
ATOM      9  C   UNL     1     -15.069  19.193  21.280  0.00  0.00    +0.000 A 
ATOM     10  C   UNL     1     -10.911  17.949  23.468  0.00  0.00    +0.000 C 
ATOM     11  C   UNL     1     -16.823  19.099  22.964  0.00  0.00    +0.000 A 
ATOM     12  C   UNL     1     -16.406  19.338  21.647  0.00  0.00    +0.000 A 
ENDROOT
BRANCH   1  13
ATOM     13  C   UNL     1     -12.060  18.762  20.882  0.00  0.00    +0.000 C 
ATOM     14  C   UNL     1     -11.295  18.934  19.566  0.00  0.00    +0.000 C 
BRANCH  14  15
ATOM     15  C   UNL     1     -10.530  19.105  18.250  0.00  0.00    +0.000 C 
BRANCH  15  16
ATOM     16  C   UNL     1      -9.766  19.276  16.935  0.00  0.00    +0.000 C 
ATOM     17  C   UNL     1      -9.002  19.446  15.618  0.00  0.00    +0.000 C 
BRANCH  17  19
ATOM     18  O   UNL     1      -7.380  20.404  14.235  0.00  0.00    +0.000 OA
ATOM     19  C   UNL     1      -8.289  19.606  14.386  0.00  0.00    +0.000 C 
BRANCH  19  20
ATOM     20  O   UNL     1      -8.710  18.795  13.400  0.00  0.00    +0.000 OA
ATOM     21  H   UNL     1      -8.749  19.381  12.618  0.00  0.00    +0.000 HD
ENDBRANCH  19  20
ENDBRANCH  17  19
ENDBRANCH  15  16
ENDBRANCH  14  15
ENDBRANCH   1  13
TORSDOF 5
ENDMDL
MODEL 9
REMARK VINA RESULT:      -4.0     15.047     17.606
REMARK  Name = 85668777_Hyaluronidase.pdbqt.pdb
REMARK  5 active torsions:
REMARK  status: ('A' for Active; 'I' for Inactive)
REMARK    1  A    between atoms: N_1  and  C_13
REMARK    2  A    between atoms: C_14  and  C_15
REMARK    3  A    between atoms: C_15  and  C_16
REMARK    4  A    between atoms: C_17  and  C_19
REMARK    5  A    between atoms: C_19  and  O_20
REMARK                            x       y       z     vdW  Elec       q    Type
REMARK                         _______ _______ _______ _____ _____    ______ ____
ROOT
ATOM      1  N   UNL     1      -2.964  15.107   2.615  0.00  0.00    +0.000 N 
ATOM      2  C   UNL     1      -3.319  14.615   0.272  0.00  0.00    +0.000 C 
ATOM      3  C   UNL     1      -1.916  14.235   0.743  0.00  0.00    +0.000 A 
ATOM      4  C   UNL     1      -3.930  15.187   1.610  0.00  0.00    +0.000 C 
ATOM      5  C   UNL     1      -1.777  14.548   2.111  0.00  0.00    +0.000 A 
ATOM      6  C   UNL     1      -3.209  15.702  -0.844  0.00  0.00    +0.000 C 
ATOM      7  C   UNL     1      -4.060  13.328  -0.216  0.00  0.00    +0.000 C 
ATOM      8  C   UNL     1      -0.867  13.672   0.029  0.00  0.00    +0.000 A 
ATOM      9  C   UNL     1      -0.592  14.300   2.781  0.00  0.00    +0.000 A 
ATOM     10  C   UNL     1      -5.156  15.691   1.855  0.00  0.00    +0.000 C 
ATOM     11  C   UNL     1       0.326  13.422   0.705  0.00  0.00    +0.000 A 
ATOM     12  C   UNL     1       0.462  13.732   2.065  0.00  0.00    +0.000 A 
ENDROOT
BRANCH   1  13
ATOM     13  C   UNL     1      -3.130  15.527   3.985  0.00  0.00    +0.000 C 
ATOM     14  C   UNL     1      -3.307  15.978   5.438  0.00  0.00    +0.000 C 
BRANCH  14  15
ATOM     15  C   UNL     1      -3.485  16.430   6.891  0.00  0.00    +0.000 C 
BRANCH  15  16
ATOM     16  C   UNL     1      -3.663  16.882   8.343  0.00  0.00    +0.000 C 
ATOM     17  C   UNL     1      -3.841  17.335   9.795  0.00  0.00    +0.000 C 
BRANCH  17  19
ATOM     18  O   UNL     1      -3.724  17.064  12.113  0.00  0.00    +0.000 OA
ATOM     19  C   UNL     1      -4.007  17.759  11.152  0.00  0.00    +0.000 C 
BRANCH  19  20
ATOM     20  O   UNL     1      -4.507  19.001  11.281  0.00  0.00    +0.000 OA
ATOM     21  H   UNL     1      -5.318  18.870  11.812  0.00  0.00    +0.000 HD
ENDBRANCH  19  20
ENDBRANCH  17  19
ENDBRANCH  15  16
ENDBRANCH  14  15
ENDBRANCH   1  13
TORSDOF 5
ENDMDL
