MODEL 1
REMARK VINA RESULT:      -4.0      0.000      0.000
REMARK  Name = 86311066_OplopantriolA.pdbqt.pdb
REMARK  12 active torsions:
REMARK  status: ('A' for Active; 'I' for Inactive)
REMARK    1  A    between atoms: C_1  and  C_3
REMARK    2  A    between atoms: C_2  and  C_13
REMARK    3  A    between atoms: C_4  and  C_5
REMARK    4  A    between atoms: C_6  and  C_7
REMARK    5  A    between atoms: C_8  and  C_9
REMARK    6  A    between atoms: C_10  and  O_11
REMARK    7  A    between atoms: C_13  and  O_14
REMARK    8  A    between atoms: C_13  and  C_16
REMARK    9  A    between atoms: C_17  and  C_18
REMARK   10  A    between atoms: C_19  and  C_20
REMARK   11  A    between atoms: C_20  and  C_21
REMARK   12  A    between atoms: C_20  and  O_23
REMARK                            x       y       z     vdW  Elec       q    Type
REMARK                         _______ _______ _______ _____ _____    ______ ____
ROOT
ATOM      1  C   UNL     1      -4.465  17.436   9.040  0.00  0.00    +0.000 C 
ATOM      2  C   UNL     1      -3.805  17.156   8.076  0.00  0.00    +0.000 C 
ENDROOT
BRANCH   1   3
ATOM      3  C   UNL     1      -5.307  17.795  10.267  0.00  0.00    +0.000 C 
ATOM      4  C   UNL     1      -6.150  18.152  11.495  0.00  0.00    +0.000 C 
BRANCH   4   5
ATOM      5  C   UNL     1      -6.994  18.511  12.722  0.00  0.00    +0.000 C 
ATOM      6  C   UNL     1      -7.838  18.871  13.948  0.00  0.00    +0.000 C 
BRANCH   6   7
ATOM      7  C   UNL     1      -8.682  19.230  15.175  0.00  0.00    +0.000 C 
ATOM      8  C   UNL     1      -9.526  19.590  16.402  0.00  0.00    +0.000 C 
BRANCH   8   9
ATOM      9  C   UNL     1     -10.369  19.948  17.629  0.00  0.00    +0.000 C 
ATOM     10  C   UNL     1     -11.211  20.307  18.857  0.00  0.00    +0.000 C 
BRANCH  10  11
ATOM     11  O   UNL     1     -11.942  20.618  19.921  0.00  0.00    +0.000 OA
ATOM     12  H   UNL     1     -11.661  20.093  20.690  0.00  0.00    +0.000 HD
ENDBRANCH  10  11
ENDBRANCH   8   9
ENDBRANCH   6   7
ENDBRANCH   4   5
ENDBRANCH   1   3
BRANCH   2  13
ATOM     13  C   UNL     1      -3.025  16.825   6.941  0.00  0.00    +0.000 C 
BRANCH  13  14
ATOM     14  O   UNL     1      -1.656  16.874   7.074  0.00  0.00    +0.000 OA
ATOM     15  H   UNL     1      -1.328  17.788   7.065  0.00  0.00    +0.000 HD
ENDBRANCH  13  14
BRANCH  13  16
ATOM     16  C   UNL     1      -3.578  16.452   5.689  0.00  0.00    +0.000 C 
ATOM     17  C   UNL     1      -4.044  16.136   4.629  0.00  0.00    +0.000 C 
BRANCH  17  18
ATOM     18  C   UNL     1      -4.638  15.735   3.276  0.00  0.00    +0.000 C 
ATOM     19  C   UNL     1      -5.104  15.420   2.215  0.00  0.00    +0.000 C 
BRANCH  19  20
ATOM     20  C   UNL     1      -5.654  15.046   0.960  0.00  0.00    +0.000 C 
BRANCH  20  21
ATOM     21  C   UNL     1      -6.442  15.921   0.161  0.00  0.00    +0.000 C 
ATOM     22  C   UNL     1      -7.191  16.744  -0.576  0.00  0.00    +0.000 C 
ENDBRANCH  20  21
BRANCH  20  23
ATOM     23  O   UNL     1      -5.413  13.770   0.493  0.00  0.00    +0.000 OA
ATOM     24  H   UNL     1      -5.784  13.092   1.084  0.00  0.00    +0.000 HD
ENDBRANCH  20  23
ENDBRANCH  19  20
ENDBRANCH  17  18
ENDBRANCH  13  16
ENDBRANCH   2  13
TORSDOF 12
ENDMDL
MODEL 2
REMARK VINA RESULT:      -3.7      4.609     13.888
REMARK  Name = 86311066_OplopantriolA.pdbqt.pdb
REMARK  12 active torsions:
REMARK  status: ('A' for Active; 'I' for Inactive)
REMARK    1  A    between atoms: C_1  and  C_3
REMARK    2  A    between atoms: C_2  and  C_13
REMARK    3  A    between atoms: C_4  and  C_5
REMARK    4  A    between atoms: C_6  and  C_7
REMARK    5  A    between atoms: C_8  and  C_9
REMARK    6  A    between atoms: C_10  and  O_11
REMARK    7  A    between atoms: C_13  and  O_14
REMARK    8  A    between atoms: C_13  and  C_16
REMARK    9  A    between atoms: C_17  and  C_18
REMARK   10  A    between atoms: C_19  and  C_20
REMARK   11  A    between atoms: C_20  and  C_21
REMARK   12  A    between atoms: C_20  and  O_23
REMARK                            x       y       z     vdW  Elec       q    Type
REMARK                         _______ _______ _______ _____ _____    ______ ____
ROOT
ATOM      1  C   UNL     1      -3.474  16.513   6.955  0.00  0.00    +0.000 C 
ATOM      2  C   UNL     1      -3.120  16.741   8.080  0.00  0.00    +0.000 C 
ENDROOT
BRANCH   1   3
ATOM      3  C   UNL     1      -3.927  16.224   5.522  0.00  0.00    +0.000 C 
ATOM      4  C   UNL     1      -4.380  15.933   4.088  0.00  0.00    +0.000 C 
BRANCH   4   5
ATOM      5  C   UNL     1      -4.832  15.642   2.653  0.00  0.00    +0.000 C 
ATOM      6  C   UNL     1      -5.285  15.349   1.220  0.00  0.00    +0.000 C 
BRANCH   6   7
ATOM      7  C   UNL     1      -5.738  15.057  -0.214  0.00  0.00    +0.000 C 
ATOM      8  C   UNL     1      -6.190  14.765  -1.648  0.00  0.00    +0.000 C 
BRANCH   8   9
ATOM      9  C   UNL     1      -6.641  14.474  -3.082  0.00  0.00    +0.000 C 
ATOM     10  C   UNL     1      -7.093  14.181  -4.516  0.00  0.00    +0.000 C 
BRANCH  10  11
ATOM     11  O   UNL     1      -7.485  13.929  -5.759  0.00  0.00    +0.000 OA
ATOM     12  H   UNL     1      -8.011  14.670  -6.105  0.00  0.00    +0.000 HD
ENDBRANCH  10  11
ENDBRANCH   8   9
ENDBRANCH   6   7
ENDBRANCH   4   5
ENDBRANCH   1   3
BRANCH   2  13
ATOM     13  C   UNL     1      -2.702  17.008   9.407  0.00  0.00    +0.000 C 
BRANCH  13  14
ATOM     14  O   UNL     1      -1.762  17.996   9.591  0.00  0.00    +0.000 OA
ATOM     15  H   UNL     1      -1.606  18.498   8.774  0.00  0.00    +0.000 HD
ENDBRANCH  13  14
BRANCH  13  16
ATOM     16  C   UNL     1      -3.198  16.316  10.542  0.00  0.00    +0.000 C 
ATOM     17  C   UNL     1      -3.617  15.731  11.503  0.00  0.00    +0.000 C 
BRANCH  17  18
ATOM     18  C   UNL     1      -4.152  14.988  12.730  0.00  0.00    +0.000 C 
ATOM     19  C   UNL     1      -4.572  14.404  13.692  0.00  0.00    +0.000 C 
BRANCH  19  20
ATOM     20  C   UNL     1      -5.068  13.714  14.829  0.00  0.00    +0.000 C 
BRANCH  20  21
ATOM     21  C   UNL     1      -6.416  13.807  15.274  0.00  0.00    +0.000 C 
ATOM     22  C   UNL     1      -7.676  13.901  15.704  0.00  0.00    +0.000 C 
ENDBRANCH  20  21
BRANCH  20  23
ATOM     23  O   UNL     1      -4.197  12.912  15.539  0.00  0.00    +0.000 OA
ATOM     24  H   UNL     1      -3.302  13.291  15.574  0.00  0.00    +0.000 HD
ENDBRANCH  20  23
ENDBRANCH  19  20
ENDBRANCH  17  18
ENDBRANCH  13  16
ENDBRANCH   2  13
TORSDOF 12
ENDMDL
MODEL 3
REMARK VINA RESULT:      -3.7     15.346     16.149
REMARK  Name = 86311066_OplopantriolA.pdbqt.pdb
REMARK  12 active torsions:
REMARK  status: ('A' for Active; 'I' for Inactive)
REMARK    1  A    between atoms: C_1  and  C_3
REMARK    2  A    between atoms: C_2  and  C_13
REMARK    3  A    between atoms: C_4  and  C_5
REMARK    4  A    between atoms: C_6  and  C_7
REMARK    5  A    between atoms: C_8  and  C_9
REMARK    6  A    between atoms: C_10  and  O_11
REMARK    7  A    between atoms: C_13  and  O_14
REMARK    8  A    between atoms: C_13  and  C_16
REMARK    9  A    between atoms: C_17  and  C_18
REMARK   10  A    between atoms: C_19  and  C_20
REMARK   11  A    between atoms: C_20  and  C_21
REMARK   12  A    between atoms: C_20  and  O_23
REMARK                            x       y       z     vdW  Elec       q    Type
REMARK                         _______ _______ _______ _____ _____    ______ ____
ROOT
ATOM      1  C   UNL     1      -1.862   5.633  13.871  0.00  0.00    +0.000 C 
ATOM      2  C   UNL     1      -0.865   5.987  13.302  0.00  0.00    +0.000 C 
ENDROOT
BRANCH   1   3
ATOM      3  C   UNL     1      -3.133   5.182  14.596  0.00  0.00    +0.000 C 
ATOM      4  C   UNL     1      -4.405   4.731  15.321  0.00  0.00    +0.000 C 
BRANCH   4   5
ATOM      5  C   UNL     1      -5.677   4.280  16.045  0.00  0.00    +0.000 C 
ATOM      6  C   UNL     1      -6.948   3.827  16.769  0.00  0.00    +0.000 C 
BRANCH   6   7
ATOM      7  C   UNL     1      -8.220   3.375  17.493  0.00  0.00    +0.000 C 
ATOM      8  C   UNL     1      -9.492   2.923  18.217  0.00  0.00    +0.000 C 
BRANCH   8   9
ATOM      9  C   UNL     1     -10.763   2.470  18.942  0.00  0.00    +0.000 C 
ATOM     10  C   UNL     1     -12.034   2.017  19.667  0.00  0.00    +0.000 C 
BRANCH  10  11
ATOM     11  O   UNL     1     -13.135   1.625  20.295  0.00  0.00    +0.000 OA
ATOM     12  H   UNL     1     -13.914   2.076  19.928  0.00  0.00    +0.000 HD
ENDBRANCH  10  11
ENDBRANCH   8   9
ENDBRANCH   6   7
ENDBRANCH   4   5
ENDBRANCH   1   3
BRANCH   2  13
ATOM     13  C   UNL     1       0.311   6.405  12.632  0.00  0.00    +0.000 C 
BRANCH  13  14
ATOM     14  O   UNL     1       0.572   7.756  12.590  0.00  0.00    +0.000 OA
ATOM     15  H   UNL     1      -0.178   8.254  12.226  0.00  0.00    +0.000 HD
ENDBRANCH  13  14
BRANCH  13  16
ATOM     16  C   UNL     1       1.222   5.513  12.011  0.00  0.00    +0.000 C 
ATOM     17  C   UNL     1       1.992   4.757  11.485  0.00  0.00    +0.000 C 
BRANCH  17  18
ATOM     18  C   UNL     1       2.972   3.791  10.814  0.00  0.00    +0.000 C 
ATOM     19  C   UNL     1       3.741   3.034  10.288  0.00  0.00    +0.000 C 
BRANCH  19  20
ATOM     20  C   UNL     1       4.651   2.139   9.664  0.00  0.00    +0.000 C 
BRANCH  20  21
ATOM     21  C   UNL     1       4.347   1.419   8.475  0.00  0.00    +0.000 C 
ATOM     22  C   UNL     1       4.061   0.756   7.352  0.00  0.00    +0.000 C 
ENDBRANCH  20  21
BRANCH  20  23
ATOM     23  O   UNL     1       5.891   1.959  10.241  0.00  0.00    +0.000 OA
ATOM     24  H   UNL     1       6.414   1.285   9.773  0.00  0.00    +0.000 HD
ENDBRANCH  20  23
ENDBRANCH  19  20
ENDBRANCH  17  18
ENDBRANCH  13  16
ENDBRANCH   2  13
TORSDOF 12
ENDMDL
MODEL 4
REMARK VINA RESULT:      -3.6      4.452     14.411
REMARK  Name = 86311066_OplopantriolA.pdbqt.pdb
REMARK  12 active torsions:
REMARK  status: ('A' for Active; 'I' for Inactive)
REMARK    1  A    between atoms: C_1  and  C_3
REMARK    2  A    between atoms: C_2  and  C_13
REMARK    3  A    between atoms: C_4  and  C_5
REMARK    4  A    between atoms: C_6  and  C_7
REMARK    5  A    between atoms: C_8  and  C_9
REMARK    6  A    between atoms: C_10  and  O_11
REMARK    7  A    between atoms: C_13  and  O_14
REMARK    8  A    between atoms: C_13  and  C_16
REMARK    9  A    between atoms: C_17  and  C_18
REMARK   10  A    between atoms: C_19  and  C_20
REMARK   11  A    between atoms: C_20  and  C_21
REMARK   12  A    between atoms: C_20  and  O_23
REMARK                            x       y       z     vdW  Elec       q    Type
REMARK                         _______ _______ _______ _____ _____    ______ ____
ROOT
ATOM      1  C   UNL     1      -3.863  16.306   3.998  0.00  0.00    +0.000 C 
ATOM      2  C   UNL     1      -3.347  16.607   5.040  0.00  0.00    +0.000 C 
ENDROOT
BRANCH   1   3
ATOM      3  C   UNL     1      -4.520  15.924   2.669  0.00  0.00    +0.000 C 
ATOM      4  C   UNL     1      -5.178  15.542   1.340  0.00  0.00    +0.000 C 
BRANCH   4   5
ATOM      5  C   UNL     1      -5.837  15.159   0.011  0.00  0.00    +0.000 C 
ATOM      6  C   UNL     1      -6.498  14.776  -1.317  0.00  0.00    +0.000 C 
BRANCH   6   7
ATOM      7  C   UNL     1      -7.158  14.393  -2.645  0.00  0.00    +0.000 C 
ATOM      8  C   UNL     1      -7.818  14.011  -3.973  0.00  0.00    +0.000 C 
BRANCH   8   9
ATOM      9  C   UNL     1      -8.477  13.628  -5.302  0.00  0.00    +0.000 C 
ATOM     10  C   UNL     1      -9.135  13.245  -6.631  0.00  0.00    +0.000 C 
BRANCH  10  11
ATOM     11  O   UNL     1      -9.707  12.914  -7.782  0.00  0.00    +0.000 OA
ATOM     12  H   UNL     1     -10.651  13.144  -7.770  0.00  0.00    +0.000 HD
ENDBRANCH  10  11
ENDBRANCH   8   9
ENDBRANCH   6   7
ENDBRANCH   4   5
ENDBRANCH   1   3
BRANCH   2  13
ATOM     13  C   UNL     1      -2.740  16.962   6.270  0.00  0.00    +0.000 C 
BRANCH  13  14
ATOM     14  O   UNL     1      -1.468  17.486   6.223  0.00  0.00    +0.000 OA
ATOM     15  H   UNL     1      -1.451  18.410   6.525  0.00  0.00    +0.000 HD
ENDBRANCH  13  14
BRANCH  13  16
ATOM     16  C   UNL     1      -3.369  16.806   7.532  0.00  0.00    +0.000 C 
ATOM     17  C   UNL     1      -3.902  16.674   8.599  0.00  0.00    +0.000 C 
BRANCH  17  18
ATOM     18  C   UNL     1      -4.582  16.503   9.960  0.00  0.00    +0.000 C 
ATOM     19  C   UNL     1      -5.115  16.369  11.027  0.00  0.00    +0.000 C 
BRANCH  19  20
ATOM     20  C   UNL     1      -5.745  16.209  12.290  0.00  0.00    +0.000 C 
BRANCH  20  21
ATOM     21  C   UNL     1      -5.525  15.087  13.137  0.00  0.00    +0.000 C 
ATOM     22  C   UNL     1      -5.331  14.027  13.924  0.00  0.00    +0.000 C 
ENDBRANCH  20  21
BRANCH  20  23
ATOM     23  O   UNL     1      -6.616  17.192  12.716  0.00  0.00    +0.000 OA
ATOM     24  H   UNL     1      -7.130  17.565  11.979  0.00  0.00    +0.000 HD
ENDBRANCH  20  23
ENDBRANCH  19  20
ENDBRANCH  17  18
ENDBRANCH  13  16
ENDBRANCH   2  13
TORSDOF 12
ENDMDL
MODEL 5
REMARK VINA RESULT:      -3.5     16.396     20.974
REMARK  Name = 86311066_OplopantriolA.pdbqt.pdb
REMARK  12 active torsions:
REMARK  status: ('A' for Active; 'I' for Inactive)
REMARK    1  A    between atoms: C_1  and  C_3
REMARK    2  A    between atoms: C_2  and  C_13
REMARK    3  A    between atoms: C_4  and  C_5
REMARK    4  A    between atoms: C_6  and  C_7
REMARK    5  A    between atoms: C_8  and  C_9
REMARK    6  A    between atoms: C_10  and  O_11
REMARK    7  A    between atoms: C_13  and  O_14
REMARK    8  A    between atoms: C_13  and  C_16
REMARK    9  A    between atoms: C_17  and  C_18
REMARK   10  A    between atoms: C_19  and  C_20
REMARK   11  A    between atoms: C_20  and  C_21
REMARK   12  A    between atoms: C_20  and  O_23
REMARK                            x       y       z     vdW  Elec       q    Type
REMARK                         _______ _______ _______ _____ _____    ______ ____
ROOT
ATOM      1  C   UNL     1     -10.264   4.730  -4.574  0.00  0.00    +0.000 C 
ATOM      2  C   UNL     1     -11.462   4.643  -4.610  0.00  0.00    +0.000 C 
ENDROOT
BRANCH   1   3
ATOM      3  C   UNL     1      -8.738   4.841  -4.526  0.00  0.00    +0.000 C 
ATOM      4  C   UNL     1      -7.211   4.952  -4.480  0.00  0.00    +0.000 C 
BRANCH   4   5
ATOM      5  C   UNL     1      -5.684   5.062  -4.433  0.00  0.00    +0.000 C 
ATOM      6  C   UNL     1      -4.157   5.171  -4.383  0.00  0.00    +0.000 C 
BRANCH   6   7
ATOM      7  C   UNL     1      -2.630   5.281  -4.335  0.00  0.00    +0.000 C 
ATOM      8  C   UNL     1      -1.103   5.391  -4.286  0.00  0.00    +0.000 C 
BRANCH   8   9
ATOM      9  C   UNL     1       0.423   5.503  -4.238  0.00  0.00    +0.000 C 
ATOM     10  C   UNL     1       1.950   5.613  -4.189  0.00  0.00    +0.000 C 
BRANCH  10  11
ATOM     11  O   UNL     1       3.274   5.710  -4.147  0.00  0.00    +0.000 OA
ATOM     12  H   UNL     1       3.539   6.576  -3.794  0.00  0.00    +0.000 HD
ENDBRANCH  10  11
ENDBRANCH   8   9
ENDBRANCH   6   7
ENDBRANCH   4   5
ENDBRANCH   1   3
BRANCH   2  13
ATOM     13  C   UNL     1     -12.874   4.542  -4.655  0.00  0.00    +0.000 C 
BRANCH  13  14
ATOM     14  O   UNL     1     -13.424   3.752  -5.638  0.00  0.00    +0.000 OA
ATOM     15  H   UNL     1     -14.320   4.044  -5.873  0.00  0.00    +0.000 HD
ENDBRANCH  13  14
BRANCH  13  16
ATOM     16  C   UNL     1     -13.740   5.205  -3.748  0.00  0.00    +0.000 C 
ATOM     17  C   UNL     1     -14.472   5.766  -2.980  0.00  0.00    +0.000 C 
BRANCH  17  18
ATOM     18  C   UNL     1     -15.405   6.480  -1.998  0.00  0.00    +0.000 C 
ATOM     19  C   UNL     1     -16.137   7.040  -1.228  0.00  0.00    +0.000 C 
BRANCH  19  20
ATOM     20  C   UNL     1     -17.003   7.701  -0.317  0.00  0.00    +0.000 C 
BRANCH  20  21
ATOM     21  C   UNL     1     -16.538   8.542   0.732  0.00  0.00    +0.000 C 
ATOM     22  C   UNL     1     -16.108   9.320   1.728  0.00  0.00    +0.000 C 
ENDBRANCH  20  21
BRANCH  20  23
ATOM     23  O   UNL     1     -18.364   7.519  -0.457  0.00  0.00    +0.000 OA
ATOM     24  H   UNL     1     -18.859   8.335  -0.273  0.00  0.00    +0.000 HD
ENDBRANCH  20  23
ENDBRANCH  19  20
ENDBRANCH  17  18
ENDBRANCH  13  16
ENDBRANCH   2  13
TORSDOF 12
ENDMDL
MODEL 6
REMARK VINA RESULT:      -3.4     17.032     25.731
REMARK  Name = 86311066_OplopantriolA.pdbqt.pdb
REMARK  12 active torsions:
REMARK  status: ('A' for Active; 'I' for Inactive)
REMARK    1  A    between atoms: C_1  and  C_3
REMARK    2  A    between atoms: C_2  and  C_13
REMARK    3  A    between atoms: C_4  and  C_5
REMARK    4  A    between atoms: C_6  and  C_7
REMARK    5  A    between atoms: C_8  and  C_9
REMARK    6  A    between atoms: C_10  and  O_11
REMARK    7  A    between atoms: C_13  and  O_14
REMARK    8  A    between atoms: C_13  and  C_16
REMARK    9  A    between atoms: C_17  and  C_18
REMARK   10  A    between atoms: C_19  and  C_20
REMARK   11  A    between atoms: C_20  and  C_21
REMARK   12  A    between atoms: C_20  and  O_23
REMARK                            x       y       z     vdW  Elec       q    Type
REMARK                         _______ _______ _______ _____ _____    ______ ____
ROOT
ATOM      1  C   UNL     1     -16.654   5.002  25.437  0.00  0.00    +0.000 C 
ATOM      2  C   UNL     1     -17.419   5.036  26.361  0.00  0.00    +0.000 C 
ENDROOT
BRANCH   1   3
ATOM      3  C   UNL     1     -15.679   4.960  24.257  0.00  0.00    +0.000 C 
ATOM      4  C   UNL     1     -14.703   4.918  23.077  0.00  0.00    +0.000 C 
BRANCH   4   5
ATOM      5  C   UNL     1     -13.729   4.876  21.896  0.00  0.00    +0.000 C 
ATOM      6  C   UNL     1     -12.755   4.832  20.714  0.00  0.00    +0.000 C 
BRANCH   6   7
ATOM      7  C   UNL     1     -11.780   4.789  19.534  0.00  0.00    +0.000 C 
ATOM      8  C   UNL     1     -10.806   4.745  18.353  0.00  0.00    +0.000 C 
BRANCH   8   9
ATOM      9  C   UNL     1      -9.832   4.701  17.172  0.00  0.00    +0.000 C 
ATOM     10  C   UNL     1      -8.857   4.657  15.991  0.00  0.00    +0.000 C 
BRANCH  10  11
ATOM     11  O   UNL     1      -8.013   4.618  14.967  0.00  0.00    +0.000 OA
ATOM     12  H   UNL     1      -8.342   4.015  14.280  0.00  0.00    +0.000 HD
ENDBRANCH  10  11
ENDBRANCH   8   9
ENDBRANCH   6   7
ENDBRANCH   4   5
ENDBRANCH   1   3
BRANCH   2  13
ATOM     13  C   UNL     1     -18.323   5.074  27.452  0.00  0.00    +0.000 C 
BRANCH  13  14
ATOM     14  O   UNL     1     -18.616   3.883  28.076  0.00  0.00    +0.000 OA
ATOM     15  H   UNL     1     -19.519   3.586  27.874  0.00  0.00    +0.000 HD
ENDBRANCH  13  14
BRANCH  13  16
ATOM     16  C   UNL     1     -18.932   6.264  27.927  0.00  0.00    +0.000 C 
ATOM     17  C   UNL     1     -19.448   7.270  28.330  0.00  0.00    +0.000 C 
BRANCH  17  18
ATOM     18  C   UNL     1     -20.105   8.553  28.846  0.00  0.00    +0.000 C 
ATOM     19  C   UNL     1     -20.620   9.559  29.251  0.00  0.00    +0.000 C 
BRANCH  19  20
ATOM     20  C   UNL     1     -21.229  10.750  29.729  0.00  0.00    +0.000 C 
BRANCH  20  21
ATOM     21  C   UNL     1     -20.839  11.397  30.934  0.00  0.00    +0.000 C 
ATOM     22  C   UNL     1     -20.471  12.018  32.057  0.00  0.00    +0.000 C 
ENDBRANCH  20  21
BRANCH  20  23
ATOM     23  O   UNL     1     -22.250  11.307  28.986  0.00  0.00    +0.000 OA
ATOM     24  H   UNL     1     -23.125  11.038  29.315  0.00  0.00    +0.000 HD
ENDBRANCH  20  23
ENDBRANCH  19  20
ENDBRANCH  17  18
ENDBRANCH  13  16
ENDBRANCH   2  13
TORSDOF 12
ENDMDL
MODEL 7
REMARK VINA RESULT:      -3.1      5.136     15.152
REMARK  Name = 86311066_OplopantriolA.pdbqt.pdb
REMARK  12 active torsions:
REMARK  status: ('A' for Active; 'I' for Inactive)
REMARK    1  A    between atoms: C_1  and  C_3
REMARK    2  A    between atoms: C_2  and  C_13
REMARK    3  A    between atoms: C_4  and  C_5
REMARK    4  A    between atoms: C_6  and  C_7
REMARK    5  A    between atoms: C_8  and  C_9
REMARK    6  A    between atoms: C_10  and  O_11
REMARK    7  A    between atoms: C_13  and  O_14
REMARK    8  A    between atoms: C_13  and  C_16
REMARK    9  A    between atoms: C_17  and  C_18
REMARK   10  A    between atoms: C_19  and  C_20
REMARK   11  A    between atoms: C_20  and  C_21
REMARK   12  A    between atoms: C_20  and  O_23
REMARK                            x       y       z     vdW  Elec       q    Type
REMARK                         _______ _______ _______ _____ _____    ______ ____
ROOT
ATOM      1  C   UNL     1      -3.395  14.992   1.704  0.00  0.00    +0.000 C 
ATOM      2  C   UNL     1      -2.730  15.312   2.652  0.00  0.00    +0.000 C 
ENDROOT
BRANCH   1   3
ATOM      3  C   UNL     1      -4.243  14.586   0.496  0.00  0.00    +0.000 C 
ATOM      4  C   UNL     1      -5.090  14.179  -0.714  0.00  0.00    +0.000 C 
BRANCH   4   5
ATOM      5  C   UNL     1      -5.937  13.773  -1.924  0.00  0.00    +0.000 C 
ATOM      6  C   UNL     1      -6.783  13.364  -3.133  0.00  0.00    +0.000 C 
BRANCH   6   7
ATOM      7  C   UNL     1      -7.629  12.957  -4.343  0.00  0.00    +0.000 C 
ATOM      8  C   UNL     1      -8.475  12.549  -5.553  0.00  0.00    +0.000 C 
BRANCH   8   9
ATOM      9  C   UNL     1      -9.320  12.141  -6.764  0.00  0.00    +0.000 C 
ATOM     10  C   UNL     1     -10.164  11.734  -7.975  0.00  0.00    +0.000 C 
BRANCH  10  11
ATOM     11  O   UNL     1     -10.897  11.381  -9.025  0.00  0.00    +0.000 OA
ATOM     12  H   UNL     1     -10.400  10.767  -9.592  0.00  0.00    +0.000 HD
ENDBRANCH  10  11
ENDBRANCH   8   9
ENDBRANCH   6   7
ENDBRANCH   4   5
ENDBRANCH   1   3
BRANCH   2  13
ATOM     13  C   UNL     1      -1.946  15.689   3.770  0.00  0.00    +0.000 C 
BRANCH  13  14
ATOM     14  O   UNL     1      -0.580  15.714   3.610  0.00  0.00    +0.000 OA
ATOM     15  H   UNL     1      -0.329  15.689   2.671  0.00  0.00    +0.000 HD
ENDBRANCH  13  14
BRANCH  13  16
ATOM     16  C   UNL     1      -2.493  16.038   5.032  0.00  0.00    +0.000 C 
ATOM     17  C   UNL     1      -2.955  16.332   6.100  0.00  0.00    +0.000 C 
BRANCH  17  18
ATOM     18  C   UNL     1      -3.544  16.706   7.463  0.00  0.00    +0.000 C 
ATOM     19  C   UNL     1      -4.007  16.999   8.532  0.00  0.00    +0.000 C 
BRANCH  19  20
ATOM     20  C   UNL     1      -4.554  17.346   9.795  0.00  0.00    +0.000 C 
BRANCH  20  21
ATOM     21  C   UNL     1      -5.118  16.395  10.690  0.00  0.00    +0.000 C 
ATOM     22  C   UNL     1      -5.659  15.514  11.534  0.00  0.00    +0.000 C 
ENDBRANCH  20  21
BRANCH  20  23
ATOM     23  O   UNL     1      -4.538  18.674  10.173  0.00  0.00    +0.000 OA
ATOM     24  H   UNL     1      -3.669  18.942  10.518  0.00  0.00    +0.000 HD
ENDBRANCH  20  23
ENDBRANCH  19  20
ENDBRANCH  17  18
ENDBRANCH  13  16
ENDBRANCH   2  13
TORSDOF 12
ENDMDL
MODEL 8
REMARK VINA RESULT:      -2.8     21.153     23.139
REMARK  Name = 86311066_OplopantriolA.pdbqt.pdb
REMARK  12 active torsions:
REMARK  status: ('A' for Active; 'I' for Inactive)
REMARK    1  A    between atoms: C_1  and  C_3
REMARK    2  A    between atoms: C_2  and  C_13
REMARK    3  A    between atoms: C_4  and  C_5
REMARK    4  A    between atoms: C_6  and  C_7
REMARK    5  A    between atoms: C_8  and  C_9
REMARK    6  A    between atoms: C_10  and  O_11
REMARK    7  A    between atoms: C_13  and  O_14
REMARK    8  A    between atoms: C_13  and  C_16
REMARK    9  A    between atoms: C_17  and  C_18
REMARK   10  A    between atoms: C_19  and  C_20
REMARK   11  A    between atoms: C_20  and  C_21
REMARK   12  A    between atoms: C_20  and  O_23
REMARK                            x       y       z     vdW  Elec       q    Type
REMARK                         _______ _______ _______ _____ _____    ______ ____
ROOT
ATOM      1  C   UNL     1     -17.282   4.678  25.363  0.00  0.00    +0.000 C 
ATOM      2  C   UNL     1     -18.173   4.286  24.660  0.00  0.00    +0.000 C 
ENDROOT
BRANCH   1   3
ATOM      3  C   UNL     1     -16.145   5.178  26.259  0.00  0.00    +0.000 C 
ATOM      4  C   UNL     1     -15.008   5.679  27.154  0.00  0.00    +0.000 C 
BRANCH   4   5
ATOM      5  C   UNL     1     -13.870   6.179  28.049  0.00  0.00    +0.000 C 
ATOM      6  C   UNL     1     -12.732   6.677  28.945  0.00  0.00    +0.000 C 
BRANCH   6   7
ATOM      7  C   UNL     1     -11.594   7.176  29.841  0.00  0.00    +0.000 C 
ATOM      8  C   UNL     1     -10.457   7.675  30.738  0.00  0.00    +0.000 C 
BRANCH   8   9
ATOM      9  C   UNL     1      -9.320   8.175  31.634  0.00  0.00    +0.000 C 
ATOM     10  C   UNL     1      -8.183   8.674  32.531  0.00  0.00    +0.000 C 
BRANCH  10  11
ATOM     11  O   UNL     1      -7.198   9.108  33.308  0.00  0.00    +0.000 OA
ATOM     12  H   UNL     1      -7.198  10.079  33.345  0.00  0.00    +0.000 HD
ENDBRANCH  10  11
ENDBRANCH   8   9
ENDBRANCH   6   7
ENDBRANCH   4   5
ENDBRANCH   1   3
BRANCH   2  13
ATOM     13  C   UNL     1     -19.223   3.821  23.831  0.00  0.00    +0.000 C 
BRANCH  13  14
ATOM     14  O   UNL     1     -20.047   2.841  24.337  0.00  0.00    +0.000 OA
ATOM     15  H   UNL     1     -19.638   2.384  25.091  0.00  0.00    +0.000 HD
ENDBRANCH  13  14
BRANCH  13  16
ATOM     16  C   UNL     1     -19.467   4.310  22.521  0.00  0.00    +0.000 C 
ATOM     17  C   UNL     1     -19.674   4.723  21.413  0.00  0.00    +0.000 C 
BRANCH  17  18
ATOM     18  C   UNL     1     -19.941   5.249  20.001  0.00  0.00    +0.000 C 
ATOM     19  C   UNL     1     -20.150   5.662  18.893  0.00  0.00    +0.000 C 
BRANCH  19  20
ATOM     20  C   UNL     1     -20.397   6.151  17.583  0.00  0.00    +0.000 C 
BRANCH  20  21
ATOM     21  C   UNL     1     -21.228   5.479  16.642  0.00  0.00    +0.000 C 
ATOM     22  C   UNL     1     -22.020   4.857  15.766  0.00  0.00    +0.000 C 
ENDBRANCH  20  21
BRANCH  20  23
ATOM     23  O   UNL     1     -19.802   7.336  17.202  0.00  0.00    +0.000 OA
ATOM     24  H   UNL     1     -20.056   7.596  16.300  0.00  0.00    +0.000 HD
ENDBRANCH  20  23
ENDBRANCH  19  20
ENDBRANCH  17  18
ENDBRANCH  13  16
ENDBRANCH   2  13
TORSDOF 12
ENDMDL
MODEL 9
REMARK VINA RESULT:      -2.7     12.727     24.018
REMARK  Name = 86311066_OplopantriolA.pdbqt.pdb
REMARK  12 active torsions:
REMARK  status: ('A' for Active; 'I' for Inactive)
REMARK    1  A    between atoms: C_1  and  C_3
REMARK    2  A    between atoms: C_2  and  C_13
REMARK    3  A    between atoms: C_4  and  C_5
REMARK    4  A    between atoms: C_6  and  C_7
REMARK    5  A    between atoms: C_8  and  C_9
REMARK    6  A    between atoms: C_10  and  O_11
REMARK    7  A    between atoms: C_13  and  O_14
REMARK    8  A    between atoms: C_13  and  C_16
REMARK    9  A    between atoms: C_17  and  C_18
REMARK   10  A    between atoms: C_19  and  C_20
REMARK   11  A    between atoms: C_20  and  C_21
REMARK   12  A    between atoms: C_20  and  O_23
REMARK                            x       y       z     vdW  Elec       q    Type
REMARK                         _______ _______ _______ _____ _____    ______ ____
ROOT
ATOM      1  C   UNL     1     -12.872  13.448  28.003  0.00  0.00    +0.000 C 
ATOM      2  C   UNL     1     -13.126  12.879  29.030  0.00  0.00    +0.000 C 
ENDROOT
BRANCH   1   3
ATOM      3  C   UNL     1     -12.547  14.174  26.695  0.00  0.00    +0.000 C 
ATOM      4  C   UNL     1     -12.220  14.899  25.386  0.00  0.00    +0.000 C 
BRANCH   4   5
ATOM      5  C   UNL     1     -11.894  15.625  24.077  0.00  0.00    +0.000 C 
ATOM      6  C   UNL     1     -11.565  16.350  22.769  0.00  0.00    +0.000 C 
BRANCH   6   7
ATOM      7  C   UNL     1     -11.237  17.077  21.461  0.00  0.00    +0.000 C 
ATOM      8  C   UNL     1     -10.909  17.803  20.153  0.00  0.00    +0.000 C 
BRANCH   8   9
ATOM      9  C   UNL     1     -10.580  18.529  18.845  0.00  0.00    +0.000 C 
ATOM     10  C   UNL     1     -10.251  19.255  17.537  0.00  0.00    +0.000 C 
BRANCH  10  11
ATOM     11  O   UNL     1      -9.966  19.884  16.403  0.00  0.00    +0.000 OA
ATOM     12  H   UNL     1     -10.319  20.790  16.421  0.00  0.00    +0.000 HD
ENDBRANCH  10  11
ENDBRANCH   8   9
ENDBRANCH   6   7
ENDBRANCH   4   5
ENDBRANCH   1   3
BRANCH   2  13
ATOM     13  C   UNL     1     -13.426  12.209  30.241  0.00  0.00    +0.000 C 
BRANCH  13  14
ATOM     14  O   UNL     1     -12.387  11.591  30.900  0.00  0.00    +0.000 OA
ATOM     15  H   UNL     1     -11.532  11.998  30.682  0.00  0.00    +0.000 HD
ENDBRANCH  13  14
BRANCH  13  16
ATOM     16  C   UNL     1     -14.727  12.143  30.803  0.00  0.00    +0.000 C 
ATOM     17  C   UNL     1     -15.828  12.087  31.278  0.00  0.00    +0.000 C 
BRANCH  17  18
ATOM     18  C   UNL     1     -17.233  12.014  31.882  0.00  0.00    +0.000 C 
ATOM     19  C   UNL     1     -18.334  11.956  32.357  0.00  0.00    +0.000 C 
BRANCH  19  20
ATOM     20  C   UNL     1     -19.637  11.886  32.918  0.00  0.00    +0.000 C 
BRANCH  20  21
ATOM     21  C   UNL     1     -20.821  12.168  32.181  0.00  0.00    +0.000 C 
ATOM     22  C   UNL     1     -21.923  12.442  31.480  0.00  0.00    +0.000 C 
ENDBRANCH  20  21
BRANCH  20  23
ATOM     23  O   UNL     1     -19.760  11.528  34.245  0.00  0.00    +0.000 OA
ATOM     24  H   UNL     1     -20.038  10.601  34.345  0.00  0.00    +0.000 HD
ENDBRANCH  20  23
ENDBRANCH  19  20
ENDBRANCH  17  18
ENDBRANCH  13  16
ENDBRANCH   2  13
TORSDOF 12
ENDMDL
