MODEL 1
REMARK VINA RESULT:      -7.9      0.000      0.000
REMARK  Name = 91746246_sitosterol.pdbqt.pdb
REMARK  10 active torsions:
REMARK  status: ('A' for Active; 'I' for Inactive)
REMARK    1  A    between atoms: C_5  and  C_20
REMARK    2  A    between atoms: C_19  and  O_30
REMARK    3  A    between atoms: C_20  and  C_22
REMARK    4  A    between atoms: C_23  and  C_24
REMARK    5  A    between atoms: C_24  and  C_28
REMARK    6  A    between atoms: O_30  and  C_32
REMARK    7  A    between atoms: C_32  and  C_33
REMARK    8  A    between atoms: C_34  and  C_35
REMARK    9  A    between atoms: C_38  and  O_41
REMARK   10  A    between atoms: C_40  and  O_43
REMARK                            x       y       z     vdW  Elec       q    Type
REMARK                         _______ _______ _______ _____ _____    ______ ____
ROOT
ATOM      1  C   UNL     1     -15.728   9.783  -2.207  0.00  0.00    +0.000 C 
ATOM      2  C   UNL     1     -16.243   8.594  -1.233  0.00  0.00    +0.000 C 
ATOM      3  C   UNL     1     -16.191   7.172  -1.627  0.00  0.00    +0.000 C 
ATOM      4  C   UNL     1     -15.448   6.609  -2.814  0.00  0.00    +0.000 C 
ATOM      5  C   UNL     1     -14.953  10.691  -1.260  0.00  0.00    +0.000 C 
ATOM      6  C   UNL     1     -14.915   9.105  -3.216  0.00  0.00    +0.000 C 
ATOM      7  C   UNL     1     -15.472   5.110  -3.212  0.00  0.00    +0.000 C 
ATOM      8  C   UNL     1     -15.936   8.981   0.109  0.00  0.00    +0.000 C 
ATOM      9  C   UNL     1     -14.787   7.636  -3.538  0.00  0.00    +0.000 C 
ATOM     10  C   UNL     1     -15.123  10.247   0.085  0.00  0.00    +0.000 C 
ATOM     11  C   UNL     1     -16.734   6.162  -0.795  0.00  0.00    +0.000 C 
ATOM     12  C   UNL     1     -16.990  10.494  -2.762  0.00  0.00    +0.000 C 
ATOM     13  C   UNL     1     -15.983   4.104  -2.007  0.00  0.00    +0.000 C 
ATOM     14  C   UNL     1     -14.092   4.629  -3.512  0.00  0.00    +0.000 C 
ATOM     15  C   UNL     1     -16.602   4.687  -1.026  0.00  0.00    +0.000 C 
ATOM     16  C   UNL     1     -16.437   4.914  -4.418  0.00  0.00    +0.000 C 
ATOM     17  C   UNL     1     -15.083   3.021  -1.682  0.00  0.00    +0.000 C 
ATOM     18  C   UNL     1     -13.242   3.448  -3.012  0.00  0.00    +0.000 C 
ATOM     19  C   UNL     1     -13.767   2.549  -2.023  0.00  0.00    +0.000 C 
ENDROOT
BRANCH   5  20
ATOM     20  C   UNL     1     -14.372  11.939  -1.640  0.00  0.00    +0.000 C 
ATOM     21  C   UNL     1     -14.353  13.130  -0.721  0.00  0.00    +0.000 C 
BRANCH  20  22
ATOM     22  C   UNL     1     -14.007  12.195  -2.991  0.00  0.00    +0.000 C 
ATOM     23  C   UNL     1     -13.609  12.472  -4.449  0.00  0.00    +0.000 C 
BRANCH  23  24
ATOM     24  C   UNL     1     -13.228  12.740  -5.798  0.00  0.00    +0.000 C 
ATOM     25  C   UNL     1     -13.173  11.684  -6.786  0.00  0.00    +0.000 C 
ATOM     26  C   UNL     1     -12.736  11.905  -8.217  0.00  0.00    +0.000 C 
ATOM     27  C   UNL     1     -13.553  10.251  -6.473  0.00  0.00    +0.000 C 
BRANCH  24  28
ATOM     28  C   UNL     1     -12.895  14.068  -6.180  0.00  0.00    +0.000 C 
ATOM     29  C   UNL     1     -12.518  15.513  -6.525  0.00  0.00    +0.000 C 
ENDBRANCH  24  28
ENDBRANCH  23  24
ENDBRANCH  20  22
ENDBRANCH   5  20
BRANCH  19  30
ATOM     30  O   UNL     1     -13.563   1.176  -2.130  0.00  0.00    +0.000 OA
BRANCH  30  32
ATOM     31  O   UNL     1     -14.881  -0.150  -0.748  0.00  0.00    +0.000 OA
ATOM     32  C   UNL     1     -13.890   0.528  -0.975  0.00  0.00    +0.000 C 
BRANCH  32  33
ATOM     33  C   UNL     1     -12.871   0.694   0.031  0.00  0.00    +0.000 C 
ATOM     34  C   UNL     1     -12.025   0.815   0.876  0.00  0.00    +0.000 C 
BRANCH  34  35
ATOM     35  C   UNL     1     -11.025   0.941   1.886  0.00  0.00    +0.000 A 
ATOM     36  C   UNL     1      -9.696   1.150   1.521  0.00  0.00    +0.000 A 
ATOM     37  C   UNL     1     -11.375   0.848   3.230  0.00  0.00    +0.000 A 
ATOM     38  C   UNL     1      -8.701   1.271   2.495  0.00  0.00    +0.000 A 
ATOM     39  C   UNL     1     -10.394   0.966   4.212  0.00  0.00    +0.000 A 
ATOM     40  C   UNL     1      -9.066   1.175   3.840  0.00  0.00    +0.000 A 
BRANCH  38  41
ATOM     41  O   UNL     1      -7.371   1.476   2.222  0.00  0.00    +0.000 OA
ATOM     42  C   UNL     1      -6.909   0.925   1.015  0.00  0.00    +0.000 C 
ENDBRANCH  38  41
BRANCH  40  43
ATOM     43  O   UNL     1      -8.107   1.288   4.809  0.00  0.00    +0.000 OA
ATOM     44  H   UNL     1      -8.133   0.490   5.370  0.00  0.00    +0.000 HD
ENDBRANCH  40  43
ENDBRANCH  34  35
ENDBRANCH  32  33
ENDBRANCH  30  32
ENDBRANCH  19  30
TORSDOF 10
ENDMDL
MODEL 2
REMARK VINA RESULT:      -7.7      1.655      3.164
REMARK  Name = 91746246_sitosterol.pdbqt.pdb
REMARK  10 active torsions:
REMARK  status: ('A' for Active; 'I' for Inactive)
REMARK    1  A    between atoms: C_5  and  C_20
REMARK    2  A    between atoms: C_19  and  O_30
REMARK    3  A    between atoms: C_20  and  C_22
REMARK    4  A    between atoms: C_23  and  C_24
REMARK    5  A    between atoms: C_24  and  C_28
REMARK    6  A    between atoms: O_30  and  C_32
REMARK    7  A    between atoms: C_32  and  C_33
REMARK    8  A    between atoms: C_34  and  C_35
REMARK    9  A    between atoms: C_38  and  O_41
REMARK   10  A    between atoms: C_40  and  O_43
REMARK                            x       y       z     vdW  Elec       q    Type
REMARK                         _______ _______ _______ _____ _____    ______ ____
ROOT
ATOM      1  C   UNL     1     -15.834   6.985  -1.627  0.00  0.00    +0.000 C 
ATOM      2  C   UNL     1     -16.794   5.700  -1.395  0.00  0.00    +0.000 C 
ATOM      3  C   UNL     1     -16.356   4.323  -1.700  0.00  0.00    +0.000 C 
ATOM      4  C   UNL     1     -14.943   3.890  -2.004  0.00  0.00    +0.000 C 
ATOM      5  C   UNL     1     -16.060   7.814  -0.369  0.00  0.00    +0.000 C 
ATOM      6  C   UNL     1     -14.492   6.423  -1.764  0.00  0.00    +0.000 C 
ATOM      7  C   UNL     1     -14.549   2.436  -2.372  0.00  0.00    +0.000 C 
ATOM      8  C   UNL     1     -17.582   5.963  -0.231  0.00  0.00    +0.000 C 
ATOM      9  C   UNL     1     -14.050   4.994  -1.967  0.00  0.00    +0.000 C 
ATOM     10  C   UNL     1     -17.110   7.241   0.407  0.00  0.00    +0.000 C 
ATOM     11  C   UNL     1     -17.247   3.228  -1.576  0.00  0.00    +0.000 C 
ATOM     12  C   UNL     1     -16.361   7.722  -2.888  0.00  0.00    +0.000 C 
ATOM     13  C   UNL     1     -15.686   1.310  -1.968  0.00  0.00    +0.000 C 
ATOM     14  C   UNL     1     -13.344   2.012  -1.600  0.00  0.00    +0.000 C 
ATOM     15  C   UNL     1     -16.867   1.784  -1.715  0.00  0.00    +0.000 C 
ATOM     16  C   UNL     1     -14.326   2.336  -3.909  0.00  0.00    +0.000 C 
ATOM     17  C   UNL     1     -15.212   0.218  -1.148  0.00  0.00    +0.000 C 
ATOM     18  C   UNL     1     -13.023   0.806  -0.702  0.00  0.00    +0.000 C 
ATOM     19  C   UNL     1     -14.023  -0.194  -0.450  0.00  0.00    +0.000 C 
ENDROOT
BRANCH   5  20
ATOM     20  C   UNL     1     -15.489   9.103  -0.143  0.00  0.00    +0.000 C 
ATOM     21  C   UNL     1     -15.461   9.743   1.219  0.00  0.00    +0.000 C 
BRANCH  20  22
ATOM     22  C   UNL     1     -15.145   9.953  -1.231  0.00  0.00    +0.000 C 
ATOM     23  C   UNL     1     -14.772  10.868  -2.408  0.00  0.00    +0.000 C 
BRANCH  23  24
ATOM     24  C   UNL     1     -14.410  11.710  -3.502  0.00  0.00    +0.000 C 
ATOM     25  C   UNL     1     -13.994  13.080  -3.287  0.00  0.00    +0.000 C 
ATOM     26  C   UNL     1     -13.639  14.028  -4.412  0.00  0.00    +0.000 C 
ATOM     27  C   UNL     1     -13.871  13.691  -1.907  0.00  0.00    +0.000 C 
BRANCH  24  28
ATOM     28  C   UNL     1     -14.459  11.197  -4.825  0.00  0.00    +0.000 C 
ATOM     29  C   UNL     1     -14.449  10.670  -6.265  0.00  0.00    +0.000 C 
ENDBRANCH  24  28
ENDBRANCH  23  24
ENDBRANCH  20  22
ENDBRANCH   5  20
BRANCH  19  30
ATOM     30  O   UNL     1     -13.692  -1.546  -0.447  0.00  0.00    +0.000 OA
BRANCH  30  32
ATOM     31  O   UNL     1     -14.271  -2.813   1.416  0.00  0.00    +0.000 OA
ATOM     32  C   UNL     1     -13.549  -2.025   0.823  0.00  0.00    +0.000 C 
BRANCH  32  33
ATOM     33  C   UNL     1     -12.358  -1.508   1.452  0.00  0.00    +0.000 C 
ATOM     34  C   UNL     1     -11.375  -1.062   1.980  0.00  0.00    +0.000 C 
BRANCH  34  35
ATOM     35  C   UNL     1     -10.218  -0.515   2.609  0.00  0.00    +0.000 A 
ATOM     36  C   UNL     1      -9.033  -1.248   2.634  0.00  0.00    +0.000 A 
ATOM     37  C   UNL     1     -10.275   0.743   3.203  0.00  0.00    +0.000 A 
ATOM     38  C   UNL     1      -7.890  -0.732   3.250  0.00  0.00    +0.000 A 
ATOM     39  C   UNL     1      -9.144   1.269   3.822  0.00  0.00    +0.000 A 
ATOM     40  C   UNL     1      -7.961   0.531   3.843  0.00  0.00    +0.000 A 
BRANCH  38  41
ATOM     41  O   UNL     1      -6.685  -1.388   3.321  0.00  0.00    +0.000 OA
ATOM     42  C   UNL     1      -6.115  -1.741   2.087  0.00  0.00    +0.000 C 
ENDBRANCH  38  41
BRANCH  40  43
ATOM     43  O   UNL     1      -6.854   1.053   4.454  0.00  0.00    +0.000 OA
ATOM     44  H   UNL     1      -7.143   1.635   5.182  0.00  0.00    +0.000 HD
ENDBRANCH  40  43
ENDBRANCH  34  35
ENDBRANCH  32  33
ENDBRANCH  30  32
ENDBRANCH  19  30
TORSDOF 10
ENDMDL
MODEL 3
REMARK VINA RESULT:      -7.3      2.986      7.179
REMARK  Name = 91746246_sitosterol.pdbqt.pdb
REMARK  10 active torsions:
REMARK  status: ('A' for Active; 'I' for Inactive)
REMARK    1  A    between atoms: C_5  and  C_20
REMARK    2  A    between atoms: C_19  and  O_30
REMARK    3  A    between atoms: C_20  and  C_22
REMARK    4  A    between atoms: C_23  and  C_24
REMARK    5  A    between atoms: C_24  and  C_28
REMARK    6  A    between atoms: O_30  and  C_32
REMARK    7  A    between atoms: C_32  and  C_33
REMARK    8  A    between atoms: C_34  and  C_35
REMARK    9  A    between atoms: C_38  and  O_41
REMARK   10  A    between atoms: C_40  and  O_43
REMARK                            x       y       z     vdW  Elec       q    Type
REMARK                         _______ _______ _______ _____ _____    ______ ____
ROOT
ATOM      1  C   UNL     1     -16.197   2.474  -2.231  0.00  0.00    +0.000 C 
ATOM      2  C   UNL     1     -15.849   0.971  -1.736  0.00  0.00    +0.000 C 
ATOM      3  C   UNL     1     -14.463   0.519  -1.499  0.00  0.00    +0.000 C 
ATOM      4  C   UNL     1     -13.244   1.405  -1.423  0.00  0.00    +0.000 C 
ATOM      5  C   UNL     1     -17.395   2.851  -1.367  0.00  0.00    +0.000 C 
ATOM      6  C   UNL     1     -14.980   3.240  -1.967  0.00  0.00    +0.000 C 
ATOM      7  C   UNL     1     -11.803   0.869  -1.224  0.00  0.00    +0.000 C 
ATOM      8  C   UNL     1     -16.901   0.557  -0.860  0.00  0.00    +0.000 C 
ATOM      9  C   UNL     1     -13.589   2.769  -1.617  0.00  0.00    +0.000 C 
ATOM     10  C   UNL     1     -17.826   1.718  -0.616  0.00  0.00    +0.000 C 
ATOM     11  C   UNL     1     -14.181  -0.827  -1.158  0.00  0.00    +0.000 C 
ATOM     12  C   UNL     1     -16.592   2.379  -3.729  0.00  0.00    +0.000 C 
ATOM     13  C   UNL     1     -11.734  -0.677  -0.650  0.00  0.00    +0.000 C 
ATOM     14  C   UNL     1     -11.090   1.664  -0.181  0.00  0.00    +0.000 C 
ATOM     15  C   UNL     1     -12.838  -1.353  -0.752  0.00  0.00    +0.000 C 
ATOM     16  C   UNL     1     -11.054   0.888  -2.589  0.00  0.00    +0.000 C 
ATOM     17  C   UNL     1     -10.945  -0.859   0.547  0.00  0.00    +0.000 C 
ATOM     18  C   UNL     1     -10.328   1.298   1.103  0.00  0.00    +0.000 C 
ATOM     19  C   UNL     1     -10.224  -0.074   1.515  0.00  0.00    +0.000 C 
ENDROOT
BRANCH   5  20
ATOM     20  C   UNL     1     -18.125   4.071  -1.496  0.00  0.00    +0.000 C 
ATOM     21  C   UNL     1     -19.536   4.113  -2.019  0.00  0.00    +0.000 C 
BRANCH  20  22
ATOM     22  C   UNL     1     -17.475   5.331  -1.373  0.00  0.00    +0.000 C 
ATOM     23  C   UNL     1     -16.775   6.692  -1.243  0.00  0.00    +0.000 C 
BRANCH  23  24
ATOM     24  C   UNL     1     -16.122   7.958  -1.140  0.00  0.00    +0.000 C 
ATOM     25  C   UNL     1     -16.161   8.723   0.089  0.00  0.00    +0.000 C 
ATOM     26  C   UNL     1     -15.523  10.086   0.240  0.00  0.00    +0.000 C 
ATOM     27  C   UNL     1     -16.846   8.222   1.344  0.00  0.00    +0.000 C 
BRANCH  24  28
ATOM     28  C   UNL     1     -15.423   8.477  -2.262  0.00  0.00    +0.000 C 
ATOM     29  C   UNL     1     -14.700   9.100  -3.462  0.00  0.00    +0.000 C 
ENDBRANCH  24  28
ENDBRANCH  23  24
ENDBRANCH  20  22
ENDBRANCH   5  20
BRANCH  19  30
ATOM     30  O   UNL     1      -9.027  -0.578   2.015  0.00  0.00    +0.000 OA
BRANCH  30  32
ATOM     31  O   UNL     1      -9.325   0.210   4.183  0.00  0.00    +0.000 OA
ATOM     32  C   UNL     1      -8.660   0.051   3.170  0.00  0.00    +0.000 C 
BRANCH  32  33
ATOM     33  C   UNL     1      -7.300   0.526   3.105  0.00  0.00    +0.000 C 
ATOM     34  C   UNL     1      -6.161   0.903   3.046  0.00  0.00    +0.000 C 
BRANCH  34  35
ATOM     35  C   UNL     1      -4.803   1.334   2.972  0.00  0.00    +0.000 A 
ATOM     36  C   UNL     1      -4.506   2.601   2.474  0.00  0.00    +0.000 A 
ATOM     37  C   UNL     1      -3.779   0.488   3.388  0.00  0.00    +0.000 A 
ATOM     38  C   UNL     1      -3.181   3.040   2.388  0.00  0.00    +0.000 A 
ATOM     39  C   UNL     1      -2.454   0.911   3.308  0.00  0.00    +0.000 A 
ATOM     40  C   UNL     1      -2.163   2.180   2.809  0.00  0.00    +0.000 A 
BRANCH  38  41
ATOM     41  O   UNL     1      -2.802   4.270   1.910  0.00  0.00    +0.000 OA
ATOM     42  C   UNL     1      -2.690   5.286   2.873  0.00  0.00    +0.000 C 
ENDBRANCH  38  41
BRANCH  40  43
ATOM     43  O   UNL     1      -0.860   2.590   2.731  0.00  0.00    +0.000 OA
ATOM     44  H   UNL     1      -0.750   3.389   3.279  0.00  0.00    +0.000 HD
ENDBRANCH  40  43
ENDBRANCH  34  35
ENDBRANCH  32  33
ENDBRANCH  30  32
ENDBRANCH  19  30
TORSDOF 10
ENDMDL
MODEL 4
REMARK VINA RESULT:      -7.0     15.768     21.330
REMARK  Name = 91746246_sitosterol.pdbqt.pdb
REMARK  10 active torsions:
REMARK  status: ('A' for Active; 'I' for Inactive)
REMARK    1  A    between atoms: C_5  and  C_20
REMARK    2  A    between atoms: C_19  and  O_30
REMARK    3  A    between atoms: C_20  and  C_22
REMARK    4  A    between atoms: C_23  and  C_24
REMARK    5  A    between atoms: C_24  and  C_28
REMARK    6  A    between atoms: O_30  and  C_32
REMARK    7  A    between atoms: C_32  and  C_33
REMARK    8  A    between atoms: C_34  and  C_35
REMARK    9  A    between atoms: C_38  and  O_41
REMARK   10  A    between atoms: C_40  and  O_43
REMARK                            x       y       z     vdW  Elec       q    Type
REMARK                         _______ _______ _______ _____ _____    ______ ____
ROOT
ATOM      1  C   UNL     1      -4.211  11.656  16.946  0.00  0.00    +0.000 C 
ATOM      2  C   UNL     1      -5.054  12.927  16.397  0.00  0.00    +0.000 C 
ATOM      3  C   UNL     1      -4.435  13.992  15.582  0.00  0.00    +0.000 C 
ATOM      4  C   UNL     1      -3.070  13.937  14.943  0.00  0.00    +0.000 C 
ATOM      5  C   UNL     1      -5.152  10.485  16.694  0.00  0.00    +0.000 C 
ATOM      6  C   UNL     1      -2.989  11.651  16.143  0.00  0.00    +0.000 C 
ATOM      7  C   UNL     1      -2.448  15.110  14.141  0.00  0.00    +0.000 C 
ATOM      8  C   UNL     1      -6.373  12.463  16.094  0.00  0.00    +0.000 C 
ATOM      9  C   UNL     1      -2.421  12.706  15.226  0.00  0.00    +0.000 C 
ATOM     10  C   UNL     1      -6.418  10.967  16.250  0.00  0.00    +0.000 C 
ATOM     11  C   UNL     1      -5.173  15.137  15.195  0.00  0.00    +0.000 C 
ATOM     12  C   UNL     1      -3.988  11.882  18.465  0.00  0.00    +0.000 C 
ATOM     13  C   UNL     1      -3.544  16.241  13.647  0.00  0.00    +0.000 C 
ATOM     14  C   UNL     1      -1.856  14.612  12.864  0.00  0.00    +0.000 C 
ATOM     15  C   UNL     1      -4.692  16.198  14.250  0.00  0.00    +0.000 C 
ATOM     16  C   UNL     1      -1.399  15.841  15.028  0.00  0.00    +0.000 C 
ATOM     17  C   UNL     1      -3.542  16.527  12.229  0.00  0.00    +0.000 C 
ATOM     18  C   UNL     1      -2.016  15.009  11.388  0.00  0.00    +0.000 C 
ATOM     19  C   UNL     1      -2.922  16.061  11.017  0.00  0.00    +0.000 C 
ENDROOT
BRANCH   5  20
ATOM     20  C   UNL     1      -4.886   9.140  17.094  0.00  0.00    +0.000 C 
ATOM     21  C   UNL     1      -3.541   8.706  17.612  0.00  0.00    +0.000 C 
BRANCH  20  22
ATOM     22  C   UNL     1      -5.798   8.091  16.790  0.00  0.00    +0.000 C 
ATOM     23  C   UNL     1      -6.781   6.957  16.464  0.00  0.00    +0.000 C 
BRANCH  23  24
ATOM     24  C   UNL     1      -7.682   5.893  16.156  0.00  0.00    +0.000 C 
ATOM     25  C   UNL     1      -9.114   6.068  16.263  0.00  0.00    +0.000 C 
ATOM     26  C   UNL     1     -10.110   4.963  15.989  0.00  0.00    +0.000 C 
ATOM     27  C   UNL     1      -9.750   7.385  16.659  0.00  0.00    +0.000 C 
BRANCH  24  28
ATOM     28  C   UNL     1      -7.163   4.638  15.737  0.00  0.00    +0.000 C 
ATOM     29  C   UNL     1      -6.540   3.306  15.305  0.00  0.00    +0.000 C 
ENDBRANCH  24  28
ENDBRANCH  23  24
ENDBRANCH  20  22
ENDBRANCH   5  20
BRANCH  19  30
ATOM     30  O   UNL     1      -2.566  16.999  10.053  0.00  0.00    +0.000 OA
BRANCH  30  32
ATOM     31  O   UNL     1      -4.570  18.115   9.669  0.00  0.00    +0.000 OA
ATOM     32  C   UNL     1      -3.645  17.398   9.318  0.00  0.00    +0.000 C 
BRANCH  32  33
ATOM     33  C   UNL     1      -3.583  16.889   7.970  0.00  0.00    +0.000 C 
ATOM     34  C   UNL     1      -3.515  16.459   6.850  0.00  0.00    +0.000 C 
BRANCH  34  35
ATOM     35  C   UNL     1      -3.415  15.943   5.524  0.00  0.00    +0.000 A 
ATOM     36  C   UNL     1      -2.338  15.128   5.179  0.00  0.00    +0.000 A 
ATOM     37  C   UNL     1      -4.385  16.259   4.577  0.00  0.00    +0.000 A 
ATOM     38  C   UNL     1      -2.219  14.617   3.884  0.00  0.00    +0.000 A 
ATOM     39  C   UNL     1      -4.279  15.757   3.282  0.00  0.00    +0.000 A 
ATOM     40  C   UNL     1      -3.200  14.942   2.943  0.00  0.00    +0.000 A 
BRANCH  38  41
ATOM     41  O   UNL     1      -1.191  13.810   3.461  0.00  0.00    +0.000 OA
ATOM     42  C   UNL     1       0.074  14.416   3.415  0.00  0.00    +0.000 C 
ENDBRANCH  38  41
BRANCH  40  43
ATOM     43  O   UNL     1      -3.100  14.454   1.669  0.00  0.00    +0.000 OA
ATOM     44  H   UNL     1      -2.178  14.176   1.512  0.00  0.00    +0.000 HD
ENDBRANCH  40  43
ENDBRANCH  34  35
ENDBRANCH  32  33
ENDBRANCH  30  32
ENDBRANCH  19  30
TORSDOF 10
ENDMDL
MODEL 5
REMARK VINA RESULT:      -6.8      3.693      7.515
REMARK  Name = 91746246_sitosterol.pdbqt.pdb
REMARK  10 active torsions:
REMARK  status: ('A' for Active; 'I' for Inactive)
REMARK    1  A    between atoms: C_5  and  C_20
REMARK    2  A    between atoms: C_19  and  O_30
REMARK    3  A    between atoms: C_20  and  C_22
REMARK    4  A    between atoms: C_23  and  C_24
REMARK    5  A    between atoms: C_24  and  C_28
REMARK    6  A    between atoms: O_30  and  C_32
REMARK    7  A    between atoms: C_32  and  C_33
REMARK    8  A    between atoms: C_34  and  C_35
REMARK    9  A    between atoms: C_38  and  O_41
REMARK   10  A    between atoms: C_40  and  O_43
REMARK                            x       y       z     vdW  Elec       q    Type
REMARK                         _______ _______ _______ _____ _____    ______ ____
ROOT
ATOM      1  C   UNL     1     -16.607   1.790  -2.027  0.00  0.00    +0.000 C 
ATOM      2  C   UNL     1     -16.202   0.350  -1.404  0.00  0.00    +0.000 C 
ATOM      3  C   UNL     1     -14.799  -0.028  -1.137  0.00  0.00    +0.000 C 
ATOM      4  C   UNL     1     -13.613   0.905  -1.148  0.00  0.00    +0.000 C 
ATOM      5  C   UNL     1     -17.814   2.199  -1.193  0.00  0.00    +0.000 C 
ATOM      6  C   UNL     1     -15.417   2.620  -1.841  0.00  0.00    +0.000 C 
ATOM      7  C   UNL     1     -12.152   0.442  -0.913  0.00  0.00    +0.000 C 
ATOM      8  C   UNL     1     -17.234  -0.022  -0.487  0.00  0.00    +0.000 C 
ATOM      9  C   UNL     1     -14.009   2.233  -1.460  0.00  0.00    +0.000 C 
ATOM     10  C   UNL     1     -18.200   1.122  -0.341  0.00  0.00    +0.000 C 
ATOM     11  C   UNL     1     -14.466  -1.327  -0.681  0.00  0.00    +0.000 C 
ATOM     12  C   UNL     1     -17.003   1.548  -3.508  0.00  0.00    +0.000 C 
ATOM     13  C   UNL     1     -12.024  -1.044  -0.205  0.00  0.00    +0.000 C 
ATOM     14  C   UNL     1     -11.466   1.352   0.051  0.00  0.00    +0.000 C 
ATOM     15  C   UNL     1     -13.103  -1.766  -0.239  0.00  0.00    +0.000 C 
ATOM     16  C   UNL     1     -11.410   0.367  -2.280  0.00  0.00    +0.000 C 
ATOM     17  C   UNL     1     -11.224  -1.089   0.998  0.00  0.00    +0.000 C 
ATOM     18  C   UNL     1     -10.686   1.129   1.357  0.00  0.00    +0.000 C 
ATOM     19  C   UNL     1     -10.529  -0.197   1.888  0.00  0.00    +0.000 C 
ENDROOT
BRANCH   5  20
ATOM     20  C   UNL     1     -18.589   3.375  -1.423  0.00  0.00    +0.000 C 
ATOM     21  C   UNL     1     -19.869   3.353  -2.215  0.00  0.00    +0.000 C 
BRANCH  20  22
ATOM     22  C   UNL     1     -18.066   4.666  -1.133  0.00  0.00    +0.000 C 
ATOM     23  C   UNL     1     -17.499   6.059  -0.819  0.00  0.00    +0.000 C 
BRANCH  23  24
ATOM     24  C   UNL     1     -16.963   7.346  -0.513  0.00  0.00    +0.000 C 
ATOM     25  C   UNL     1     -15.659   7.749  -0.994  0.00  0.00    +0.000 C 
ATOM     26  C   UNL     1     -15.026   9.083  -0.666  0.00  0.00    +0.000 C 
ATOM     27  C   UNL     1     -14.804   6.864  -1.879  0.00  0.00    +0.000 C 
BRANCH  24  28
ATOM     28  C   UNL     1     -17.723   8.249   0.278  0.00  0.00    +0.000 C 
ATOM     29  C   UNL     1     -18.491   9.271   1.125  0.00  0.00    +0.000 C 
ENDBRANCH  24  28
ENDBRANCH  23  24
ENDBRANCH  20  22
ENDBRANCH   5  20
BRANCH  19  30
ATOM     30  O   UNL     1      -9.313  -0.610   2.422  0.00  0.00    +0.000 OA
BRANCH  30  32
ATOM     31  O   UNL     1      -9.284   0.693   4.349  0.00  0.00    +0.000 OA
ATOM     32  C   UNL     1      -8.805   0.314   3.290  0.00  0.00    +0.000 C 
BRANCH  32  33
ATOM     33  C   UNL     1      -7.537   0.826   2.834  0.00  0.00    +0.000 C 
ATOM     34  C   UNL     1      -6.482   1.245   2.438  0.00  0.00    +0.000 C 
BRANCH  34  35
ATOM     35  C   UNL     1      -5.234   1.732   1.951  0.00  0.00    +0.000 A 
ATOM     36  C   UNL     1      -4.703   1.214   0.771  0.00  0.00    +0.000 A 
ATOM     37  C   UNL     1      -4.546   2.717   2.655  0.00  0.00    +0.000 A 
ATOM     38  C   UNL     1      -3.478   1.675   0.279  0.00  0.00    +0.000 A 
ATOM     39  C   UNL     1      -3.324   3.185   2.177  0.00  0.00    +0.000 A 
ATOM     40  C   UNL     1      -2.798   2.663   0.996  0.00  0.00    +0.000 A 
BRANCH  38  41
ATOM     41  O   UNL     1      -2.885   1.218  -0.872  0.00  0.00    +0.000 OA
ATOM     42  C   UNL     1      -3.718   0.485  -1.733  0.00  0.00    +0.000 C 
ENDBRANCH  38  41
BRANCH  40  43
ATOM     43  O   UNL     1      -1.596   3.125   0.533  0.00  0.00    +0.000 OA
ATOM     44  H   UNL     1      -1.161   2.413   0.029  0.00  0.00    +0.000 HD
ENDBRANCH  40  43
ENDBRANCH  34  35
ENDBRANCH  32  33
ENDBRANCH  30  32
ENDBRANCH  19  30
TORSDOF 10
ENDMDL
MODEL 6
REMARK VINA RESULT:      -6.7     17.051     21.002
REMARK  Name = 91746246_sitosterol.pdbqt.pdb
REMARK  10 active torsions:
REMARK  status: ('A' for Active; 'I' for Inactive)
REMARK    1  A    between atoms: C_5  and  C_20
REMARK    2  A    between atoms: C_19  and  O_30
REMARK    3  A    between atoms: C_20  and  C_22
REMARK    4  A    between atoms: C_23  and  C_24
REMARK    5  A    between atoms: C_24  and  C_28
REMARK    6  A    between atoms: O_30  and  C_32
REMARK    7  A    between atoms: C_32  and  C_33
REMARK    8  A    between atoms: C_34  and  C_35
REMARK    9  A    between atoms: C_38  and  O_41
REMARK   10  A    between atoms: C_40  and  O_43
REMARK                            x       y       z     vdW  Elec       q    Type
REMARK                         _______ _______ _______ _____ _____    ______ ____
ROOT
ATOM      1  C   UNL     1       0.930  13.377  13.698  0.00  0.00    +0.000 C 
ATOM      2  C   UNL     1       2.012  12.475  14.499  0.00  0.00    +0.000 C 
ATOM      3  C   UNL     1       1.743  11.073  14.880  0.00  0.00    +0.000 C 
ATOM      4  C   UNL     1       0.600  10.224  14.383  0.00  0.00    +0.000 C 
ATOM      5  C   UNL     1       1.781  14.089  12.654  0.00  0.00    +0.000 C 
ATOM      6  C   UNL     1      -0.028  12.411  13.160  0.00  0.00    +0.000 C 
ATOM      7  C   UNL     1       0.336   8.772  14.861  0.00  0.00    +0.000 C 
ATOM      8  C   UNL     1       3.310  12.859  14.038  0.00  0.00    +0.000 C 
ATOM      9  C   UNL     1      -0.221  10.949  13.480  0.00  0.00    +0.000 C 
ATOM     10  C   UNL     1       3.162  13.823  12.892  0.00  0.00    +0.000 C 
ATOM     11  C   UNL     1       2.669  10.338  15.662  0.00  0.00    +0.000 C 
ATOM     12  C   UNL     1       0.334  14.382  14.718  0.00  0.00    +0.000 C 
ATOM     13  C   UNL     1       1.631   8.061  15.595  0.00  0.00    +0.000 C 
ATOM     14  C   UNL     1       0.059   7.883  13.694  0.00  0.00    +0.000 C 
ATOM     15  C   UNL     1       2.567   8.876  15.976  0.00  0.00    +0.000 C 
ATOM     16  C   UNL     1      -0.834   8.773  15.889  0.00  0.00    +0.000 C 
ATOM     17  C   UNL     1       2.037   6.789  15.038  0.00  0.00    +0.000 C 
ATOM     18  C   UNL     1       0.647   6.548  13.208  0.00  0.00    +0.000 C 
ATOM     19  C   UNL     1       1.719   5.925  13.933  0.00  0.00    +0.000 C 
ENDROOT
BRANCH   5  20
ATOM     20  C   UNL     1       1.285  15.075  11.749  0.00  0.00    +0.000 C 
ATOM     21  C   UNL     1       2.160  16.160  11.182  0.00  0.00    +0.000 C 
BRANCH  20  22
ATOM     22  C   UNL     1      -0.113  15.234  11.534  0.00  0.00    +0.000 C 
ATOM     23  C   UNL     1      -1.621  15.406  11.298  0.00  0.00    +0.000 C 
BRANCH  23  24
ATOM     24  C   UNL     1      -3.020  15.583  11.073  0.00  0.00    +0.000 C 
ATOM     25  C   UNL     1      -3.996  15.165  12.057  0.00  0.00    +0.000 C 
ATOM     26  C   UNL     1      -5.489  15.291  11.853  0.00  0.00    +0.000 C 
ATOM     27  C   UNL     1      -3.606  14.563  13.392  0.00  0.00    +0.000 C 
BRANCH  24  28
ATOM     28  C   UNL     1      -3.463  16.178   9.862  0.00  0.00    +0.000 C 
ATOM     29  C   UNL     1      -3.880  16.804   8.526  0.00  0.00    +0.000 C 
ENDBRANCH  24  28
ENDBRANCH  23  24
ENDBRANCH  20  22
ENDBRANCH   5  20
BRANCH  19  30
ATOM     30  O   UNL     1       1.730   4.549  14.144  0.00  0.00    +0.000 OA
BRANCH  30  32
ATOM     31  O   UNL     1       1.697   3.973  16.397  0.00  0.00    +0.000 OA
ATOM     32  C   UNL     1       1.147   4.219  15.333  0.00  0.00    +0.000 C 
BRANCH  32  33
ATOM     33  C   UNL     1      -0.291   4.213  15.233  0.00  0.00    +0.000 C 
ATOM     34  C   UNL     1      -1.491   4.195  15.164  0.00  0.00    +0.000 C 
BRANCH  34  35
ATOM     35  C   UNL     1      -2.914   4.159  15.094  0.00  0.00    +0.000 A 
ATOM     36  C   UNL     1      -3.594   2.991  15.437  0.00  0.00    +0.000 A 
ATOM     37  C   UNL     1      -3.622   5.283  14.678  0.00  0.00    +0.000 A 
ATOM     38  C   UNL     1      -4.989   2.934  15.370  0.00  0.00    +0.000 A 
ATOM     39  C   UNL     1      -5.012   5.240  14.606  0.00  0.00    +0.000 A 
ATOM     40  C   UNL     1      -5.686   4.070  14.950  0.00  0.00    +0.000 A 
BRANCH  38  41
ATOM     41  O   UNL     1      -5.735   1.825  15.688  0.00  0.00    +0.000 OA
ATOM     42  C   UNL     1      -5.758   0.812  14.716  0.00  0.00    +0.000 C 
ENDBRANCH  38  41
BRANCH  40  43
ATOM     43  O   UNL     1      -7.052   4.033  14.876  0.00  0.00    +0.000 OA
ATOM     44  H   UNL     1      -7.371   3.256  15.372  0.00  0.00    +0.000 HD
ENDBRANCH  40  43
ENDBRANCH  34  35
ENDBRANCH  32  33
ENDBRANCH  30  32
ENDBRANCH  19  30
TORSDOF 10
ENDMDL
MODEL 7
REMARK VINA RESULT:      -6.7     16.784     21.861
REMARK  Name = 91746246_sitosterol.pdbqt.pdb
REMARK  10 active torsions:
REMARK  status: ('A' for Active; 'I' for Inactive)
REMARK    1  A    between atoms: C_5  and  C_20
REMARK    2  A    between atoms: C_19  and  O_30
REMARK    3  A    between atoms: C_20  and  C_22
REMARK    4  A    between atoms: C_23  and  C_24
REMARK    5  A    between atoms: C_24  and  C_28
REMARK    6  A    between atoms: O_30  and  C_32
REMARK    7  A    between atoms: C_32  and  C_33
REMARK    8  A    between atoms: C_34  and  C_35
REMARK    9  A    between atoms: C_38  and  O_41
REMARK   10  A    between atoms: C_40  and  O_43
REMARK                            x       y       z     vdW  Elec       q    Type
REMARK                         _______ _______ _______ _____ _____    ______ ____
ROOT
ATOM      1  C   UNL     1      -5.282  13.923  16.323  0.00  0.00    +0.000 C 
ATOM      2  C   UNL     1      -6.026  15.322  15.984  0.00  0.00    +0.000 C 
ATOM      3  C   UNL     1      -5.563  16.222  14.909  0.00  0.00    +0.000 C 
ATOM      4  C   UNL     1      -4.552  15.880  13.842  0.00  0.00    +0.000 C 
ATOM      5  C   UNL     1      -6.443  12.957  16.526  0.00  0.00    +0.000 C 
ATOM      6  C   UNL     1      -4.452  13.654  15.150  0.00  0.00    +0.000 C 
ATOM      7  C   UNL     1      -4.062  16.885  12.767  0.00  0.00    +0.000 C 
ATOM      8  C   UNL     1      -7.425  15.124  16.204  0.00  0.00    +0.000 C 
ATOM      9  C   UNL     1      -4.074  14.552  13.997  0.00  0.00    +0.000 C 
ATOM     10  C   UNL     1      -7.677  13.672  16.507  0.00  0.00    +0.000 C 
ATOM     11  C   UNL     1      -6.175  17.482  14.696  0.00  0.00    +0.000 C 
ATOM     12  C   UNL     1      -4.492  14.137  17.641  0.00  0.00    +0.000 C 
ATOM     13  C   UNL     1      -5.043  18.200  12.581  0.00  0.00    +0.000 C 
ATOM     14  C   UNL     1      -4.067  16.247  11.418  0.00  0.00    +0.000 C 
ATOM     15  C   UNL     1      -5.885  18.401  13.547  0.00  0.00    +0.000 C 
ATOM     16  C   UNL     1      -2.652  17.414  13.161  0.00  0.00    +0.000 C 
ATOM     17  C   UNL     1      -5.500  18.445  11.231  0.00  0.00    +0.000 C 
ATOM     18  C   UNL     1      -4.675  16.633  10.059  0.00  0.00    +0.000 C 
ATOM     19  C   UNL     1      -5.451  17.834   9.929  0.00  0.00    +0.000 C 
ENDROOT
BRANCH   5  20
ATOM     20  C   UNL     1      -6.294  11.597  16.934  0.00  0.00    +0.000 C 
ATOM     21  C   UNL     1      -5.769  10.532  16.009  0.00  0.00    +0.000 C 
BRANCH  20  22
ATOM     22  C   UNL     1      -6.867  11.130  18.149  0.00  0.00    +0.000 C 
ATOM     23  C   UNL     1      -7.488  10.625  19.461  0.00  0.00    +0.000 C 
BRANCH  23  24
ATOM     24  C   UNL     1      -8.078  10.168  20.678  0.00  0.00    +0.000 C 
ATOM     25  C   UNL     1      -8.540  11.101  21.684  0.00  0.00    +0.000 C 
ATOM     26  C   UNL     1      -9.134  10.670  23.007  0.00  0.00    +0.000 C 
ATOM     27  C   UNL     1      -8.471  12.603  21.500  0.00  0.00    +0.000 C 
BRANCH  24  28
ATOM     28  C   UNL     1      -8.216   8.773  20.907  0.00  0.00    +0.000 C 
ATOM     29  C   UNL     1      -8.349   7.278  21.221  0.00  0.00    +0.000 C 
ENDBRANCH  24  28
ENDBRANCH  23  24
ENDBRANCH  20  22
ENDBRANCH   5  20
BRANCH  19  30
ATOM     30  O   UNL     1      -5.305  18.658   8.817  0.00  0.00    +0.000 OA
BRANCH  30  32
ATOM     31  O   UNL     1      -3.061  19.260   8.918  0.00  0.00    +0.000 OA
ATOM     32  C   UNL     1      -4.009  18.700   8.389  0.00  0.00    +0.000 C 
BRANCH  32  33
ATOM     33  C   UNL     1      -3.829  17.941   7.176  0.00  0.00    +0.000 C 
ATOM     34  C   UNL     1      -3.678  17.292   6.176  0.00  0.00    +0.000 C 
BRANCH  34  35
ATOM     35  C   UNL     1      -3.497  16.506   5.000  0.00  0.00    +0.000 A 
ATOM     36  C   UNL     1      -2.485  15.549   4.957  0.00  0.00    +0.000 A 
ATOM     37  C   UNL     1      -4.325  16.700   3.897  0.00  0.00    +0.000 A 
ATOM     38  C   UNL     1      -2.289  14.772   3.812  0.00  0.00    +0.000 A 
ATOM     39  C   UNL     1      -4.140  15.933   2.749  0.00  0.00    +0.000 A 
ATOM     40  C   UNL     1      -3.126  14.977   2.712  0.00  0.00    +0.000 A 
BRANCH  38  41
ATOM     41  O   UNL     1      -1.316  13.810   3.686  0.00  0.00    +0.000 OA
ATOM     42  C   UNL     1      -0.003  14.291   3.553  0.00  0.00    +0.000 C 
ENDBRANCH  38  41
BRANCH  40  43
ATOM     43  O   UNL     1      -2.948  14.228   1.581  0.00  0.00    +0.000 OA
ATOM     44  H   UNL     1      -2.015  14.297   1.304  0.00  0.00    +0.000 HD
ENDBRANCH  40  43
ENDBRANCH  34  35
ENDBRANCH  32  33
ENDBRANCH  30  32
ENDBRANCH  19  30
TORSDOF 10
ENDMDL
MODEL 8
REMARK VINA RESULT:      -6.6     13.674     18.079
REMARK  Name = 91746246_sitosterol.pdbqt.pdb
REMARK  10 active torsions:
REMARK  status: ('A' for Active; 'I' for Inactive)
REMARK    1  A    between atoms: C_5  and  C_20
REMARK    2  A    between atoms: C_19  and  O_30
REMARK    3  A    between atoms: C_20  and  C_22
REMARK    4  A    between atoms: C_23  and  C_24
REMARK    5  A    between atoms: C_24  and  C_28
REMARK    6  A    between atoms: O_30  and  C_32
REMARK    7  A    between atoms: C_32  and  C_33
REMARK    8  A    between atoms: C_34  and  C_35
REMARK    9  A    between atoms: C_38  and  O_41
REMARK   10  A    between atoms: C_40  and  O_43
REMARK                            x       y       z     vdW  Elec       q    Type
REMARK                         _______ _______ _______ _____ _____    ______ ____
ROOT
ATOM      1  C   UNL     1     -23.371  13.257   3.486  0.00  0.00    +0.000 C 
ATOM      2  C   UNL     1     -22.786  14.743   3.760  0.00  0.00    +0.000 C 
ATOM      3  C   UNL     1     -22.962  15.433   5.054  0.00  0.00    +0.000 C 
ATOM      4  C   UNL     1     -23.448  14.803   6.335  0.00  0.00    +0.000 C 
ATOM      5  C   UNL     1     -22.227  12.567   2.753  0.00  0.00    +0.000 C 
ATOM      6  C   UNL     1     -23.664  12.725   4.816  0.00  0.00    +0.000 C 
ATOM      7  C   UNL     1     -23.665  15.591   7.654  0.00  0.00    +0.000 C 
ATOM      8  C   UNL     1     -21.550  14.851   3.049  0.00  0.00    +0.000 C 
ATOM      9  C   UNL     1     -23.734  13.424   6.151  0.00  0.00    +0.000 C 
ATOM     10  C   UNL     1     -21.200  13.512   2.460  0.00  0.00    +0.000 C 
ATOM     11  C   UNL     1     -22.522  16.768   5.236  0.00  0.00    +0.000 C 
ATOM     12  C   UNL     1     -24.610  13.421   2.565  0.00  0.00    +0.000 C 
ATOM     13  C   UNL     1     -22.905  17.055   7.694  0.00  0.00    +0.000 C 
ATOM     14  C   UNL     1     -23.070  14.852   8.806  0.00  0.00    +0.000 C 
ATOM     15  C   UNL     1     -22.514  17.506   6.541  0.00  0.00    +0.000 C 
ATOM     16  C   UNL     1     -25.187  15.856   7.850  0.00  0.00    +0.000 C 
ATOM     17  C   UNL     1     -22.032  17.269   8.827  0.00  0.00    +0.000 C 
ATOM     18  C   UNL     1     -22.078  15.232   9.918  0.00  0.00    +0.000 C 
ATOM     19  C   UNL     1     -21.508  16.550   9.958  0.00  0.00    +0.000 C 
ENDROOT
BRANCH   5  20
ATOM     20  C   UNL     1     -22.298  11.246   2.217  0.00  0.00    +0.000 C 
ATOM     21  C   UNL     1     -23.465  10.332   2.480  0.00  0.00    +0.000 C 
BRANCH  20  22
ATOM     22  C   UNL     1     -21.160  10.637   1.617  0.00  0.00    +0.000 C 
ATOM     23  C   UNL     1     -19.934   9.978   0.968  0.00  0.00    +0.000 C 
BRANCH  23  24
ATOM     24  C   UNL     1     -18.801   9.350   0.368  0.00  0.00    +0.000 C 
ATOM     25  C   UNL     1     -18.887   8.742  -0.943  0.00  0.00    +0.000 C 
ATOM     26  C   UNL     1     -17.731   8.028  -1.607  0.00  0.00    +0.000 C 
ATOM     27  C   UNL     1     -20.153   8.770  -1.776  0.00  0.00    +0.000 C 
BRANCH  24  28
ATOM     28  C   UNL     1     -17.566   9.319   1.069  0.00  0.00    +0.000 C 
ATOM     29  C   UNL     1     -16.203   9.316   1.771  0.00  0.00    +0.000 C 
ENDBRANCH  24  28
ENDBRANCH  23  24
ENDBRANCH  20  22
ENDBRANCH   5  20
BRANCH  19  30
ATOM     30  O   UNL     1     -21.367  17.228  11.165  0.00  0.00    +0.000 OA
BRANCH  30  32
ATOM     31  O   UNL     1     -21.555  19.538  10.977  0.00  0.00    +0.000 OA
ATOM     32  C   UNL     1     -22.025  18.423  11.150  0.00  0.00    +0.000 C 
BRANCH  32  33
ATOM     33  C   UNL     1     -23.444  18.249  11.340  0.00  0.00    +0.000 C 
ATOM     34  C   UNL     1     -24.629  18.121  11.496  0.00  0.00    +0.000 C 
BRANCH  34  35
ATOM     35  C   UNL     1     -26.037  17.990  11.679  0.00  0.00    +0.000 A 
ATOM     36  C   UNL     1     -26.797  17.311  10.728  0.00  0.00    +0.000 A 
ATOM     37  C   UNL     1     -26.650  18.543  12.800  0.00  0.00    +0.000 A 
ATOM     38  C   UNL     1     -28.179  17.176  10.887  0.00  0.00    +0.000 A 
ATOM     39  C   UNL     1     -28.027  18.416  12.971  0.00  0.00    +0.000 A 
ATOM     40  C   UNL     1     -28.782  17.737  12.016  0.00  0.00    +0.000 A 
BRANCH  38  41
ATOM     41  O   UNL     1     -29.001  16.526   9.998  0.00  0.00    +0.000 OA
ATOM     42  C   UNL     1     -28.878  16.925   8.657  0.00  0.00    +0.000 C 
ENDBRANCH  38  41
BRANCH  40  43
ATOM     43  O   UNL     1     -30.134  17.618  12.188  0.00  0.00    +0.000 OA
ATOM     44  H   UNL     1     -30.334  16.706  12.471  0.00  0.00    +0.000 HD
ENDBRANCH  40  43
ENDBRANCH  34  35
ENDBRANCH  32  33
ENDBRANCH  30  32
ENDBRANCH  19  30
TORSDOF 10
ENDMDL
MODEL 9
REMARK VINA RESULT:      -6.6     17.719     23.041
REMARK  Name = 91746246_sitosterol.pdbqt.pdb
REMARK  10 active torsions:
REMARK  status: ('A' for Active; 'I' for Inactive)
REMARK    1  A    between atoms: C_5  and  C_20
REMARK    2  A    between atoms: C_19  and  O_30
REMARK    3  A    between atoms: C_20  and  C_22
REMARK    4  A    between atoms: C_23  and  C_24
REMARK    5  A    between atoms: C_24  and  C_28
REMARK    6  A    between atoms: O_30  and  C_32
REMARK    7  A    between atoms: C_32  and  C_33
REMARK    8  A    between atoms: C_34  and  C_35
REMARK    9  A    between atoms: C_38  and  O_41
REMARK   10  A    between atoms: C_40  and  O_43
REMARK                            x       y       z     vdW  Elec       q    Type
REMARK                         _______ _______ _______ _____ _____    ______ ____
ROOT
ATOM      1  C   UNL     1     -10.663   7.128  21.755  0.00  0.00    +0.000 C 
ATOM      2  C   UNL     1     -11.201   6.717  20.283  0.00  0.00    +0.000 C 
ATOM      3  C   UNL     1     -10.343   6.781  19.083  0.00  0.00    +0.000 C 
ATOM      4  C   UNL     1      -8.846   6.970  19.073  0.00  0.00    +0.000 C 
ATOM      5  C   UNL     1     -11.226   6.028  22.647  0.00  0.00    +0.000 C 
ATOM      6  C   UNL     1      -9.206   7.133  21.627  0.00  0.00    +0.000 C 
ATOM      7  C   UNL     1      -8.002   7.085  17.778  0.00  0.00    +0.000 C 
ATOM      8  C   UNL     1     -12.120   5.634  20.453  0.00  0.00    +0.000 C 
ATOM      9  C   UNL     1      -8.337   7.088  20.394  0.00  0.00    +0.000 C 
ATOM     10  C   UNL     1     -12.110   5.200  21.894  0.00  0.00    +0.000 C 
ATOM     11  C   UNL     1     -10.866   6.507  17.795  0.00  0.00    +0.000 C 
ATOM     12  C   UNL     1     -11.288   8.506  22.099  0.00  0.00    +0.000 C 
ATOM     13  C   UNL     1      -8.771   6.536  16.424  0.00  0.00    +0.000 C 
ATOM     14  C   UNL     1      -6.788   6.220  17.869  0.00  0.00    +0.000 C 
ATOM     15  C   UNL     1     -10.056   6.397  16.538  0.00  0.00    +0.000 C 
ATOM     16  C   UNL     1      -7.640   8.579  17.529  0.00  0.00    +0.000 C 
ATOM     17  C   UNL     1      -8.053   5.536  15.667  0.00  0.00    +0.000 C 
ATOM     18  C   UNL     1      -6.187   5.129  16.968  0.00  0.00    +0.000 C 
ATOM     19  C   UNL     1      -6.852   4.747  15.754  0.00  0.00    +0.000 C 
ENDROOT
BRANCH   5  20
ATOM     20  C   UNL     1     -11.093   5.999  24.068  0.00  0.00    +0.000 C 
ATOM     21  C   UNL     1      -9.771   5.763  24.748  0.00  0.00    +0.000 C 
BRANCH  20  22
ATOM     22  C   UNL     1     -12.239   5.941  24.910  0.00  0.00    +0.000 C 
ATOM     23  C   UNL     1     -13.475   5.877  25.820  0.00  0.00    +0.000 C 
BRANCH  23  24
ATOM     24  C   UNL     1     -14.624   5.799  26.664  0.00  0.00    +0.000 C 
ATOM     25  C   UNL     1     -15.862   5.216  26.192  0.00  0.00    +0.000 C 
ATOM     26  C   UNL     1     -17.120   5.146  27.029  0.00  0.00    +0.000 C 
ATOM     27  C   UNL     1     -16.009   4.616  24.809  0.00  0.00    +0.000 C 
BRANCH  24  28
ATOM     28  C   UNL     1     -14.553   6.304  27.990  0.00  0.00    +0.000 C 
ATOM     29  C   UNL     1     -14.465   6.913  29.394  0.00  0.00    +0.000 C 
ENDBRANCH  24  28
ENDBRANCH  23  24
ENDBRANCH  20  22
ENDBRANCH   5  20
BRANCH  19  30
ATOM     30  O   UNL     1      -6.128   4.514  14.588  0.00  0.00    +0.000 OA
BRANCH  30  32
ATOM     31  O   UNL     1      -3.887   4.066  15.019  0.00  0.00    +0.000 OA
ATOM     32  C   UNL     1      -5.042   3.720  14.821  0.00  0.00    +0.000 C 
BRANCH  32  33
ATOM     33  C   UNL     1      -5.404   2.324  14.849  0.00  0.00    +0.000 C 
ATOM     34  C   UNL     1      -5.719   1.165  14.885  0.00  0.00    +0.000 C 
BRANCH  34  35
ATOM     35  C   UNL     1      -6.105  -0.206  14.942  0.00  0.00    +0.000 A 
ATOM     36  C   UNL     1      -6.293  -0.921  13.760  0.00  0.00    +0.000 A 
ATOM     37  C   UNL     1      -6.301  -0.826  16.173  0.00  0.00    +0.000 A 
ATOM     38  C   UNL     1      -6.677  -2.265  13.794  0.00  0.00    +0.000 A 
ATOM     39  C   UNL     1      -6.685  -2.165  16.222  0.00  0.00    +0.000 A 
ATOM     40  C   UNL     1      -6.871  -2.874  15.036  0.00  0.00    +0.000 A 
BRANCH  38  41
ATOM     41  O   UNL     1      -6.885  -3.039  12.679  0.00  0.00    +0.000 OA
ATOM     42  C   UNL     1      -7.718  -2.477  11.698  0.00  0.00    +0.000 C 
ENDBRANCH  38  41
BRANCH  40  43
ATOM     43  O   UNL     1      -7.250  -4.188  15.091  0.00  0.00    +0.000 OA
ATOM     44  H   UNL     1      -6.730  -4.690  14.435  0.00  0.00    +0.000 HD
ENDBRANCH  40  43
ENDBRANCH  34  35
ENDBRANCH  32  33
ENDBRANCH  30  32
ENDBRANCH  19  30
TORSDOF 10
ENDMDL
