MODEL 1
REMARK VINA RESULT:      -3.8      0.000      0.000
REMARK  Name = 92041_2Ethoxy5fluorouracil.pdbqt.pdb
REMARK  2 active torsions:
REMARK  status: ('A' for Active; 'I' for Inactive)
REMARK    1  A    between atoms: C_5  and  O_10
REMARK    2  A    between atoms: O_10  and  C_11
REMARK                            x       y       z     vdW  Elec       q    Type
REMARK                         _______ _______ _______ _____ _____    ______ ____
ROOT
ATOM      1  F   UNL     1     -24.719  12.602   9.916  0.00  0.00    +0.000 F 
ATOM      2  O   UNL     1     -22.191  12.294   8.632  0.00  0.00    +0.000 OA
ATOM      3  N   UNL     1     -21.561  14.314   9.530  0.00  0.00    +0.000 N 
ATOM      4  N   UNL     1     -22.907  15.536  11.042  0.00  0.00    +0.000 NA
ATOM      5  C   UNL     1     -21.829  15.430  10.318  0.00  0.00    +0.000 C 
ATOM      6  C   UNL     1     -22.417  13.217   9.403  0.00  0.00    +0.000 C 
ATOM      7  C   UNL     1     -23.630  13.299  10.278  0.00  0.00    +0.000 C 
ATOM      8  C   UNL     1     -23.654  14.434  10.895  0.00  0.00    +0.000 C 
ATOM      9  H   UNL     1     -20.730  14.300   8.958  0.00  0.00    +0.000 HD
ENDROOT
BRANCH   5  10
ATOM     10  O   UNL     1     -20.856  16.367  10.240  0.00  0.00    +0.000 OA
BRANCH  10  11
ATOM     11  C   UNL     1     -20.376  16.810  11.398  0.00  0.00    +0.000 C 
ATOM     12  C   UNL     1     -19.882  17.325  12.753  0.00  0.00    +0.000 C 
ENDBRANCH  10  11
ENDBRANCH   5  10
TORSDOF 2
ENDMDL
MODEL 2
REMARK VINA RESULT:      -3.5      9.271      9.788
REMARK  Name = 92041_2Ethoxy5fluorouracil.pdbqt.pdb
REMARK  2 active torsions:
REMARK  status: ('A' for Active; 'I' for Inactive)
REMARK    1  A    between atoms: C_5  and  O_10
REMARK    2  A    between atoms: O_10  and  C_11
REMARK                            x       y       z     vdW  Elec       q    Type
REMARK                         _______ _______ _______ _____ _____    ______ ____
ROOT
ATOM      1  F   UNL     1     -26.461   6.771  17.974  0.00  0.00    +0.000 F 
ATOM      2  O   UNL     1     -26.385   9.376  16.817  0.00  0.00    +0.000 OA
ATOM      3  N   UNL     1     -24.111   9.388  17.148  0.00  0.00    +0.000 N 
ATOM      4  N   UNL     1     -22.912   7.522  17.970  0.00  0.00    +0.000 NA
ATOM      5  C   UNL     1     -22.943   8.765  17.579  0.00  0.00    +0.000 C 
ATOM      6  C   UNL     1     -25.364   8.772  17.117  0.00  0.00    +0.000 C 
ATOM      7  C   UNL     1     -25.332   7.326  17.505  0.00  0.00    +0.000 C 
ATOM      8  C   UNL     1     -24.140   6.995  17.876  0.00  0.00    +0.000 C 
ATOM      9  H   UNL     1     -24.086  10.364  16.893  0.00  0.00    +0.000 HD
ENDROOT
BRANCH   5  10
ATOM     10  O   UNL     1     -21.870   9.590  17.544  0.00  0.00    +0.000 OA
BRANCH  10  11
ATOM     11  C   UNL     1     -20.809   9.142  16.880  0.00  0.00    +0.000 C 
ATOM     12  C   UNL     1     -19.551   8.644  16.162  0.00  0.00    +0.000 C 
ENDBRANCH  10  11
ENDBRANCH   5  10
TORSDOF 2
ENDMDL
MODEL 3
REMARK VINA RESULT:      -3.4      3.272      4.926
REMARK  Name = 92041_2Ethoxy5fluorouracil.pdbqt.pdb
REMARK  2 active torsions:
REMARK  status: ('A' for Active; 'I' for Inactive)
REMARK    1  A    between atoms: C_5  and  O_10
REMARK    2  A    between atoms: O_10  and  C_11
REMARK                            x       y       z     vdW  Elec       q    Type
REMARK                         _______ _______ _______ _____ _____    ______ ____
ROOT
ATOM      1  F   UNL     1     -22.938  16.834   6.870  0.00  0.00    +0.000 F 
ATOM      2  O   UNL     1     -24.157  14.477   5.824  0.00  0.00    +0.000 OA
ATOM      3  N   UNL     1     -23.079  13.272   7.457  0.00  0.00    +0.000 N 
ATOM      4  N   UNL     1     -21.790  14.273   9.168  0.00  0.00    +0.000 NA
ATOM      5  C   UNL     1     -22.242  13.209   8.568  0.00  0.00    +0.000 C 
ATOM      6  C   UNL     1     -23.494  14.461   6.853  0.00  0.00    +0.000 C 
ATOM      7  C   UNL     1     -23.032  15.691   7.570  0.00  0.00    +0.000 C 
ATOM      8  C   UNL     1     -22.260  15.366   8.553  0.00  0.00    +0.000 C 
ATOM      9  H   UNL     1     -23.369  12.416   7.007  0.00  0.00    +0.000 HD
ENDROOT
BRANCH   5  10
ATOM     10  O   UNL     1     -21.963  11.937   8.937  0.00  0.00    +0.000 OA
BRANCH  10  11
ATOM     11  C   UNL     1     -22.491  10.979   8.180  0.00  0.00    +0.000 C 
ATOM     12  C   UNL     1     -23.050   9.839   7.325  0.00  0.00    +0.000 C 
ENDBRANCH  10  11
ENDBRANCH   5  10
TORSDOF 2
ENDMDL
MODEL 4
REMARK VINA RESULT:      -3.3     15.903     16.792
REMARK  Name = 92041_2Ethoxy5fluorouracil.pdbqt.pdb
REMARK  2 active torsions:
REMARK  status: ('A' for Active; 'I' for Inactive)
REMARK    1  A    between atoms: C_5  and  O_10
REMARK    2  A    between atoms: O_10  and  C_11
REMARK                            x       y       z     vdW  Elec       q    Type
REMARK                         _______ _______ _______ _____ _____    ______ ____
ROOT
ATOM      1  F   UNL     1     -27.528  15.334  24.578  0.00  0.00    +0.000 F 
ATOM      2  O   UNL     1     -26.017  16.802  26.500  0.00  0.00    +0.000 OA
ATOM      3  N   UNL     1     -24.778  14.904  26.881  0.00  0.00    +0.000 N 
ATOM      4  N   UNL     1     -25.043  12.912  25.635  0.00  0.00    +0.000 NA
ATOM      5  C   UNL     1     -24.482  13.571  26.608  0.00  0.00    +0.000 C 
ATOM      6  C   UNL     1     -25.717  15.660  26.176  0.00  0.00    +0.000 C 
ATOM      7  C   UNL     1     -26.323  14.934  25.016  0.00  0.00    +0.000 C 
ATOM      8  C   UNL     1     -25.898  13.714  24.987  0.00  0.00    +0.000 C 
ATOM      9  H   UNL     1     -24.343  15.356  27.672  0.00  0.00    +0.000 HD
ENDROOT
BRANCH   5  10
ATOM     10  O   UNL     1     -23.563  13.059  27.459  0.00  0.00    +0.000 OA
BRANCH  10  11
ATOM     11  C   UNL     1     -24.026  12.233  28.393  0.00  0.00    +0.000 C 
ATOM     12  C   UNL     1     -24.500  11.272  29.487  0.00  0.00    +0.000 C 
ENDBRANCH  10  11
ENDBRANCH   5  10
TORSDOF 2
ENDMDL
MODEL 5
REMARK VINA RESULT:      -3.3      8.844      9.151
REMARK  Name = 92041_2Ethoxy5fluorouracil.pdbqt.pdb
REMARK  2 active torsions:
REMARK  status: ('A' for Active; 'I' for Inactive)
REMARK    1  A    between atoms: C_5  and  O_10
REMARK    2  A    between atoms: O_10  and  C_11
REMARK                            x       y       z     vdW  Elec       q    Type
REMARK                         _______ _______ _______ _____ _____    ______ ____
ROOT
ATOM      1  F   UNL     1     -27.194   6.130  14.456  0.00  0.00    +0.000 F 
ATOM      2  O   UNL     1     -24.459   5.985  13.663  0.00  0.00    +0.000 OA
ATOM      3  N   UNL     1     -24.004   7.679  15.149  0.00  0.00    +0.000 N 
ATOM      4  N   UNL     1     -25.620   8.576  16.623  0.00  0.00    +0.000 NA
ATOM      5  C   UNL     1     -24.417   8.582  16.124  0.00  0.00    +0.000 C 
ATOM      6  C   UNL     1     -24.829   6.704  14.582  0.00  0.00    +0.000 C 
ATOM      7  C   UNL     1     -26.195   6.646  15.191  0.00  0.00    +0.000 C 
ATOM      8  C   UNL     1     -26.333   7.594  16.057  0.00  0.00    +0.000 C 
ATOM      9  H   UNL     1     -23.072   7.752  14.768  0.00  0.00    +0.000 HD
ENDROOT
BRANCH   5  10
ATOM     10  O   UNL     1     -23.437   9.446  16.480  0.00  0.00    +0.000 OA
BRANCH  10  11
ATOM     11  C   UNL     1     -22.301   8.900  16.902  0.00  0.00    +0.000 C 
ATOM     12  C   UNL     1     -21.025   8.235  17.427  0.00  0.00    +0.000 C 
ENDBRANCH  10  11
ENDBRANCH   5  10
TORSDOF 2
ENDMDL
MODEL 6
REMARK VINA RESULT:      -3.2     11.219     11.803
REMARK  Name = 92041_2Ethoxy5fluorouracil.pdbqt.pdb
REMARK  2 active torsions:
REMARK  status: ('A' for Active; 'I' for Inactive)
REMARK    1  A    between atoms: C_5  and  O_10
REMARK    2  A    between atoms: O_10  and  C_11
REMARK                            x       y       z     vdW  Elec       q    Type
REMARK                         _______ _______ _______ _____ _____    ______ ____
ROOT
ATOM      1  F   UNL     1     -24.055   2.538  16.454  0.00  0.00    +0.000 F 
ATOM      2  O   UNL     1     -23.172   4.518  14.601  0.00  0.00    +0.000 OA
ATOM      3  N   UNL     1     -21.609   5.180  16.150  0.00  0.00    +0.000 N 
ATOM      4  N   UNL     1     -21.261   4.056  18.201  0.00  0.00    +0.000 NA
ATOM      5  C   UNL     1     -20.994   5.041  17.391  0.00  0.00    +0.000 C 
ATOM      6  C   UNL     1     -22.589   4.315  15.657  0.00  0.00    +0.000 C 
ATOM      7  C   UNL     1     -22.860   3.145  16.551  0.00  0.00    +0.000 C 
ATOM      8  C   UNL     1     -22.178   3.255  17.643  0.00  0.00    +0.000 C 
ATOM      9  H   UNL     1     -21.394   5.983  15.578  0.00  0.00    +0.000 HD
ENDROOT
BRANCH   5  10
ATOM     10  O   UNL     1     -20.106   6.031  17.645  0.00  0.00    +0.000 OA
BRANCH  10  11
ATOM     11  C   UNL     1     -20.544   7.272  17.456  0.00  0.00    +0.000 C 
ATOM     12  C   UNL     1     -20.988   8.720  17.232  0.00  0.00    +0.000 C 
ENDBRANCH  10  11
ENDBRANCH   5  10
TORSDOF 2
ENDMDL
MODEL 7
REMARK VINA RESULT:      -3.2      9.713     10.159
REMARK  Name = 92041_2Ethoxy5fluorouracil.pdbqt.pdb
REMARK  2 active torsions:
REMARK  status: ('A' for Active; 'I' for Inactive)
REMARK    1  A    between atoms: C_5  and  O_10
REMARK    2  A    between atoms: O_10  and  C_11
REMARK                            x       y       z     vdW  Elec       q    Type
REMARK                         _______ _______ _______ _____ _____    ______ ____
ROOT
ATOM      1  F   UNL     1     -25.348   5.358  17.281  0.00  0.00    +0.000 F 
ATOM      2  O   UNL     1     -22.806   5.244  18.568  0.00  0.00    +0.000 OA
ATOM      3  N   UNL     1     -22.466   7.431  17.949  0.00  0.00    +0.000 N 
ATOM      4  N   UNL     1     -24.112   8.744  16.872  0.00  0.00    +0.000 NA
ATOM      5  C   UNL     1     -22.902   8.602  17.335  0.00  0.00    +0.000 C 
ATOM      6  C   UNL     1     -23.251   6.286  18.104  0.00  0.00    +0.000 C 
ATOM      7  C   UNL     1     -24.661   6.457  17.633  0.00  0.00    +0.000 C 
ATOM      8  C   UNL     1     -24.808   7.621  17.092  0.00  0.00    +0.000 C 
ATOM      9  H   UNL     1     -21.507   7.360  18.255  0.00  0.00    +0.000 HD
ENDROOT
BRANCH   5  10
ATOM     10  O   UNL     1     -21.938   9.550  17.280  0.00  0.00    +0.000 OA
BRANCH  10  11
ATOM     11  C   UNL     1     -20.774   9.172  16.762  0.00  0.00    +0.000 C 
ATOM     12  C   UNL     1     -19.445   8.770  16.115  0.00  0.00    +0.000 C 
ENDBRANCH  10  11
ENDBRANCH   5  10
TORSDOF 2
ENDMDL
MODEL 8
REMARK VINA RESULT:      -2.9     19.426     20.319
REMARK  Name = 92041_2Ethoxy5fluorouracil.pdbqt.pdb
REMARK  2 active torsions:
REMARK  status: ('A' for Active; 'I' for Inactive)
REMARK    1  A    between atoms: C_5  and  O_10
REMARK    2  A    between atoms: O_10  and  C_11
REMARK                            x       y       z     vdW  Elec       q    Type
REMARK                         _______ _______ _______ _____ _____    ______ ____
ROOT
ATOM      1  F   UNL     1      -1.108  18.174   7.378  0.00  0.00    +0.000 F 
ATOM      2  O   UNL     1      -3.844  17.592   7.933  0.00  0.00    +0.000 OA
ATOM      3  N   UNL     1      -3.881  16.276   6.049  0.00  0.00    +0.000 N 
ATOM      4  N   UNL     1      -1.960  15.831   4.743  0.00  0.00    +0.000 NA
ATOM      5  C   UNL     1      -3.242  15.715   4.946  0.00  0.00    +0.000 C 
ATOM      6  C   UNL     1      -3.237  17.040   7.025  0.00  0.00    +0.000 C 
ATOM      7  C   UNL     1      -1.754  17.128   6.837  0.00  0.00    +0.000 C 
ATOM      8  C   UNL     1      -1.413  16.542   5.737  0.00  0.00    +0.000 C 
ATOM      9  H   UNL     1      -4.882  16.190   6.138  0.00  0.00    +0.000 HD
ENDROOT
BRANCH   5  10
ATOM     10  O   UNL     1      -4.096  15.052   4.133  0.00  0.00    +0.000 OA
BRANCH  10  11
ATOM     11  C   UNL     1      -4.551  15.731   3.084  0.00  0.00    +0.000 C 
ATOM     12  C   UNL     1      -5.031  16.486   1.841  0.00  0.00    +0.000 C 
ENDBRANCH  10  11
ENDBRANCH   5  10
TORSDOF 2
ENDMDL
MODEL 9
REMARK VINA RESULT:      -2.8      9.828     10.444
REMARK  Name = 92041_2Ethoxy5fluorouracil.pdbqt.pdb
REMARK  2 active torsions:
REMARK  status: ('A' for Active; 'I' for Inactive)
REMARK    1  A    between atoms: C_5  and  O_10
REMARK    2  A    between atoms: O_10  and  C_11
REMARK                            x       y       z     vdW  Elec       q    Type
REMARK                         _______ _______ _______ _____ _____    ______ ____
ROOT
ATOM      1  F   UNL     1     -26.660   8.686  17.830  0.00  0.00    +0.000 F 
ATOM      2  O   UNL     1     -25.410   6.124  17.916  0.00  0.00    +0.000 OA
ATOM      3  N   UNL     1     -23.395   7.165  17.546  0.00  0.00    +0.000 N 
ATOM      4  N   UNL     1     -23.148   9.515  17.457  0.00  0.00    +0.000 NA
ATOM      5  C   UNL     1     -22.641   8.319  17.351  0.00  0.00    +0.000 C 
ATOM      6  C   UNL     1     -24.760   7.159  17.840  0.00  0.00    +0.000 C 
ATOM      7  C   UNL     1     -25.340   8.526  18.026  0.00  0.00    +0.000 C 
ATOM      8  C   UNL     1     -24.445   9.424  17.775  0.00  0.00    +0.000 C 
ATOM      9  H   UNL     1     -22.962   6.263  17.413  0.00  0.00    +0.000 HD
ENDROOT
BRANCH   5  10
ATOM     10  O   UNL     1     -21.350   8.052  17.045  0.00  0.00    +0.000 OA
BRANCH  10  11
ATOM     11  C   UNL     1     -20.776   7.073  17.736  0.00  0.00    +0.000 C 
ATOM     12  C   UNL     1     -20.152   5.904  18.506  0.00  0.00    +0.000 C 
ENDBRANCH  10  11
ENDBRANCH   5  10
TORSDOF 2
ENDMDL
