MODEL 1
REMARK VINA RESULT:      -4.4      0.000      0.000
REMARK  Name = 95716_6Bromoisatin.pdbqt.pdb
REMARK  0 active torsions:
REMARK  status: ('A' for Active; 'I' for Inactive)
REMARK                            x       y       z     vdW  Elec       q    Type
REMARK                         _______ _______ _______ _____ _____    ______ ____
ROOT
ATOM      1 BR   UNL     1     -15.112   5.423  -4.314  0.00  0.00    +0.000 Br
ATOM      2  O   UNL     1     -15.152  10.838   0.093  0.00  0.00    +0.000 OA
ATOM      3  O   UNL     1     -14.653  12.676  -2.241  0.00  0.00    +0.000 OA
ATOM      4  N   UNL     1     -14.707  10.643  -3.381  0.00  0.00    +0.000 N 
ATOM      5  C   UNL     1     -14.891   9.313  -3.015  0.00  0.00    +0.000 A 
ATOM      6  C   UNL     1     -15.088   9.185  -1.642  0.00  0.00    +0.000 A 
ATOM      7  C   UNL     1     -15.028  10.529  -1.069  0.00  0.00    +0.000 C 
ATOM      8  C   UNL     1     -14.891   8.215  -3.847  0.00  0.00    +0.000 A 
ATOM      9  C   UNL     1     -15.294   7.968  -1.027  0.00  0.00    +0.000 A 
ATOM     10  C   UNL     1     -14.770  11.474  -2.278  0.00  0.00    +0.000 C 
ATOM     11  C   UNL     1     -15.098   6.973  -3.242  0.00  0.00    +0.000 A 
ATOM     12  C   UNL     1     -15.297   6.845  -1.856  0.00  0.00    +0.000 A 
ATOM     13  H   UNL     1     -14.546  10.987  -4.318  0.00  0.00    +0.000 HD
ENDROOT
TORSDOF 0
ENDMDL
MODEL 2
REMARK VINA RESULT:      -4.0     15.391     15.744
REMARK  Name = 95716_6Bromoisatin.pdbqt.pdb
REMARK  0 active torsions:
REMARK  status: ('A' for Active; 'I' for Inactive)
REMARK                            x       y       z     vdW  Elec       q    Type
REMARK                         _______ _______ _______ _____ _____    ______ ____
ROOT
ATOM      1 BR   UNL     1      -1.470  -0.224   2.775  0.00  0.00    +0.000 Br
ATOM      2  O   UNL     1      -0.125   6.409   4.492  0.00  0.00    +0.000 OA
ATOM      3  O   UNL     1      -2.737   7.214   3.226  0.00  0.00    +0.000 OA
ATOM      4  N   UNL     1      -2.830   4.917   2.830  0.00  0.00    +0.000 N 
ATOM      5  C   UNL     1      -1.999   3.836   3.107  0.00  0.00    +0.000 A 
ATOM      6  C   UNL     1      -0.847   4.237   3.780  0.00  0.00    +0.000 A 
ATOM      7  C   UNL     1      -0.931   5.686   3.955  0.00  0.00    +0.000 C 
ATOM      8  C   UNL     1      -2.223   2.514   2.789  0.00  0.00    +0.000 A 
ATOM      9  C   UNL     1       0.137   3.353   4.169  0.00  0.00    +0.000 A 
ATOM     10  C   UNL     1      -2.281   6.096   3.299  0.00  0.00    +0.000 C 
ATOM     11  C   UNL     1      -1.236   1.604   3.175  0.00  0.00    +0.000 A 
ATOM     12  C   UNL     1      -0.074   2.009   3.854  0.00  0.00    +0.000 A 
ATOM     13  H   UNL     1      -3.719   4.879   2.352  0.00  0.00    +0.000 HD
ENDROOT
TORSDOF 0
ENDMDL
MODEL 3
REMARK VINA RESULT:      -3.9     14.957     16.150
REMARK  Name = 95716_6Bromoisatin.pdbqt.pdb
REMARK  0 active torsions:
REMARK  status: ('A' for Active; 'I' for Inactive)
REMARK                            x       y       z     vdW  Elec       q    Type
REMARK                         _______ _______ _______ _____ _____    ______ ____
ROOT
ATOM      1 BR   UNL     1     -21.312  18.634  12.077  0.00  0.00    +0.000 Br
ATOM      2  O   UNL     1     -21.826  12.764   8.332  0.00  0.00    +0.000 OA
ATOM      3  O   UNL     1     -24.826  12.999   8.468  0.00  0.00    +0.000 OA
ATOM      4  N   UNL     1     -24.254  14.904   9.686  0.00  0.00    +0.000 N 
ATOM      5  C   UNL     1     -23.058  15.503  10.073  0.00  0.00    +0.000 A 
ATOM      6  C   UNL     1     -21.956  14.783   9.618  0.00  0.00    +0.000 A 
ATOM      7  C   UNL     1     -22.468  13.629   8.880  0.00  0.00    +0.000 C 
ATOM      8  C   UNL     1     -22.909  16.658  10.810  0.00  0.00    +0.000 A 
ATOM      9  C   UNL     1     -20.656  15.168   9.870  0.00  0.00    +0.000 A 
ATOM     10  C   UNL     1     -24.017  13.755   8.954  0.00  0.00    +0.000 C 
ATOM     11  C   UNL     1     -21.599  17.063  11.074  0.00  0.00    +0.000 A 
ATOM     12  C   UNL     1     -20.487  16.336  10.615  0.00  0.00    +0.000 A 
ATOM     13  H   UNL     1     -25.184  15.238   9.895  0.00  0.00    +0.000 HD
ENDROOT
TORSDOF 0
ENDMDL
MODEL 4
REMARK VINA RESULT:      -3.8     15.569     16.823
REMARK  Name = 95716_6Bromoisatin.pdbqt.pdb
REMARK  0 active torsions:
REMARK  status: ('A' for Active; 'I' for Inactive)
REMARK                            x       y       z     vdW  Elec       q    Type
REMARK                         _______ _______ _______ _____ _____    ______ ____
ROOT
ATOM      1 BR   UNL     1     -24.347  19.649   9.395  0.00  0.00    +0.000 Br
ATOM      2  O   UNL     1     -24.587  12.823  10.843  0.00  0.00    +0.000 OA
ATOM      3  O   UNL     1     -21.981  12.471   9.375  0.00  0.00    +0.000 OA
ATOM      4  N   UNL     1     -22.252  14.770   9.094  0.00  0.00    +0.000 N 
ATOM      5  C   UNL     1     -23.210  15.703   9.480  0.00  0.00    +0.000 A 
ATOM      6  C   UNL     1     -24.241  15.107  10.202  0.00  0.00    +0.000 A 
ATOM      7  C   UNL     1     -23.935  13.680  10.295  0.00  0.00    +0.000 C 
ATOM      8  C   UNL     1     -23.204  17.056   9.217  0.00  0.00    +0.000 A 
ATOM      9  C   UNL     1     -25.314  15.817  10.698  0.00  0.00    +0.000 A 
ATOM     10  C   UNL     1     -22.588  13.504   9.535  0.00  0.00    +0.000 C 
ATOM     11  C   UNL     1     -24.283  17.792   9.712  0.00  0.00    +0.000 A 
ATOM     12  C   UNL     1     -25.323  17.189  10.441  0.00  0.00    +0.000 A 
ATOM     13  H   UNL     1     -21.413  14.960   8.563  0.00  0.00    +0.000 HD
ENDROOT
TORSDOF 0
ENDMDL
MODEL 5
REMARK VINA RESULT:      -3.6     20.408     21.242
REMARK  Name = 95716_6Bromoisatin.pdbqt.pdb
REMARK  0 active torsions:
REMARK  status: ('A' for Active; 'I' for Inactive)
REMARK                            x       y       z     vdW  Elec       q    Type
REMARK                         _______ _______ _______ _____ _____    ______ ____
ROOT
ATOM      1 BR   UNL     1      -6.084   3.502  15.229  0.00  0.00    +0.000 Br
ATOM      2  O   UNL     1     -11.494   6.693  18.276  0.00  0.00    +0.000 OA
ATOM      3  O   UNL     1     -12.156   4.116  19.687  0.00  0.00    +0.000 OA
ATOM      4  N   UNL     1     -10.282   3.409  18.492  0.00  0.00    +0.000 N 
ATOM      5  C   UNL     1      -9.398   4.010  17.601  0.00  0.00    +0.000 A 
ATOM      6  C   UNL     1      -9.723   5.347  17.384  0.00  0.00    +0.000 A 
ATOM      7  C   UNL     1     -10.906   5.641  18.191  0.00  0.00    +0.000 C 
ATOM      8  C   UNL     1      -8.319   3.422  16.977  0.00  0.00    +0.000 A 
ATOM      9  C   UNL     1      -9.000   6.165  16.541  0.00  0.00    +0.000 A 
ATOM     10  C   UNL     1     -11.243   4.307  18.917  0.00  0.00    +0.000 C 
ATOM     11  C   UNL     1      -7.575   4.235  16.120  0.00  0.00    +0.000 A 
ATOM     12  C   UNL     1      -7.904   5.584  15.901  0.00  0.00    +0.000 A 
ATOM     13  H   UNL     1     -10.253   2.449  18.805  0.00  0.00    +0.000 HD
ENDROOT
TORSDOF 0
ENDMDL
MODEL 6
REMARK VINA RESULT:      -3.5      1.928      2.555
REMARK  Name = 95716_6Bromoisatin.pdbqt.pdb
REMARK  0 active torsions:
REMARK  status: ('A' for Active; 'I' for Inactive)
REMARK                            x       y       z     vdW  Elec       q    Type
REMARK                         _______ _______ _______ _____ _____    ______ ____
ROOT
ATOM      1 BR   UNL     1     -16.326   5.122  -4.705  0.00  0.00    +0.000 Br
ATOM      2  O   UNL     1     -16.913   8.278   1.494  0.00  0.00    +0.000 OA
ATOM      3  O   UNL     1     -14.991  10.393   0.544  0.00  0.00    +0.000 OA
ATOM      4  N   UNL     1     -15.055   9.068  -1.374  0.00  0.00    +0.000 N 
ATOM      5  C   UNL     1     -15.714   7.898  -1.741  0.00  0.00    +0.000 A 
ATOM      6  C   UNL     1     -16.518   7.420  -0.709  0.00  0.00    +0.000 A 
ATOM      7  C   UNL     1     -16.376   8.346   0.415  0.00  0.00    +0.000 C 
ATOM      8  C   UNL     1     -15.628   7.241  -2.949  0.00  0.00    +0.000 A 
ATOM      9  C   UNL     1     -17.276   6.274  -0.821  0.00  0.00    +0.000 A 
ATOM     10  C   UNL     1     -15.382   9.436  -0.082  0.00  0.00    +0.000 C 
ATOM     11  C   UNL     1     -16.389   6.077  -3.081  0.00  0.00    +0.000 A 
ATOM     12  C   UNL     1     -17.201   5.596  -2.040  0.00  0.00    +0.000 A 
ATOM     13  H   UNL     1     -14.418   9.600  -1.950  0.00  0.00    +0.000 HD
ENDROOT
TORSDOF 0
ENDMDL
MODEL 7
REMARK VINA RESULT:      -3.5     12.250     13.451
REMARK  Name = 95716_6Bromoisatin.pdbqt.pdb
REMARK  0 active torsions:
REMARK  status: ('A' for Active; 'I' for Inactive)
REMARK                            x       y       z     vdW  Elec       q    Type
REMARK                         _______ _______ _______ _____ _____    ______ ____
ROOT
ATOM      1 BR   UNL     1      -7.124  20.918   0.232  0.00  0.00    +0.000 Br
ATOM      2  O   UNL     1      -5.634  14.137   0.970  0.00  0.00    +0.000 OA
ATOM      3  O   UNL     1      -3.401  14.883   2.849  0.00  0.00    +0.000 OA
ATOM      4  N   UNL     1      -4.192  17.020   2.353  0.00  0.00    +0.000 N 
ATOM      5  C   UNL     1      -5.212  17.532   1.556  0.00  0.00    +0.000 A 
ATOM      6  C   UNL     1      -5.914  16.517   0.910  0.00  0.00    +0.000 A 
ATOM      7  C   UNL     1      -5.309  15.248   1.315  0.00  0.00    +0.000 C 
ATOM      8  C   UNL     1      -5.541  18.859   1.380  0.00  0.00    +0.000 A 
ATOM      9  C   UNL     1      -6.973  16.763   0.062  0.00  0.00    +0.000 A 
ATOM     10  C   UNL     1      -4.156  15.640   2.285  0.00  0.00    +0.000 C 
ATOM     11  C   UNL     1      -6.612  19.127   0.524  0.00  0.00    +0.000 A 
ATOM     12  C   UNL     1      -7.319  18.102  -0.127  0.00  0.00    +0.000 A 
ATOM     13  H   UNL     1      -3.548  17.557   2.917  0.00  0.00    +0.000 HD
ENDROOT
TORSDOF 0
ENDMDL
MODEL 8
REMARK VINA RESULT:      -3.2     15.322     16.522
REMARK  Name = 95716_6Bromoisatin.pdbqt.pdb
REMARK  0 active torsions:
REMARK  status: ('A' for Active; 'I' for Inactive)
REMARK                            x       y       z     vdW  Elec       q    Type
REMARK                         _______ _______ _______ _____ _____    ______ ____
ROOT
ATOM      1 BR   UNL     1      -3.561  20.889   7.644  0.00  0.00    +0.000 Br
ATOM      2  O   UNL     1      -4.701  15.930   2.864  0.00  0.00    +0.000 OA
ATOM      3  O   UNL     1      -3.022  14.037   4.498  0.00  0.00    +0.000 OA
ATOM      4  N   UNL     1      -2.871  15.928   5.856  0.00  0.00    +0.000 N 
ATOM      5  C   UNL     1      -3.373  17.225   5.797  0.00  0.00    +0.000 A 
ATOM      6  C   UNL     1      -4.143  17.423   4.654  0.00  0.00    +0.000 A 
ATOM      7  C   UNL     1      -4.145  16.163   3.910  0.00  0.00    +0.000 C 
ATOM      8  C   UNL     1      -3.175  18.234   6.715  0.00  0.00    +0.000 A 
ATOM      9  C   UNL     1      -4.753  18.625   4.362  0.00  0.00    +0.000 A 
ATOM     10  C   UNL     1      -3.277  15.190   4.759  0.00  0.00    +0.000 C 
ATOM     11  C   UNL     1      -3.785  19.459   6.436  0.00  0.00    +0.000 A 
ATOM     12  C   UNL     1      -4.562  19.657   5.282  0.00  0.00    +0.000 A 
ATOM     13  H   UNL     1      -2.287  15.546   6.587  0.00  0.00    +0.000 HD
ENDROOT
TORSDOF 0
ENDMDL
MODEL 9
REMARK VINA RESULT:      -3.1     10.250     11.514
REMARK  Name = 95716_6Bromoisatin.pdbqt.pdb
REMARK  0 active torsions:
REMARK  status: ('A' for Active; 'I' for Inactive)
REMARK                            x       y       z     vdW  Elec       q    Type
REMARK                         _______ _______ _______ _____ _____    ______ ____
ROOT
ATOM      1 BR   UNL     1     -11.923   2.376  -1.874  0.00  0.00    +0.000 Br
ATOM      2  O   UNL     1      -8.916  -1.102   3.381  0.00  0.00    +0.000 OA
ATOM      3  O   UNL     1     -11.512  -2.561   3.835  0.00  0.00    +0.000 OA
ATOM      4  N   UNL     1     -12.156  -1.218   2.040  0.00  0.00    +0.000 N 
ATOM      5  C   UNL     1     -11.526  -0.258   1.252  0.00  0.00    +0.000 A 
ATOM      6  C   UNL     1     -10.202  -0.068   1.641  0.00  0.00    +0.000 A 
ATOM      7  C   UNL     1      -9.947  -0.969   2.765  0.00  0.00    +0.000 C 
ATOM      8  C   UNL     1     -12.078   0.452   0.208  0.00  0.00    +0.000 A 
ATOM      9  C   UNL     1      -9.361   0.830   1.018  0.00  0.00    +0.000 A 
ATOM     10  C   UNL     1     -11.291  -1.720   2.994  0.00  0.00    +0.000 C 
ATOM     11  C   UNL     1     -11.241   1.366  -0.435  0.00  0.00    +0.000 A 
ATOM     12  C   UNL     1      -9.905   1.557  -0.042  0.00  0.00    +0.000 A 
ATOM     13  H   UNL     1     -13.114  -1.527   1.951  0.00  0.00    +0.000 HD
ENDROOT
TORSDOF 0
ENDMDL
