MODEL 1
REMARK VINA RESULT:      -5.7      0.000      0.000
REMARK  Name = 969516_Curcumin.pdbqt.pdb
REMARK  8 active torsions:
REMARK  status: ('A' for Active; 'I' for Inactive)
REMARK    1  A    between atoms: C_3  and  C_5
REMARK    2  A    between atoms: C_4  and  C_6
REMARK    3  A    between atoms: C_8  and  O_12
REMARK    4  A    between atoms: C_10  and  O_14
REMARK    5  A    between atoms: C_17  and  C_19
REMARK    6  A    between atoms: C_18  and  C_20
REMARK    7  A    between atoms: C_22  and  O_26
REMARK    8  A    between atoms: C_24  and  O_28
REMARK                            x       y       z     vdW  Elec       q    Type
REMARK                         _______ _______ _______ _____ _____    ______ ____
ROOT
ATOM      1  C   UNL     1     -11.473   4.599  18.884  0.00  0.00    +0.000 C 
ATOM      2  O   UNL     1     -11.308   6.699  17.979  0.00  0.00    +0.000 OA
ATOM      3  C   UNL     1     -10.795   5.600  18.128  0.00  0.00    +0.000 C 
ATOM      4  O   UNL     1     -11.810   2.431  19.545  0.00  0.00    +0.000 OA
ATOM      5  C   UNL     1     -12.154   3.600  19.637  0.00  0.00    +0.000 C 
ENDROOT
BRANCH   3   7
ATOM      6  C   UNL     1      -8.437   5.067  17.062  0.00  0.00    +0.000 C 
ATOM      7  C   UNL     1      -9.508   5.309  17.547  0.00  0.00    +0.000 C 
BRANCH   6   8
ATOM      8  C   UNL     1      -7.164   4.779  16.485  0.00  0.00    +0.000 A 
ATOM      9  C   UNL     1      -6.968   3.584  15.794  0.00  0.00    +0.000 A 
ATOM     10  C   UNL     1      -5.728   3.287  15.222  0.00  0.00    +0.000 A 
ATOM     11  C   UNL     1      -6.120   5.691  16.613  0.00  0.00    +0.000 A 
ATOM     12  C   UNL     1      -4.686   4.210  15.357  0.00  0.00    +0.000 A 
ATOM     13  C   UNL     1      -4.880   5.406  16.048  0.00  0.00    +0.000 A 
BRANCH  10  14
ATOM     14  O   UNL     1      -5.461   2.133  14.527  0.00  0.00    +0.000 OA
ATOM     15  C   UNL     1      -5.227   0.989  15.300  0.00  0.00    +0.000 C 
ENDBRANCH  10  14
BRANCH  12  16
ATOM     16  O   UNL     1      -3.439   4.007  14.832  0.00  0.00    +0.000 OA
ATOM     17  H   UNL     1      -2.917   4.826  14.864  0.00  0.00    +0.000 HD
ENDBRANCH  12  16
ENDBRANCH   6   8
ENDBRANCH   3   7
BRANCH   5  19
ATOM     18  C   UNL     1     -14.148   4.290  21.227  0.00  0.00    +0.000 C 
ATOM     19  C   UNL     1     -13.243   3.974  20.504  0.00  0.00    +0.000 C 
BRANCH  18  20
ATOM     20  C   UNL     1     -15.220   4.666  22.089  0.00  0.00    +0.000 A 
ATOM     21  C   UNL     1     -16.490   4.892  21.560  0.00  0.00    +0.000 A 
ATOM     22  C   UNL     1     -17.551   5.260  22.393  0.00  0.00    +0.000 A 
ATOM     23  C   UNL     1     -14.997   4.806  23.457  0.00  0.00    +0.000 A 
ATOM     24  C   UNL     1     -17.313   5.397  23.762  0.00  0.00    +0.000 A 
ATOM     25  C   UNL     1     -16.045   5.173  24.296  0.00  0.00    +0.000 A 
BRANCH  22  26
ATOM     26  O   UNL     1     -18.831   5.502  21.955  0.00  0.00    +0.000 OA
ATOM     27  C   UNL     1     -19.085   5.169  20.615  0.00  0.00    +0.000 C 
ENDBRANCH  22  26
BRANCH  24  28
ATOM     28  O   UNL     1     -18.338   5.757  24.594  0.00  0.00    +0.000 OA
ATOM     29  H   UNL     1     -17.995   5.820  25.505  0.00  0.00    +0.000 HD
ENDBRANCH  24  28
ENDBRANCH  18  20
ENDBRANCH   5  19
TORSDOF 8
ENDMDL
MODEL 2
REMARK VINA RESULT:      -5.6     19.354     22.321
REMARK  Name = 969516_Curcumin.pdbqt.pdb
REMARK  8 active torsions:
REMARK  status: ('A' for Active; 'I' for Inactive)
REMARK    1  A    between atoms: C_3  and  C_5
REMARK    2  A    between atoms: C_4  and  C_6
REMARK    3  A    between atoms: C_8  and  O_12
REMARK    4  A    between atoms: C_10  and  O_14
REMARK    5  A    between atoms: C_17  and  C_19
REMARK    6  A    between atoms: C_18  and  C_20
REMARK    7  A    between atoms: C_22  and  O_26
REMARK    8  A    between atoms: C_24  and  O_28
REMARK                            x       y       z     vdW  Elec       q    Type
REMARK                         _______ _______ _______ _____ _____    ______ ____
ROOT
ATOM      1  C   UNL     1     -14.063   4.983  -2.155  0.00  0.00    +0.000 C 
ATOM      2  O   UNL     1     -12.109   4.283  -3.127  0.00  0.00    +0.000 OA
ATOM      3  C   UNL     1     -12.993   4.055  -2.316  0.00  0.00    +0.000 C 
ATOM      4  O   UNL     1     -16.158   5.565  -1.430  0.00  0.00    +0.000 OA
ATOM      5  C   UNL     1     -15.133   5.911  -2.000  0.00  0.00    +0.000 C 
ENDROOT
BRANCH   3   7
ATOM      6  C   UNL     1     -12.934   1.856  -0.851  0.00  0.00    +0.000 C 
ATOM      7  C   UNL     1     -12.961   2.855  -1.518  0.00  0.00    +0.000 C 
BRANCH   6   8
ATOM      8  C   UNL     1     -12.903   0.670  -0.059  0.00  0.00    +0.000 A 
ATOM      9  C   UNL     1     -11.978   0.550   0.977  0.00  0.00    +0.000 A 
ATOM     10  C   UNL     1     -11.933  -0.605   1.763  0.00  0.00    +0.000 A 
ATOM     11  C   UNL     1     -13.796  -0.366  -0.321  0.00  0.00    +0.000 A 
ATOM     12  C   UNL     1     -12.835  -1.638   1.491  0.00  0.00    +0.000 A 
ATOM     13  C   UNL     1     -13.762  -1.520   0.456  0.00  0.00    +0.000 A 
BRANCH  10  14
ATOM     14  O   UNL     1     -11.052  -0.794   2.799  0.00  0.00    +0.000 OA
ATOM     15  C   UNL     1      -9.696  -0.840   2.452  0.00  0.00    +0.000 C 
ENDBRANCH  10  14
BRANCH  12  16
ATOM     16  O   UNL     1     -12.868  -2.805   2.205  0.00  0.00    +0.000 OA
ATOM     17  H   UNL     1     -12.676  -3.564   1.630  0.00  0.00    +0.000 HD
ENDBRANCH  12  16
ENDBRANCH   6   8
ENDBRANCH   3   7
BRANCH   5  19
ATOM     18  C   UNL     1     -14.892   8.368  -2.940  0.00  0.00    +0.000 C 
ATOM     19  C   UNL     1     -15.000   7.250  -2.513  0.00  0.00    +0.000 C 
BRANCH  18  20
ATOM     20  C   UNL     1     -14.769   9.695  -3.448  0.00  0.00    +0.000 A 
ATOM     21  C   UNL     1     -14.823  10.781  -2.575  0.00  0.00    +0.000 A 
ATOM     22  C   UNL     1     -14.703  12.087  -3.058  0.00  0.00    +0.000 A 
ATOM     23  C   UNL     1     -14.595   9.904  -4.814  0.00  0.00    +0.000 A 
ATOM     24  C   UNL     1     -14.528  12.282  -4.430  0.00  0.00    +0.000 A 
ATOM     25  C   UNL     1     -14.475  11.200  -5.307  0.00  0.00    +0.000 A 
BRANCH  22  26
ATOM     26  O   UNL     1     -14.745  13.211  -2.268  0.00  0.00    +0.000 OA
ATOM     27  C   UNL     1     -13.702  13.336  -1.337  0.00  0.00    +0.000 C 
ENDBRANCH  22  26
BRANCH  24  28
ATOM     28  O   UNL     1     -14.409  13.553  -4.922  0.00  0.00    +0.000 OA
ATOM     29  H   UNL     1     -13.539  13.909  -4.660  0.00  0.00    +0.000 HD
ENDBRANCH  24  28
ENDBRANCH  18  20
ENDBRANCH   5  19
TORSDOF 8
ENDMDL
MODEL 3
REMARK VINA RESULT:      -5.6      1.723     11.686
REMARK  Name = 969516_Curcumin.pdbqt.pdb
REMARK  8 active torsions:
REMARK  status: ('A' for Active; 'I' for Inactive)
REMARK    1  A    between atoms: C_3  and  C_5
REMARK    2  A    between atoms: C_4  and  C_6
REMARK    3  A    between atoms: C_8  and  O_12
REMARK    4  A    between atoms: C_10  and  O_14
REMARK    5  A    between atoms: C_17  and  C_19
REMARK    6  A    between atoms: C_18  and  C_20
REMARK    7  A    between atoms: C_22  and  O_26
REMARK    8  A    between atoms: C_24  and  O_28
REMARK                            x       y       z     vdW  Elec       q    Type
REMARK                         _______ _______ _______ _____ _____    ______ ____
ROOT
ATOM      1  C   UNL     1     -12.288   3.604  20.106  0.00  0.00    +0.000 C 
ATOM      2  O   UNL     1     -12.109   5.715  20.982  0.00  0.00    +0.000 OA
ATOM      3  C   UNL     1     -12.825   4.749  20.764  0.00  0.00    +0.000 C 
ATOM      4  O   UNL     1     -12.348   1.396  19.495  0.00  0.00    +0.000 OA
ATOM      5  C   UNL     1     -11.747   2.460  19.452  0.00  0.00    +0.000 C 
ENDROOT
BRANCH   3   7
ATOM      6  C   UNL     1     -15.364   4.772  21.497  0.00  0.00    +0.000 C 
ATOM      7  C   UNL     1     -14.210   4.761  21.164  0.00  0.00    +0.000 C 
BRANCH   6   8
ATOM      8  C   UNL     1     -16.735   4.786  21.891  0.00  0.00    +0.000 A 
ATOM      9  C   UNL     1     -17.734   4.908  20.927  0.00  0.00    +0.000 A 
ATOM     10  C   UNL     1     -19.083   4.923  21.295  0.00  0.00    +0.000 A 
ATOM     11  C   UNL     1     -17.073   4.678  23.237  0.00  0.00    +0.000 A 
ATOM     12  C   UNL     1     -19.410   4.814  22.650  0.00  0.00    +0.000 A 
ATOM     13  C   UNL     1     -18.412   4.692  23.617  0.00  0.00    +0.000 A 
BRANCH  10  14
ATOM     14  O   UNL     1     -20.120   5.039  20.404  0.00  0.00    +0.000 OA
ATOM     15  C   UNL     1     -20.260   3.992  19.484  0.00  0.00    +0.000 C 
ENDBRANCH  10  14
BRANCH  12  16
ATOM     16  O   UNL     1     -20.700   4.819  23.107  0.00  0.00    +0.000 OA
ATOM     17  H   UNL     1     -20.898   5.654  23.565  0.00  0.00    +0.000 HD
ENDBRANCH  12  16
ENDBRANCH   6   8
ENDBRANCH   3   7
BRANCH   5  19
ATOM     18  C   UNL     1      -9.457   2.656  18.150  0.00  0.00    +0.000 C 
ATOM     19  C   UNL     1     -10.498   2.565  18.742  0.00  0.00    +0.000 C 
BRANCH  18  20
ATOM     20  C   UNL     1      -8.222   2.768  17.445  0.00  0.00    +0.000 A 
ATOM     21  C   UNL     1      -7.911   3.949  16.773  0.00  0.00    +0.000 A 
ATOM     22  C   UNL     1      -6.705   4.074  16.078  0.00  0.00    +0.000 A 
ATOM     23  C   UNL     1      -7.329   1.698  17.429  0.00  0.00    +0.000 A 
ATOM     24  C   UNL     1      -5.819   2.994  16.071  0.00  0.00    +0.000 A 
ATOM     25  C   UNL     1      -6.125   1.811  16.741  0.00  0.00    +0.000 A 
BRANCH  22  26
ATOM     26  O   UNL     1      -6.321   5.200  15.391  0.00  0.00    +0.000 OA
ATOM     27  C   UNL     1      -5.918   6.286  16.185  0.00  0.00    +0.000 C 
ENDBRANCH  22  26
BRANCH  24  28
ATOM     28  O   UNL     1      -4.633   3.097  15.396  0.00  0.00    +0.000 OA
ATOM     29  H   UNL     1      -4.258   3.983  15.558  0.00  0.00    +0.000 HD
ENDBRANCH  24  28
ENDBRANCH  18  20
ENDBRANCH   5  19
TORSDOF 8
ENDMDL
MODEL 4
REMARK VINA RESULT:      -5.3     12.250     13.217
REMARK  Name = 969516_Curcumin.pdbqt.pdb
REMARK  8 active torsions:
REMARK  status: ('A' for Active; 'I' for Inactive)
REMARK    1  A    between atoms: C_3  and  C_5
REMARK    2  A    between atoms: C_4  and  C_6
REMARK    3  A    between atoms: C_8  and  O_12
REMARK    4  A    between atoms: C_10  and  O_14
REMARK    5  A    between atoms: C_17  and  C_19
REMARK    6  A    between atoms: C_18  and  C_20
REMARK    7  A    between atoms: C_22  and  O_26
REMARK    8  A    between atoms: C_24  and  O_28
REMARK                            x       y       z     vdW  Elec       q    Type
REMARK                         _______ _______ _______ _____ _____    ______ ____
ROOT
ATOM      1  C   UNL     1      -9.628  17.516  18.730  0.00  0.00    +0.000 C 
ATOM      2  O   UNL     1      -8.354  15.931  19.788  0.00  0.00    +0.000 OA
ATOM      3  C   UNL     1      -8.594  16.534  18.753  0.00  0.00    +0.000 C 
ATOM      4  O   UNL     1     -10.710  19.306  17.795  0.00  0.00    +0.000 OA
ATOM      5  C   UNL     1     -10.659  18.498  18.710  0.00  0.00    +0.000 C 
ENDROOT
BRANCH   3   7
ATOM      6  C   UNL     1      -7.215  16.028  16.556  0.00  0.00    +0.000 C 
ATOM      7  C   UNL     1      -7.841  16.259  17.555  0.00  0.00    +0.000 C 
BRANCH   6   8
ATOM      8  C   UNL     1      -6.472  15.753  15.370  0.00  0.00    +0.000 A 
ATOM      9  C   UNL     1      -5.979  16.806  14.599  0.00  0.00    +0.000 A 
ATOM     10  C   UNL     1      -5.249  16.555  13.434  0.00  0.00    +0.000 A 
ATOM     11  C   UNL     1      -6.240  14.436  14.983  0.00  0.00    +0.000 A 
ATOM     12  C   UNL     1      -5.023  15.228  13.055  0.00  0.00    +0.000 A 
ATOM     13  C   UNL     1      -5.515  14.174  13.824  0.00  0.00    +0.000 A 
BRANCH  10  14
ATOM     14  O   UNL     1      -4.733  17.537  12.626  0.00  0.00    +0.000 OA
ATOM     15  C   UNL     1      -5.659  18.435  12.080  0.00  0.00    +0.000 C 
ENDBRANCH  10  14
BRANCH  12  16
ATOM     16  O   UNL     1      -4.320  14.884  11.932  0.00  0.00    +0.000 OA
ATOM     17  H   UNL     1      -4.873  14.358  11.330  0.00  0.00    +0.000 HD
ENDBRANCH  12  16
ENDBRANCH   6   8
ENDBRANCH   3   7
BRANCH   5  19
ATOM     18  C   UNL     1     -12.450  18.565  20.651  0.00  0.00    +0.000 C 
ATOM     19  C   UNL     1     -11.636  18.532  19.769  0.00  0.00    +0.000 C 
BRANCH  18  20
ATOM     20  C   UNL     1     -13.414  18.607  21.701  0.00  0.00    +0.000 A 
ATOM     21  C   UNL     1     -14.709  19.051  21.438  0.00  0.00    +0.000 A 
ATOM     22  C   UNL     1     -15.665  19.097  22.457  0.00  0.00    +0.000 A 
ATOM     23  C   UNL     1     -13.061  18.203  22.988  0.00  0.00    +0.000 A 
ATOM     24  C   UNL     1     -15.297  18.689  23.741  0.00  0.00    +0.000 A 
ATOM     25  C   UNL     1     -14.003  18.245  24.010  0.00  0.00    +0.000 A 
BRANCH  22  26
ATOM     26  O   UNL     1     -16.960  19.520  22.284  0.00  0.00    +0.000 OA
ATOM     27  C   UNL     1     -17.789  18.652  21.556  0.00  0.00    +0.000 C 
ENDBRANCH  22  26
BRANCH  24  28
ATOM     28  O   UNL     1     -16.218  18.727  24.752  0.00  0.00    +0.000 OA
ATOM     29  H   UNL     1     -16.369  19.657  25.003  0.00  0.00    +0.000 HD
ENDBRANCH  24  28
ENDBRANCH  18  20
ENDBRANCH   5  19
TORSDOF 8
ENDMDL
MODEL 5
REMARK VINA RESULT:      -5.3     20.586     22.972
REMARK  Name = 969516_Curcumin.pdbqt.pdb
REMARK  8 active torsions:
REMARK  status: ('A' for Active; 'I' for Inactive)
REMARK    1  A    between atoms: C_3  and  C_5
REMARK    2  A    between atoms: C_4  and  C_6
REMARK    3  A    between atoms: C_8  and  O_12
REMARK    4  A    between atoms: C_10  and  O_14
REMARK    5  A    between atoms: C_17  and  C_19
REMARK    6  A    between atoms: C_18  and  C_20
REMARK    7  A    between atoms: C_22  and  O_26
REMARK    8  A    between atoms: C_24  and  O_28
REMARK                            x       y       z     vdW  Elec       q    Type
REMARK                         _______ _______ _______ _____ _____    ______ ____
ROOT
ATOM      1  C   UNL     1     -14.984   5.532  -2.440  0.00  0.00    +0.000 C 
ATOM      2  O   UNL     1     -16.910   6.311  -3.409  0.00  0.00    +0.000 OA
ATOM      3  C   UNL     1     -15.857   6.582  -2.852  0.00  0.00    +0.000 C 
ATOM      4  O   UNL     1     -12.949   4.731  -1.756  0.00  0.00    +0.000 OA
ATOM      5  C   UNL     1     -14.113   4.481  -2.033  0.00  0.00    +0.000 C 
ENDROOT
BRANCH   3   7
ATOM      6  C   UNL     1     -15.188   9.097  -2.397  0.00  0.00    +0.000 C 
ATOM      7  C   UNL     1     -15.492   7.954  -2.604  0.00  0.00    +0.000 C 
BRANCH   6   8
ATOM      8  C   UNL     1     -14.825  10.455  -2.149  0.00  0.00    +0.000 A 
ATOM      9  C   UNL     1     -14.499  11.292  -3.215  0.00  0.00    +0.000 A 
ATOM     10  C   UNL     1     -14.141  12.625  -2.991  0.00  0.00    +0.000 A 
ATOM     11  C   UNL     1     -14.798  10.941  -0.845  0.00  0.00    +0.000 A 
ATOM     12  C   UNL     1     -14.118  13.103  -1.677  0.00  0.00    +0.000 A 
ATOM     13  C   UNL     1     -14.444  12.267  -0.610  0.00  0.00    +0.000 A 
BRANCH  10  14
ATOM     14  O   UNL     1     -13.809  13.507  -3.989  0.00  0.00    +0.000 OA
ATOM     15  C   UNL     1     -12.491  13.439  -4.456  0.00  0.00    +0.000 C 
ENDBRANCH  10  14
BRANCH  12  16
ATOM     16  O   UNL     1     -13.781  14.390  -1.359  0.00  0.00    +0.000 OA
ATOM     17  H   UNL     1     -12.861  14.575  -1.610  0.00  0.00    +0.000 HD
ENDBRANCH  12  16
ENDBRANCH   6   8
ENDBRANCH   3   7
BRANCH   5  19
ATOM     18  C   UNL     1     -15.020   2.005  -1.875  0.00  0.00    +0.000 C 
ATOM     19  C   UNL     1     -14.610   3.131  -1.948  0.00  0.00    +0.000 C 
BRANCH  18  20
ATOM     20  C   UNL     1     -15.504   0.666  -1.789  0.00  0.00    +0.000 A 
ATOM     21  C   UNL     1     -15.020  -0.185  -0.797  0.00  0.00    +0.000 A 
ATOM     22  C   UNL     1     -15.484  -1.500  -0.700  0.00  0.00    +0.000 A 
ATOM     23  C   UNL     1     -16.459   0.211  -2.696  0.00  0.00    +0.000 A 
ATOM     24  C   UNL     1     -16.442  -1.943  -1.616  0.00  0.00    +0.000 A 
ATOM     25  C   UNL     1     -16.929  -1.096  -2.610  0.00  0.00    +0.000 A 
BRANCH  22  26
ATOM     26  O   UNL     1     -15.060  -2.403   0.245  0.00  0.00    +0.000 OA
ATOM     27  C   UNL     1     -13.843  -2.095   0.873  0.00  0.00    +0.000 C 
ENDBRANCH  22  26
BRANCH  24  28
ATOM     28  O   UNL     1     -16.909  -3.226  -1.537  0.00  0.00    +0.000 OA
ATOM     29  H   UNL     1     -17.517  -3.384  -2.284  0.00  0.00    +0.000 HD
ENDBRANCH  24  28
ENDBRANCH  18  20
ENDBRANCH   5  19
TORSDOF 8
ENDMDL
MODEL 6
REMARK VINA RESULT:      -5.3     20.358     22.341
REMARK  Name = 969516_Curcumin.pdbqt.pdb
REMARK  8 active torsions:
REMARK  status: ('A' for Active; 'I' for Inactive)
REMARK    1  A    between atoms: C_3  and  C_5
REMARK    2  A    between atoms: C_4  and  C_6
REMARK    3  A    between atoms: C_8  and  O_12
REMARK    4  A    between atoms: C_10  and  O_14
REMARK    5  A    between atoms: C_17  and  C_19
REMARK    6  A    between atoms: C_18  and  C_20
REMARK    7  A    between atoms: C_22  and  O_26
REMARK    8  A    between atoms: C_24  and  O_28
REMARK                            x       y       z     vdW  Elec       q    Type
REMARK                         _______ _______ _______ _____ _____    ______ ____
ROOT
ATOM      1  C   UNL     1     -14.536   3.947  -1.731  0.00  0.00    +0.000 C 
ATOM      2  O   UNL     1     -16.765   4.353  -2.081  0.00  0.00    +0.000 OA
ATOM      3  C   UNL     1     -15.652   4.820  -1.887  0.00  0.00    +0.000 C 
ATOM      4  O   UNL     1     -12.286   3.512  -1.687  0.00  0.00    +0.000 OA
ATOM      5  C   UNL     1     -13.422   3.072  -1.580  0.00  0.00    +0.000 C 
ENDROOT
BRANCH   3   7
ATOM      6  C   UNL     1     -15.303   7.435  -1.747  0.00  0.00    +0.000 C 
ATOM      7  C   UNL     1     -15.461   6.246  -1.811  0.00  0.00    +0.000 C 
BRANCH   6   8
ATOM      8  C   UNL     1     -15.114   8.847  -1.669  0.00  0.00    +0.000 A 
ATOM      9  C   UNL     1     -14.860   9.579  -2.828  0.00  0.00    +0.000 A 
ATOM     10  C   UNL     1     -14.672  10.963  -2.770  0.00  0.00    +0.000 A 
ATOM     11  C   UNL     1     -15.183   9.492  -0.437  0.00  0.00    +0.000 A 
ATOM     12  C   UNL     1     -14.744  11.600  -1.527  0.00  0.00    +0.000 A 
ATOM     13  C   UNL     1     -14.998  10.870  -0.367  0.00  0.00    +0.000 A 
BRANCH  10  14
ATOM     14  O   UNL     1     -14.420  11.749  -3.867  0.00  0.00    +0.000 OA
ATOM     15  C   UNL     1     -15.500  11.964  -4.732  0.00  0.00    +0.000 C 
ENDBRANCH  10  14
BRANCH  12  16
ATOM     16  O   UNL     1     -14.575  12.949  -1.371  0.00  0.00    +0.000 OA
ATOM     17  H   UNL     1     -13.670  13.148  -1.076  0.00  0.00    +0.000 HD
ENDBRANCH  12  16
ENDBRANCH   6   8
ENDBRANCH   3   7
BRANCH   5  19
ATOM     18  C   UNL     1     -13.826   0.512  -1.069  0.00  0.00    +0.000 C 
ATOM     19  C   UNL     1     -13.640   1.676  -1.300  0.00  0.00    +0.000 C 
BRANCH  18  20
ATOM     20  C   UNL     1     -14.051  -0.869  -0.794  0.00  0.00    +0.000 A 
ATOM     21  C   UNL     1     -14.794  -1.242   0.326  0.00  0.00    +0.000 A 
ATOM     22  C   UNL     1     -15.024  -2.591   0.609  0.00  0.00    +0.000 A 
ATOM     23  C   UNL     1     -13.530  -1.843  -1.643  0.00  0.00    +0.000 A 
ATOM     24  C   UNL     1     -14.496  -3.557  -0.252  0.00  0.00    +0.000 A 
ATOM     25  C   UNL     1     -13.752  -3.190  -1.372  0.00  0.00    +0.000 A 
BRANCH  22  26
ATOM     26  O   UNL     1     -15.743  -3.044   1.688  0.00  0.00    +0.000 OA
ATOM     27  C   UNL     1     -17.109  -2.718   1.685  0.00  0.00    +0.000 C 
ENDBRANCH  22  26
BRANCH  24  28
ATOM     28  O   UNL     1     -14.710  -4.883   0.009  0.00  0.00    +0.000 OA
ATOM     29  H   UNL     1     -13.927  -5.389  -0.281  0.00  0.00    +0.000 HD
ENDBRANCH  24  28
ENDBRANCH  18  20
ENDBRANCH   5  19
TORSDOF 8
ENDMDL
MODEL 7
REMARK VINA RESULT:      -5.1     16.116     17.538
REMARK  Name = 969516_Curcumin.pdbqt.pdb
REMARK  8 active torsions:
REMARK  status: ('A' for Active; 'I' for Inactive)
REMARK    1  A    between atoms: C_3  and  C_5
REMARK    2  A    between atoms: C_4  and  C_6
REMARK    3  A    between atoms: C_8  and  O_12
REMARK    4  A    between atoms: C_10  and  O_14
REMARK    5  A    between atoms: C_17  and  C_19
REMARK    6  A    between atoms: C_18  and  C_20
REMARK    7  A    between atoms: C_22  and  O_26
REMARK    8  A    between atoms: C_24  and  O_28
REMARK                            x       y       z     vdW  Elec       q    Type
REMARK                         _______ _______ _______ _____ _____    ______ ____
ROOT
ATOM      1  C   UNL     1      -8.787   0.049   3.149  0.00  0.00    +0.000 C 
ATOM      2  O   UNL     1      -8.387   1.069   5.162  0.00  0.00    +0.000 OA
ATOM      3  C   UNL     1      -7.969   0.793   4.048  0.00  0.00    +0.000 C 
ATOM      4  O   UNL     1      -9.338  -0.715   1.059  0.00  0.00    +0.000 OA
ATOM      5  C   UNL     1      -9.609  -0.692   2.251  0.00  0.00    +0.000 C 
ENDROOT
BRANCH   3   7
ATOM      6  C   UNL     1      -5.555   1.561   3.294  0.00  0.00    +0.000 C 
ATOM      7  C   UNL     1      -6.652   1.212   3.637  0.00  0.00    +0.000 C 
BRANCH   6   8
ATOM      8  C   UNL     1      -4.252   1.974   2.885  0.00  0.00    +0.000 A 
ATOM      9  C   UNL     1      -4.090   3.171   2.188  0.00  0.00    +0.000 A 
ATOM     10  C   UNL     1      -2.821   3.591   1.779  0.00  0.00    +0.000 A 
ATOM     11  C   UNL     1      -3.146   1.183   3.180  0.00  0.00    +0.000 A 
ATOM     12  C   UNL     1      -1.717   2.789   2.082  0.00  0.00    +0.000 A 
ATOM     13  C   UNL     1      -1.877   1.591   2.779  0.00  0.00    +0.000 A 
BRANCH  10  14
ATOM     14  O   UNL     1      -2.584   4.756   1.092  0.00  0.00    +0.000 OA
ATOM     15  C   UNL     1      -2.581   5.930   1.854  0.00  0.00    +0.000 C 
ENDBRANCH  10  14
BRANCH  12  16
ATOM     16  O   UNL     1      -0.438   3.117   1.725  0.00  0.00    +0.000 OA
ATOM     17  H   UNL     1       0.204   2.565   2.203  0.00  0.00    +0.000 HD
ENDBRANCH  12  16
ENDBRANCH   6   8
ENDBRANCH   3   7
BRANCH   5  19
ATOM     18  C   UNL     1     -11.703  -2.012   3.175  0.00  0.00    +0.000 C 
ATOM     19  C   UNL     1     -10.752  -1.411   2.754  0.00  0.00    +0.000 C 
BRANCH  18  20
ATOM     20  C   UNL     1     -12.829  -2.731   3.674  0.00  0.00    +0.000 A 
ATOM     21  C   UNL     1     -13.827  -3.152   2.798  0.00  0.00    +0.000 A 
ATOM     22  C   UNL     1     -14.937  -3.858   3.272  0.00  0.00    +0.000 A 
ATOM     23  C   UNL     1     -12.929  -3.011   5.036  0.00  0.00    +0.000 A 
ATOM     24  C   UNL     1     -15.024  -4.132   4.639  0.00  0.00    +0.000 A 
ATOM     25  C   UNL     1     -14.029  -3.713   5.519  0.00  0.00    +0.000 A 
BRANCH  22  26
ATOM     26  O   UNL     1     -15.964  -4.309   2.478  0.00  0.00    +0.000 OA
ATOM     27  C   UNL     1     -16.729  -3.311   1.854  0.00  0.00    +0.000 C 
ENDBRANCH  22  26
BRANCH  24  28
ATOM     28  O   UNL     1     -16.102  -4.822   5.122  0.00  0.00    +0.000 OA
ATOM     29  H   UNL     1     -16.707  -4.192   5.558  0.00  0.00    +0.000 HD
ENDBRANCH  24  28
ENDBRANCH  18  20
ENDBRANCH   5  19
TORSDOF 8
ENDMDL
MODEL 8
REMARK VINA RESULT:      -5.0     22.771     25.551
REMARK  Name = 969516_Curcumin.pdbqt.pdb
REMARK  8 active torsions:
REMARK  status: ('A' for Active; 'I' for Inactive)
REMARK    1  A    between atoms: C_3  and  C_5
REMARK    2  A    between atoms: C_4  and  C_6
REMARK    3  A    between atoms: C_8  and  O_12
REMARK    4  A    between atoms: C_10  and  O_14
REMARK    5  A    between atoms: C_17  and  C_19
REMARK    6  A    between atoms: C_18  and  C_20
REMARK    7  A    between atoms: C_22  and  O_26
REMARK    8  A    between atoms: C_24  and  O_28
REMARK                            x       y       z     vdW  Elec       q    Type
REMARK                         _______ _______ _______ _____ _____    ______ ____
ROOT
ATOM      1  C   UNL     1     -14.379  11.648  -3.122  0.00  0.00    +0.000 C 
ATOM      2  O   UNL     1     -14.768  11.992  -0.889  0.00  0.00    +0.000 OA
ATOM      3  C   UNL     1     -14.781  11.209  -1.826  0.00  0.00    +0.000 C 
ATOM      4  O   UNL     1     -13.695  11.268  -5.276  0.00  0.00    +0.000 OA
ATOM      5  C   UNL     1     -13.973  12.089  -4.414  0.00  0.00    +0.000 C 
ENDROOT
BRANCH   3   7
ATOM      6  C   UNL     1     -15.554   8.707  -1.470  0.00  0.00    +0.000 C 
ATOM      7  C   UNL     1     -15.203   9.844  -1.632  0.00  0.00    +0.000 C 
BRANCH   6   8
ATOM      8  C   UNL     1     -15.972   7.357  -1.275  0.00  0.00    +0.000 A 
ATOM      9  C   UNL     1     -15.345   6.328  -1.977  0.00  0.00    +0.000 A 
ATOM     10  C   UNL     1     -15.743   4.999  -1.799  0.00  0.00    +0.000 A 
ATOM     11  C   UNL     1     -17.004   7.069  -0.387  0.00  0.00    +0.000 A 
ATOM     12  C   UNL     1     -16.780   4.722  -0.903  0.00  0.00    +0.000 A 
ATOM     13  C   UNL     1     -17.408   5.750  -0.201  0.00  0.00    +0.000 A 
BRANCH  10  14
ATOM     14  O   UNL     1     -15.173   3.935  -2.452  0.00  0.00    +0.000 OA
ATOM     15  C   UNL     1     -15.028   4.070  -3.838  0.00  0.00    +0.000 C 
ENDBRANCH  10  14
BRANCH  12  16
ATOM     16  O   UNL     1     -17.237   3.455  -0.663  0.00  0.00    +0.000 OA
ATOM     17  H   UNL     1     -18.202   3.413  -0.769  0.00  0.00    +0.000 HD
ENDBRANCH  12  16
ENDBRANCH   6   8
ENDBRANCH   3   7
BRANCH   5  19
ATOM     18  C   UNL     1     -13.833  14.675  -4.938  0.00  0.00    +0.000 C 
ATOM     19  C   UNL     1     -13.895  13.499  -4.698  0.00  0.00    +0.000 C 
BRANCH  18  20
ATOM     20  C   UNL     1     -13.756  16.069  -5.227  0.00  0.00    +0.000 A 
ATOM     21  C   UNL     1     -12.620  16.792  -4.866  0.00  0.00    +0.000 A 
ATOM     22  C   UNL     1     -12.531  18.159  -5.144  0.00  0.00    +0.000 A 
ATOM     23  C   UNL     1     -14.816  16.706  -5.871  0.00  0.00    +0.000 A 
ATOM     24  C   UNL     1     -13.600  18.784  -5.790  0.00  0.00    +0.000 A 
ATOM     25  C   UNL     1     -14.738  18.066  -6.153  0.00  0.00    +0.000 A 
BRANCH  22  26
ATOM     26  O   UNL     1     -11.450  18.945  -4.823  0.00  0.00    +0.000 OA
ATOM     27  C   UNL     1     -10.416  18.297  -4.129  0.00  0.00    +0.000 C 
ENDBRANCH  22  26
BRANCH  24  28
ATOM     28  O   UNL     1     -13.531  20.122  -6.070  0.00  0.00    +0.000 OA
ATOM     29  H   UNL     1     -14.289  20.569  -5.649  0.00  0.00    +0.000 HD
ENDBRANCH  24  28
ENDBRANCH  18  20
ENDBRANCH   5  19
TORSDOF 8
ENDMDL
MODEL 9
REMARK VINA RESULT:      -5.0     21.000     24.480
REMARK  Name = 969516_Curcumin.pdbqt.pdb
REMARK  8 active torsions:
REMARK  status: ('A' for Active; 'I' for Inactive)
REMARK    1  A    between atoms: C_3  and  C_5
REMARK    2  A    between atoms: C_4  and  C_6
REMARK    3  A    between atoms: C_8  and  O_12
REMARK    4  A    between atoms: C_10  and  O_14
REMARK    5  A    between atoms: C_17  and  C_19
REMARK    6  A    between atoms: C_18  and  C_20
REMARK    7  A    between atoms: C_22  and  O_26
REMARK    8  A    between atoms: C_24  and  O_28
REMARK                            x       y       z     vdW  Elec       q    Type
REMARK                         _______ _______ _______ _____ _____    ______ ____
ROOT
ATOM      1  C   UNL     1     -21.670  18.638   4.924  0.00  0.00    +0.000 C 
ATOM      2  O   UNL     1     -23.692  17.890   4.145  0.00  0.00    +0.000 OA
ATOM      3  C   UNL     1     -22.832  17.815   5.009  0.00  0.00    +0.000 C 
ATOM      4  O   UNL     1     -19.806  19.622   5.824  0.00  0.00    +0.000 OA
ATOM      5  C   UNL     1     -20.513  19.464   4.839  0.00  0.00    +0.000 C 
ENDROOT
BRANCH   3   7
ATOM      6  C   UNL     1     -23.103  16.136   7.032  0.00  0.00    +0.000 C 
ATOM      7  C   UNL     1     -22.981  16.899   6.112  0.00  0.00    +0.000 C 
BRANCH   6   8
ATOM      8  C   UNL     1     -23.249  15.231   8.125  0.00  0.00    +0.000 A 
ATOM      9  C   UNL     1     -22.578  14.009   8.109  0.00  0.00    +0.000 A 
ATOM     10  C   UNL     1     -22.710  13.110   9.172  0.00  0.00    +0.000 A 
ATOM     11  C   UNL     1     -24.061  15.569   9.204  0.00  0.00    +0.000 A 
ATOM     12  C   UNL     1     -23.527  13.460  10.251  0.00  0.00    +0.000 A 
ATOM     13  C   UNL     1     -24.199  14.682  10.269  0.00  0.00    +0.000 A 
BRANCH  10  14
ATOM     14  O   UNL     1     -22.080  11.892   9.228  0.00  0.00    +0.000 OA
ATOM     15  C   UNL     1     -22.421  10.977   8.224  0.00  0.00    +0.000 C 
ENDBRANCH  10  14
BRANCH  12  16
ATOM     16  O   UNL     1     -23.717  12.647  11.335  0.00  0.00    +0.000 OA
ATOM     17  H   UNL     1     -22.866  12.323  11.674  0.00  0.00    +0.000 HD
ENDBRANCH  12  16
ENDBRANCH   6   8
ENDBRANCH   3   7
BRANCH   5  19
ATOM     18  C   UNL     1     -19.908  20.640   2.552  0.00  0.00    +0.000 C 
ATOM     19  C   UNL     1     -20.183  20.107   3.593  0.00  0.00    +0.000 C 
BRANCH  18  20
ATOM     20  C   UNL     1     -19.579  21.268   1.314  0.00  0.00    +0.000 A 
ATOM     21  C   UNL     1     -18.333  21.872   1.152  0.00  0.00    +0.000 A 
ATOM     22  C   UNL     1     -17.996  22.491  -0.055  0.00  0.00    +0.000 A 
ATOM     23  C   UNL     1     -20.502  21.277   0.271  0.00  0.00    +0.000 A 
ATOM     24  C   UNL     1     -18.931  22.492  -1.093  0.00  0.00    +0.000 A 
ATOM     25  C   UNL     1     -20.178  21.890  -0.936  0.00  0.00    +0.000 A 
BRANCH  22  26
ATOM     26  O   UNL     1     -16.792  23.108  -0.298  0.00  0.00    +0.000 OA
ATOM     27  C   UNL     1     -15.995  23.346   0.832  0.00  0.00    +0.000 C 
ENDBRANCH  22  26
BRANCH  24  28
ATOM     28  O   UNL     1     -18.619  23.093  -2.282  0.00  0.00    +0.000 OA
ATOM     29  H   UNL     1     -18.887  22.502  -3.011  0.00  0.00    +0.000 HD
ENDBRANCH  24  28
ENDBRANCH  18  20
ENDBRANCH   5  19
TORSDOF 8
ENDMDL
