MODEL 1
REMARK VINA RESULT:      -3.7      0.000      0.000
REMARK  Name = 971_OxalicAcid.pdbqt.pdb
REMARK  3 active torsions:
REMARK  status: ('A' for Active; 'I' for Inactive)
REMARK    1  A    between atoms: C_2  and  O_3
REMARK    2  A    between atoms: C_2  and  C_6
REMARK    3  A    between atoms: C_6  and  O_7
REMARK                            x       y       z     vdW  Elec       q    Type
REMARK                         _______ _______ _______ _____ _____    ______ ____
ROOT
ATOM      1  O   UNL     1     -16.276  18.472  23.485  0.00  0.00    +0.000 OA
ATOM      2  C   UNL     1     -17.111  19.134  22.900  0.00  0.00    +0.000 C 
ENDROOT
BRANCH   2   3
ATOM      3  O   UNL     1     -17.910  19.996  23.543  0.00  0.00    +0.000 OA
ATOM      4  H   UNL     1     -17.301  20.541  24.080  0.00  0.00    +0.000 HD
ENDBRANCH   2   3
BRANCH   2   6
ATOM      5  O   UNL     1     -16.652  19.555  20.508  0.00  0.00    +0.000 OA
ATOM      6  C   UNL     1     -17.381  19.093  21.364  0.00  0.00    +0.000 C 
BRANCH   6   7
ATOM      7  O   UNL     1     -18.534  18.481  21.058  0.00  0.00    +0.000 OA
ATOM      8  H   UNL     1     -19.212  18.966  21.570  0.00  0.00    +0.000 HD
ENDBRANCH   6   7
ENDBRANCH   2   6
TORSDOF 3
ENDMDL
MODEL 2
REMARK VINA RESULT:      -3.1      1.354      2.742
REMARK  Name = 971_OxalicAcid.pdbqt.pdb
REMARK  3 active torsions:
REMARK  status: ('A' for Active; 'I' for Inactive)
REMARK    1  A    between atoms: C_2  and  O_3
REMARK    2  A    between atoms: C_2  and  C_6
REMARK    3  A    between atoms: C_6  and  O_7
REMARK                            x       y       z     vdW  Elec       q    Type
REMARK                         _______ _______ _______ _____ _____    ______ ____
ROOT
ATOM      1  O   UNL     1     -15.106  19.395  20.714  0.00  0.00    +0.000 OA
ATOM      2  C   UNL     1     -16.164  19.790  21.163  0.00  0.00    +0.000 C 
ENDROOT
BRANCH   2   3
ATOM      3  O   UNL     1     -17.022  20.510  20.426  0.00  0.00    +0.000 OA
ATOM      4  H   UNL     1     -17.907  20.219  20.726  0.00  0.00    +0.000 HD
ENDBRANCH   2   3
BRANCH   2   6
ATOM      5  O   UNL     1     -16.380  18.591  23.312  0.00  0.00    +0.000 OA
ATOM      6  C   UNL     1     -16.681  19.538  22.613  0.00  0.00    +0.000 C 
BRANCH   6   7
ATOM      7  O   UNL     1     -17.520  20.493  23.037  0.00  0.00    +0.000 OA
ATOM      8  H   UNL     1     -17.413  21.218  22.388  0.00  0.00    +0.000 HD
ENDBRANCH   6   7
ENDBRANCH   2   6
TORSDOF 3
ENDMDL
MODEL 3
REMARK VINA RESULT:      -3.0     14.554     15.210
REMARK  Name = 971_OxalicAcid.pdbqt.pdb
REMARK  3 active torsions:
REMARK  status: ('A' for Active; 'I' for Inactive)
REMARK    1  A    between atoms: C_2  and  O_3
REMARK    2  A    between atoms: C_2  and  C_6
REMARK    3  A    between atoms: C_6  and  O_7
REMARK                            x       y       z     vdW  Elec       q    Type
REMARK                         _______ _______ _______ _____ _____    ______ ____
ROOT
ATOM      1  O   UNL     1     -24.567  13.837   9.505  0.00  0.00    +0.000 OA
ATOM      2  C   UNL     1     -23.664  13.164   9.961  0.00  0.00    +0.000 C 
ENDROOT
BRANCH   2   3
ATOM      3  O   UNL     1     -23.705  12.672  11.207  0.00  0.00    +0.000 OA
ATOM      4  H   UNL     1     -24.530  13.037  11.587  0.00  0.00    +0.000 HD
ENDBRANCH   2   3
BRANCH   2   6
ATOM      5  O   UNL     1     -22.049  11.651   8.860  0.00  0.00    +0.000 OA
ATOM      6  C   UNL     1     -22.356  12.776   9.204  0.00  0.00    +0.000 C 
BRANCH   6   7
ATOM      7  O   UNL     1     -21.569  13.832   8.956  0.00  0.00    +0.000 OA
ATOM      8  H   UNL     1     -21.650  14.391   9.755  0.00  0.00    +0.000 HD
ENDBRANCH   6   7
ENDBRANCH   2   6
TORSDOF 3
ENDMDL
MODEL 4
REMARK VINA RESULT:      -2.8     12.015     13.068
REMARK  Name = 971_OxalicAcid.pdbqt.pdb
REMARK  3 active torsions:
REMARK  status: ('A' for Active; 'I' for Inactive)
REMARK    1  A    between atoms: C_2  and  O_3
REMARK    2  A    between atoms: C_2  and  C_6
REMARK    3  A    between atoms: C_6  and  O_7
REMARK                            x       y       z     vdW  Elec       q    Type
REMARK                         _______ _______ _______ _____ _____    ______ ____
ROOT
ATOM      1  O   UNL     1     -23.190   8.226  18.064  0.00  0.00    +0.000 OA
ATOM      2  C   UNL     1     -23.484   9.209  17.412  0.00  0.00    +0.000 C 
ENDROOT
BRANCH   2   3
ATOM      3  O   UNL     1     -23.132  10.444  17.795  0.00  0.00    +0.000 OA
ATOM      4  H   UNL     1     -22.423  10.701  17.173  0.00  0.00    +0.000 HD
ENDBRANCH   2   3
BRANCH   2   6
ATOM      5  O   UNL     1     -23.805   9.081  14.965  0.00  0.00    +0.000 OA
ATOM      6  C   UNL     1     -24.287   9.199  16.074  0.00  0.00    +0.000 C 
BRANCH   6   7
ATOM      7  O   UNL     1     -25.607   9.339  16.263  0.00  0.00    +0.000 OA
ATOM      8  H   UNL     1     -25.944   8.423  16.317  0.00  0.00    +0.000 HD
ENDBRANCH   6   7
ENDBRANCH   2   6
TORSDOF 3
ENDMDL
MODEL 5
REMARK VINA RESULT:      -2.8     12.060     13.064
REMARK  Name = 971_OxalicAcid.pdbqt.pdb
REMARK  3 active torsions:
REMARK  status: ('A' for Active; 'I' for Inactive)
REMARK    1  A    between atoms: C_2  and  O_3
REMARK    2  A    between atoms: C_2  and  C_6
REMARK    3  A    between atoms: C_6  and  O_7
REMARK                            x       y       z     vdW  Elec       q    Type
REMARK                         _______ _______ _______ _____ _____    ______ ____
ROOT
ATOM      1  O   UNL     1     -21.458   6.297  16.825  0.00  0.00    +0.000 OA
ATOM      2  C   UNL     1     -20.568   7.010  17.245  0.00  0.00    +0.000 C 
ENDROOT
BRANCH   2   3
ATOM      3  O   UNL     1     -19.783   6.637  18.266  0.00  0.00    +0.000 OA
ATOM      4  H   UNL     1     -20.261   6.939  19.065  0.00  0.00    +0.000 HD
ENDBRANCH   2   3
BRANCH   2   6
ATOM      5  O   UNL     1     -20.950   9.378  16.652  0.00  0.00    +0.000 OA
ATOM      6  C   UNL     1     -20.202   8.421  16.690  0.00  0.00    +0.000 C 
BRANCH   6   7
ATOM      7  O   UNL     1     -18.941   8.489  16.241  0.00  0.00    +0.000 OA
ATOM      8  H   UNL     1     -18.611   9.351  16.568  0.00  0.00    +0.000 HD
ENDBRANCH   6   7
ENDBRANCH   2   6
TORSDOF 3
ENDMDL
MODEL 6
REMARK VINA RESULT:      -2.8     11.494     12.375
REMARK  Name = 971_OxalicAcid.pdbqt.pdb
REMARK  3 active torsions:
REMARK  status: ('A' for Active; 'I' for Inactive)
REMARK    1  A    between atoms: C_2  and  O_3
REMARK    2  A    between atoms: C_2  and  C_6
REMARK    3  A    between atoms: C_6  and  O_7
REMARK                            x       y       z     vdW  Elec       q    Type
REMARK                         _______ _______ _______ _____ _____    ______ ____
ROOT
ATOM      1  O   UNL     1     -21.479   7.012  17.921  0.00  0.00    +0.000 OA
ATOM      2  C   UNL     1     -21.321   8.182  17.634  0.00  0.00    +0.000 C 
ENDROOT
BRANCH   2   3
ATOM      3  O   UNL     1     -20.106   8.694  17.391  0.00  0.00    +0.000 OA
ATOM      4  H   UNL     1     -19.847   8.313  16.528  0.00  0.00    +0.000 HD
ENDBRANCH   2   3
BRANCH   2   6
ATOM      5  O   UNL     1     -23.226   9.339  16.567  0.00  0.00    +0.000 OA
ATOM      6  C   UNL     1     -22.458   9.242  17.504  0.00  0.00    +0.000 C 
BRANCH   6   7
ATOM      7  O   UNL     1     -22.515  10.070  18.557  0.00  0.00    +0.000 OA
ATOM      8  H   UNL     1     -23.406  10.471  18.504  0.00  0.00    +0.000 HD
ENDBRANCH   6   7
ENDBRANCH   2   6
TORSDOF 3
ENDMDL
MODEL 7
REMARK VINA RESULT:      -2.8     26.316     26.907
REMARK  Name = 971_OxalicAcid.pdbqt.pdb
REMARK  3 active torsions:
REMARK  status: ('A' for Active; 'I' for Inactive)
REMARK    1  A    between atoms: C_2  and  O_3
REMARK    2  A    between atoms: C_2  and  C_6
REMARK    3  A    between atoms: C_6  and  O_7
REMARK                            x       y       z     vdW  Elec       q    Type
REMARK                         _______ _______ _______ _____ _____    ______ ____
ROOT
ATOM      1  O   UNL     1      -8.940   1.718   2.590  0.00  0.00    +0.000 OA
ATOM      2  C   UNL     1      -9.405   1.158   3.563  0.00  0.00    +0.000 C 
ENDROOT
BRANCH   2   3
ATOM      3  O   UNL     1      -8.628   0.683   4.546  0.00  0.00    +0.000 OA
ATOM      4  H   UNL     1      -9.241   0.542   5.296  0.00  0.00    +0.000 HD
ENDBRANCH   2   3
BRANCH   2   6
ATOM      5  O   UNL     1     -11.401   0.483   4.855  0.00  0.00    +0.000 OA
ATOM      6  C   UNL     1     -10.923   0.907   3.821  0.00  0.00    +0.000 C 
BRANCH   6   7
ATOM      7  O   UNL     1     -11.685   1.212   2.761  0.00  0.00    +0.000 OA
ATOM      8  H   UNL     1     -12.600   1.033   3.058  0.00  0.00    +0.000 HD
ENDBRANCH   6   7
ENDBRANCH   2   6
TORSDOF 3
ENDMDL
MODEL 8
REMARK VINA RESULT:      -2.7     11.731     12.960
REMARK  Name = 971_OxalicAcid.pdbqt.pdb
REMARK  3 active torsions:
REMARK  status: ('A' for Active; 'I' for Inactive)
REMARK    1  A    between atoms: C_2  and  O_3
REMARK    2  A    between atoms: C_2  and  C_6
REMARK    3  A    between atoms: C_6  and  O_7
REMARK                            x       y       z     vdW  Elec       q    Type
REMARK                         _______ _______ _______ _____ _____    ______ ____
ROOT
ATOM      1  O   UNL     1     -23.330   7.395  16.190  0.00  0.00    +0.000 OA
ATOM      2  C   UNL     1     -23.364   8.605  16.304  0.00  0.00    +0.000 C 
ENDROOT
BRANCH   2   3
ATOM      3  O   UNL     1     -24.061   9.377  15.459  0.00  0.00    +0.000 OA
ATOM      4  H   UNL     1     -24.997   9.167  15.651  0.00  0.00    +0.000 HD
ENDBRANCH   2   3
BRANCH   2   6
ATOM      5  O   UNL     1     -21.535   9.175  17.866  0.00  0.00    +0.000 OA
ATOM      6  C   UNL     1     -22.632   9.430  17.407  0.00  0.00    +0.000 C 
BRANCH   6   7
ATOM      7  O   UNL     1     -23.345  10.486  17.822  0.00  0.00    +0.000 OA
ATOM      8  H   UNL     1     -24.145  10.097  18.228  0.00  0.00    +0.000 HD
ENDBRANCH   6   7
ENDBRANCH   2   6
TORSDOF 3
ENDMDL
MODEL 9
REMARK VINA RESULT:      -2.7      1.345      2.254
REMARK  Name = 971_OxalicAcid.pdbqt.pdb
REMARK  3 active torsions:
REMARK  status: ('A' for Active; 'I' for Inactive)
REMARK    1  A    between atoms: C_2  and  O_3
REMARK    2  A    between atoms: C_2  and  C_6
REMARK    3  A    between atoms: C_6  and  O_7
REMARK                            x       y       z     vdW  Elec       q    Type
REMARK                         _______ _______ _______ _____ _____    ______ ____
ROOT
ATOM      1  O   UNL     1     -15.065  19.278  23.354  0.00  0.00    +0.000 OA
ATOM      2  C   UNL     1     -15.632  19.392  22.284  0.00  0.00    +0.000 C 
ENDROOT
BRANCH   2   3
ATOM      3  O   UNL     1     -15.026  19.093  21.126  0.00  0.00    +0.000 OA
ATOM      4  H   UNL     1     -14.451  19.863  20.945  0.00  0.00    +0.000 HD
ENDBRANCH   2   3
BRANCH   2   6
ATOM      5  O   UNL     1     -17.641  20.070  21.015  0.00  0.00    +0.000 OA
ATOM      6  C   UNL     1     -17.099  19.884  22.087  0.00  0.00    +0.000 C 
BRANCH   6   7
ATOM      7  O   UNL     1     -17.735  20.093  23.248  0.00  0.00    +0.000 OA
ATOM      8  H   UNL     1     -18.452  19.427  23.258  0.00  0.00    +0.000 HD
ENDBRANCH   6   7
ENDBRANCH   2   6
TORSDOF 3
ENDMDL
