MODEL 1
REMARK VINA RESULT:      -6.1      0.000      0.000
REMARK  Name = 9852185_GambogicAcid.pdbqt.pdb
REMARK  10 active torsions:
REMARK  status: ('A' for Active; 'I' for Inactive)
REMARK    1  A    between atoms: C_8  and  C_30
REMARK    2  A    between atoms: C_20  and  C_38
REMARK    3  A    between atoms: C_21  and  O_28
REMARK    4  A    between atoms: C_25  and  C_43
REMARK    5  A    between atoms: C_31  and  C_32
REMARK    6  A    between atoms: C_32  and  C_35
REMARK    7  A    between atoms: C_35  and  O_36
REMARK    8  A    between atoms: C_39  and  C_40
REMARK    9  A    between atoms: C_43  and  C_44
REMARK   10  A    between atoms: C_45  and  C_46
REMARK                            x       y       z     vdW  Elec       q    Type
REMARK                         _______ _______ _______ _____ _____    ______ ____
ROOT
ATOM      1  O   UNL     1     -16.319   5.118  -4.644  0.00  0.00    +0.000 OA
ATOM      2  O   UNL     1     -15.844   7.730  -3.527  0.00  0.00    +0.000 OA
ATOM      3  O   UNL     1     -18.260   3.483  -2.739  0.00  0.00    +0.000 OA
ATOM      4  O   UNL     1     -16.384   8.304   0.514  0.00  0.00    +0.000 OA
ATOM      5  O   UNL     1     -13.889  12.029  -4.064  0.00  0.00    +0.000 OA
ATOM      6  C   UNL     1     -16.113   6.570  -2.753  0.00  0.00    +0.000 C 
ATOM      7  C   UNL     1     -14.928   5.539  -2.773  0.00  0.00    +0.000 C 
ATOM      8  C   UNL     1     -17.079   5.577  -3.515  0.00  0.00    +0.000 C 
ATOM      9  C   UNL     1     -14.944   5.054  -4.226  0.00  0.00    +0.000 C 
ATOM     10  C   UNL     1     -15.203   4.554  -1.726  0.00  0.00    +0.000 C 
ATOM     11  C   UNL     1     -16.566   4.408  -1.244  0.00  0.00    +0.000 C 
ATOM     12  C   UNL     1     -16.630   6.866  -1.335  0.00  0.00    +0.000 C 
ATOM     13  C   UNL     1     -17.441   4.363  -2.528  0.00  0.00    +0.000 C 
ATOM     14  C   UNL     1     -16.898   5.661  -0.617  0.00  0.00    +0.000 C 
ATOM     15  C   UNL     1     -14.472   3.599  -4.355  0.00  0.00    +0.000 C 
ATOM     16  C   UNL     1     -14.086   5.980  -5.103  0.00  0.00    +0.000 C 
ATOM     17  C   UNL     1     -16.230   8.113  -0.685  0.00  0.00    +0.000 C 
ATOM     18  C   UNL     1     -15.440   8.882  -2.908  0.00  0.00    +0.000 A 
ATOM     19  C   UNL     1     -15.599   9.129  -1.537  0.00  0.00    +0.000 A 
ATOM     20  C   UNL     1     -14.875   9.871  -3.742  0.00  0.00    +0.000 A 
ATOM     21  C   UNL     1     -15.172  10.346  -0.979  0.00  0.00    +0.000 A 
ATOM     22  C   UNL     1     -14.451  11.088  -3.197  0.00  0.00    +0.000 A 
ATOM     23  C   UNL     1     -14.603  11.310  -1.805  0.00  0.00    +0.000 A 
ATOM     24  C   UNL     1     -14.143  12.580  -1.377  0.00  0.00    +0.000 C 
ATOM     25  C   UNL     1     -13.489  13.366  -3.563  0.00  0.00    +0.000 C 
ATOM     26  C   UNL     1     -13.696  13.403  -2.115  0.00  0.00    +0.000 C 
ATOM     27  C   UNL     1     -14.371  14.401  -4.305  0.00  0.00    +0.000 C 
ENDROOT
BRANCH  21  28
ATOM     28  O   UNL     1     -15.292  10.632   0.355  0.00  0.00    +0.000 OA
ATOM     29  H   UNL     1     -15.656  11.538   0.471  0.00  0.00    +0.000 HD
ENDBRANCH  21  28
BRANCH   8  30
ATOM     30  C   UNL     1     -18.303   6.239  -3.988  0.00  0.00    +0.000 C 
ATOM     31  C   UNL     1     -19.601   6.930  -4.431  0.00  0.00    +0.000 C 
BRANCH  31  32
ATOM     32  C   UNL     1     -20.729   7.494  -4.762  0.00  0.00    +0.000 C 
ATOM     33  C   UNL     1     -21.601   6.675  -5.695  0.00  0.00    +0.000 C 
BRANCH  32  35
ATOM     34  O   UNL     1     -20.322   9.778  -4.092  0.00  0.00    +0.000 OA
ATOM     35  C   UNL     1     -21.086   8.833  -4.220  0.00  0.00    +0.000 C 
BRANCH  35  36
ATOM     36  O   UNL     1     -22.381   8.957  -3.857  0.00  0.00    +0.000 OA
ATOM     37  H   UNL     1     -22.607   9.895  -4.031  0.00  0.00    +0.000 HD
ENDBRANCH  35  36
ENDBRANCH  32  35
ENDBRANCH  31  32
ENDBRANCH   8  30
BRANCH  20  38
ATOM     38  C   UNL     1     -14.731   9.625  -5.148  0.00  0.00    +0.000 C 
ATOM     39  C   UNL     1     -14.549   9.376  -6.652  0.00  0.00    +0.000 C 
BRANCH  39  40
ATOM     40  C   UNL     1     -14.375   9.170  -7.921  0.00  0.00    +0.000 C 
ATOM     41  C   UNL     1     -13.576   7.984  -8.370  0.00  0.00    +0.000 C 
ATOM     42  C   UNL     1     -15.166   9.961  -8.917  0.00  0.00    +0.000 C 
ENDBRANCH  39  40
ENDBRANCH  20  38
BRANCH  25  43
ATOM     43  C   UNL     1     -12.068  13.549  -3.915  0.00  0.00    +0.000 C 
BRANCH  43  44
ATOM     44  C   UNL     1     -10.593  13.745  -4.285  0.00  0.00    +0.000 C 
ATOM     45  C   UNL     1      -9.115  13.939  -4.656  0.00  0.00    +0.000 C 
BRANCH  45  46
ATOM     46  C   UNL     1      -7.866  14.103  -4.961  0.00  0.00    +0.000 C 
ATOM     47  C   UNL     1      -7.268  15.475  -4.916  0.00  0.00    +0.000 C 
ATOM     48  C   UNL     1      -7.077  12.963  -5.526  0.00  0.00    +0.000 C 
ENDBRANCH  45  46
ENDBRANCH  43  44
ENDBRANCH  25  43
TORSDOF 10
ENDMDL
MODEL 2
REMARK VINA RESULT:      -5.7     21.921     25.483
REMARK  Name = 9852185_GambogicAcid.pdbqt.pdb
REMARK  10 active torsions:
REMARK  status: ('A' for Active; 'I' for Inactive)
REMARK    1  A    between atoms: C_8  and  C_30
REMARK    2  A    between atoms: C_20  and  C_38
REMARK    3  A    between atoms: C_21  and  O_28
REMARK    4  A    between atoms: C_25  and  C_43
REMARK    5  A    between atoms: C_31  and  C_32
REMARK    6  A    between atoms: C_32  and  C_35
REMARK    7  A    between atoms: C_35  and  O_36
REMARK    8  A    between atoms: C_39  and  C_40
REMARK    9  A    between atoms: C_43  and  C_44
REMARK   10  A    between atoms: C_45  and  C_46
REMARK                            x       y       z     vdW  Elec       q    Type
REMARK                         _______ _______ _______ _____ _____    ______ ____
ROOT
ATOM      1  O   UNL     1      -0.899   7.360  19.131  0.00  0.00    +0.000 OA
ATOM      2  O   UNL     1      -3.217   6.596  17.603  0.00  0.00    +0.000 OA
ATOM      3  O   UNL     1       1.731   6.480  17.586  0.00  0.00    +0.000 OA
ATOM      4  O   UNL     1      -2.882   3.552  14.850  0.00  0.00    +0.000 OA
ATOM      5  O   UNL     1      -7.945   6.742  17.140  0.00  0.00    +0.000 OA
ATOM      6  C   UNL     1      -1.983   5.892  17.583  0.00  0.00    +0.000 C 
ATOM      7  C   UNL     1      -1.693   5.137  18.929  0.00  0.00    +0.000 C 
ATOM      8  C   UNL     1      -0.757   6.870  17.788  0.00  0.00    +0.000 C 
ATOM      9  C   UNL     1      -1.471   6.295  19.909  0.00  0.00    +0.000 C 
ATOM     10  C   UNL     1      -0.568   4.235  18.678  0.00  0.00    +0.000 C 
ATOM     11  C   UNL     1       0.302   4.501  17.545  0.00  0.00    +0.000 C 
ATOM     12  C   UNL     1      -1.784   5.007  16.341  0.00  0.00    +0.000 C 
ATOM     13  C   UNL     1       0.599   6.025  17.620  0.00  0.00    +0.000 C 
ATOM     14  C   UNL     1      -0.519   4.344  16.372  0.00  0.00    +0.000 C 
ATOM     15  C   UNL     1      -0.478   5.927  21.021  0.00  0.00    +0.000 C 
ATOM     16  C   UNL     1      -2.811   6.745  20.510  0.00  0.00    +0.000 C 
ATOM     17  C   UNL     1      -2.961   4.455  15.672  0.00  0.00    +0.000 C 
ATOM     18  C   UNL     1      -4.319   6.052  16.999  0.00  0.00    +0.000 A 
ATOM     19  C   UNL     1      -4.263   5.015  16.057  0.00  0.00    +0.000 A 
ATOM     20  C   UNL     1      -5.562   6.627  17.342  0.00  0.00    +0.000 A 
ATOM     21  C   UNL     1      -5.440   4.522  15.470  0.00  0.00    +0.000 A 
ATOM     22  C   UNL     1      -6.740   6.146  16.759  0.00  0.00    +0.000 A 
ATOM     23  C   UNL     1      -6.663   5.085  15.823  0.00  0.00    +0.000 A 
ATOM     24  C   UNL     1      -7.920   4.692  15.300  0.00  0.00    +0.000 C 
ATOM     25  C   UNL     1      -9.220   6.331  16.505  0.00  0.00    +0.000 C 
ATOM     26  C   UNL     1      -8.949   5.220  15.591  0.00  0.00    +0.000 C 
ATOM     27  C   UNL     1      -9.770   7.574  15.763  0.00  0.00    +0.000 C 
ENDROOT
BRANCH  21  28
ATOM     28  O   UNL     1      -5.441   3.503  14.554  0.00  0.00    +0.000 OA
ATOM     29  H   UNL     1      -6.283   3.511  14.046  0.00  0.00    +0.000 HD
ENDBRANCH  21  28
BRANCH   8  30
ATOM     30  C   UNL     1      -0.779   8.001  16.851  0.00  0.00    +0.000 C 
ATOM     31  C   UNL     1      -0.799   9.218  15.913  0.00  0.00    +0.000 C 
BRANCH  31  32
ATOM     32  C   UNL     1      -0.836  10.282  15.161  0.00  0.00    +0.000 C 
ATOM     33  C   UNL     1      -1.716  11.402  15.684  0.00  0.00    +0.000 C 
BRANCH  32  35
ATOM     34  O   UNL     1      -0.008  11.282  13.126  0.00  0.00    +0.000 OA
ATOM     35  C   UNL     1      -0.040  10.342  13.905  0.00  0.00    +0.000 C 
BRANCH  35  36
ATOM     36  O   UNL     1       0.690   9.234  13.658  0.00  0.00    +0.000 OA
ATOM     37  H   UNL     1       0.139   8.487  13.973  0.00  0.00    +0.000 HD
ENDBRANCH  35  36
ENDBRANCH  32  35
ENDBRANCH  31  32
ENDBRANCH   8  30
BRANCH  20  38
ATOM     38  C   UNL     1      -5.617   7.701  18.291  0.00  0.00    +0.000 C 
ATOM     39  C   UNL     1      -5.701   8.862  19.292  0.00  0.00    +0.000 C 
BRANCH  39  40
ATOM     40  C   UNL     1      -5.791   9.848  20.129  0.00  0.00    +0.000 C 
ATOM     41  C   UNL     1      -4.606  10.202  20.977  0.00  0.00    +0.000 C 
ATOM     42  C   UNL     1      -6.971  10.769  20.070  0.00  0.00    +0.000 C 
ENDBRANCH  39  40
ENDBRANCH  20  38
BRANCH  25  43
ATOM     43  C   UNL     1     -10.132   5.931  17.592  0.00  0.00    +0.000 C 
BRANCH  43  44
ATOM     44  C   UNL     1     -11.080   5.507  18.722  0.00  0.00    +0.000 C 
ATOM     45  C   UNL     1     -12.028   5.084  19.853  0.00  0.00    +0.000 C 
BRANCH  45  46
ATOM     46  C   UNL     1     -12.822   4.725  20.813  0.00  0.00    +0.000 C 
ATOM     47  C   UNL     1     -13.800   3.613  20.586  0.00  0.00    +0.000 C 
ATOM     48  C   UNL     1     -12.886   5.530  22.073  0.00  0.00    +0.000 C 
ENDBRANCH  45  46
ENDBRANCH  43  44
ENDBRANCH  25  43
TORSDOF 10
ENDMDL
MODEL 3
REMARK VINA RESULT:      -5.4     22.716     25.714
REMARK  Name = 9852185_GambogicAcid.pdbqt.pdb
REMARK  10 active torsions:
REMARK  status: ('A' for Active; 'I' for Inactive)
REMARK    1  A    between atoms: C_8  and  C_30
REMARK    2  A    between atoms: C_20  and  C_38
REMARK    3  A    between atoms: C_21  and  O_28
REMARK    4  A    between atoms: C_25  and  C_43
REMARK    5  A    between atoms: C_31  and  C_32
REMARK    6  A    between atoms: C_32  and  C_35
REMARK    7  A    between atoms: C_35  and  O_36
REMARK    8  A    between atoms: C_39  and  C_40
REMARK    9  A    between atoms: C_43  and  C_44
REMARK   10  A    between atoms: C_45  and  C_46
REMARK                            x       y       z     vdW  Elec       q    Type
REMARK                         _______ _______ _______ _____ _____    ______ ____
ROOT
ATOM      1  O   UNL     1      -8.680   5.161  23.920  0.00  0.00    +0.000 OA
ATOM      2  O   UNL     1      -8.726   4.922  21.050  0.00  0.00    +0.000 OA
ATOM      3  O   UNL     1     -11.576   5.922  24.971  0.00  0.00    +0.000 OA
ATOM      4  O   UNL     1     -11.686   6.848  18.932  0.00  0.00    +0.000 OA
ATOM      5  O   UNL     1      -6.380   3.770  17.080  0.00  0.00    +0.000 OA
ATOM      6  C   UNL     1      -9.575   5.788  21.791  0.00  0.00    +0.000 C 
ATOM      7  C   UNL     1      -8.800   6.997  22.427  0.00  0.00    +0.000 C 
ATOM      8  C   UNL     1      -9.927   5.180  23.207  0.00  0.00    +0.000 C 
ATOM      9  C   UNL     1      -7.928   6.305  23.480  0.00  0.00    +0.000 C 
ATOM     10  C   UNL     1      -9.809   7.947  22.900  0.00  0.00    +0.000 C 
ATOM     11  C   UNL     1     -11.162   7.473  23.132  0.00  0.00    +0.000 C 
ATOM     12  C   UNL     1     -10.847   6.216  21.040  0.00  0.00    +0.000 C 
ATOM     13  C   UNL     1     -10.990   6.147  23.925  0.00  0.00    +0.000 C 
ATOM     14  C   UNL     1     -11.664   7.068  21.844  0.00  0.00    +0.000 C 
ATOM     15  C   UNL     1      -7.670   7.205  24.698  0.00  0.00    +0.000 C 
ATOM     16  C   UNL     1      -6.600   5.852  22.853  0.00  0.00    +0.000 C 
ATOM     17  C   UNL     1     -10.815   6.283  19.580  0.00  0.00    +0.000 C 
ATOM     18  C   UNL     1      -8.684   5.017  19.685  0.00  0.00    +0.000 A 
ATOM     19  C   UNL     1      -9.663   5.661  18.915  0.00  0.00    +0.000 A 
ATOM     20  C   UNL     1      -7.595   4.379  19.051  0.00  0.00    +0.000 A 
ATOM     21  C   UNL     1      -9.555   5.702  17.515  0.00  0.00    +0.000 A 
ATOM     22  C   UNL     1      -7.481   4.409  17.657  0.00  0.00    +0.000 A 
ATOM     23  C   UNL     1      -8.472   5.081  16.898  0.00  0.00    +0.000 A 
ATOM     24  C   UNL     1      -8.248   5.036  15.500  0.00  0.00    +0.000 C 
ATOM     25  C   UNL     1      -6.240   3.701  15.606  0.00  0.00    +0.000 C 
ATOM     26  C   UNL     1      -7.332   4.462  14.997  0.00  0.00    +0.000 C 
ATOM     27  C   UNL     1      -6.292   2.201  15.224  0.00  0.00    +0.000 C 
ENDROOT
BRANCH  21  28
ATOM     28  O   UNL     1     -10.476   6.328  16.718  0.00  0.00    +0.000 OA
ATOM     29  H   UNL     1     -11.384   6.048  16.974  0.00  0.00    +0.000 HD
ENDBRANCH  21  28
BRANCH   8  30
ATOM     30  C   UNL     1     -10.456   3.812  23.114  0.00  0.00    +0.000 C 
ATOM     31  C   UNL     1     -11.042   2.398  22.976  0.00  0.00    +0.000 C 
BRANCH  31  32
ATOM     32  C   UNL     1     -11.588   1.223  22.839  0.00  0.00    +0.000 C 
ATOM     33  C   UNL     1     -10.633   0.055  23.005  0.00  0.00    +0.000 C 
BRANCH  32  35
ATOM     34  O   UNL     1     -13.704   0.075  22.657  0.00  0.00    +0.000 OA
ATOM     35  C   UNL     1     -13.043   1.098  22.559  0.00  0.00    +0.000 C 
BRANCH  35  36
ATOM     36  O   UNL     1     -13.634   2.247  22.167  0.00  0.00    +0.000 OA
ATOM     37  H   UNL     1     -13.545   2.855  22.931  0.00  0.00    +0.000 HD
ENDBRANCH  35  36
ENDBRANCH  32  35
ENDBRANCH  31  32
ENDBRANCH   8  30
BRANCH  20  38
ATOM     38  C   UNL     1      -6.605   3.703  19.838  0.00  0.00    +0.000 C 
ATOM     39  C   UNL     1      -5.533   3.007  20.690  0.00  0.00    +0.000 C 
BRANCH  39  40
ATOM     40  C   UNL     1      -4.624   2.438  21.419  0.00  0.00    +0.000 C 
ATOM     41  C   UNL     1      -3.725   3.286  22.267  0.00  0.00    +0.000 C 
ATOM     42  C   UNL     1      -4.639   0.951  21.598  0.00  0.00    +0.000 C 
ENDBRANCH  39  40
ENDBRANCH  20  38
BRANCH  25  43
ATOM     43  C   UNL     1      -4.923   4.276  15.272  0.00  0.00    +0.000 C 
BRANCH  43  44
ATOM     44  C   UNL     1      -3.554   4.870  14.918  0.00  0.00    +0.000 C 
ATOM     45  C   UNL     1      -2.182   5.462  14.564  0.00  0.00    +0.000 C 
BRANCH  45  46
ATOM     46  C   UNL     1      -1.022   5.962  14.273  0.00  0.00    +0.000 C 
ATOM     47  C   UNL     1      -0.507   5.867  12.870  0.00  0.00    +0.000 C 
ATOM     48  C   UNL     1      -0.130   6.469  15.363  0.00  0.00    +0.000 C 
ENDBRANCH  45  46
ENDBRANCH  43  44
ENDBRANCH  25  43
TORSDOF 10
ENDMDL
MODEL 4
REMARK VINA RESULT:      -5.4      3.761      7.168
REMARK  Name = 9852185_GambogicAcid.pdbqt.pdb
REMARK  10 active torsions:
REMARK  status: ('A' for Active; 'I' for Inactive)
REMARK    1  A    between atoms: C_8  and  C_30
REMARK    2  A    between atoms: C_20  and  C_38
REMARK    3  A    between atoms: C_21  and  O_28
REMARK    4  A    between atoms: C_25  and  C_43
REMARK    5  A    between atoms: C_31  and  C_32
REMARK    6  A    between atoms: C_32  and  C_35
REMARK    7  A    between atoms: C_35  and  O_36
REMARK    8  A    between atoms: C_39  and  C_40
REMARK    9  A    between atoms: C_43  and  C_44
REMARK   10  A    between atoms: C_45  and  C_46
REMARK                            x       y       z     vdW  Elec       q    Type
REMARK                         _______ _______ _______ _____ _____    ______ ____
ROOT
ATOM      1  O   UNL     1     -17.462   6.668  -4.114  0.00  0.00    +0.000 OA
ATOM      2  O   UNL     1     -14.766   5.666  -3.978  0.00  0.00    +0.000 OA
ATOM      3  O   UNL     1     -18.925   6.167  -1.342  0.00  0.00    +0.000 OA
ATOM      4  O   UNL     1     -13.849   2.769  -1.200  0.00  0.00    +0.000 OA
ATOM      5  O   UNL     1     -10.532   5.237  -6.095  0.00  0.00    +0.000 OA
ATOM      6  C   UNL     1     -15.855   5.123  -3.246  0.00  0.00    +0.000 C 
ATOM      7  C   UNL     1     -16.886   4.371  -4.162  0.00  0.00    +0.000 C 
ATOM      8  C   UNL     1     -16.907   6.238  -2.861  0.00  0.00    +0.000 C 
ATOM      9  C   UNL     1     -17.493   5.518  -4.977  0.00  0.00    +0.000 C 
ATOM     10  C   UNL     1     -17.778   3.623  -3.274  0.00  0.00    +0.000 C 
ATOM     11  C   UNL     1     -17.880   4.028  -1.882  0.00  0.00    +0.000 C 
ATOM     12  C   UNL     1     -15.438   4.305  -2.012  0.00  0.00    +0.000 C 
ATOM     13  C   UNL     1     -18.032   5.575  -1.927  0.00  0.00    +0.000 C 
ATOM     14  C   UNL     1     -16.577   3.804  -1.311  0.00  0.00    +0.000 C 
ATOM     15  C   UNL     1     -18.955   5.245  -5.358  0.00  0.00    +0.000 C 
ATOM     16  C   UNL     1     -16.648   5.781  -6.233  0.00  0.00    +0.000 C 
ATOM     17  C   UNL     1     -14.141   3.631  -2.018  0.00  0.00    +0.000 C 
ATOM     18  C   UNL     1     -13.566   5.007  -4.000  0.00  0.00    +0.000 A 
ATOM     19  C   UNL     1     -13.202   4.013  -3.081  0.00  0.00    +0.000 A 
ATOM     20  C   UNL     1     -12.653   5.413  -4.998  0.00  0.00    +0.000 A 
ATOM     21  C   UNL     1     -11.944   3.395  -3.161  0.00  0.00    +0.000 A 
ATOM     22  C   UNL     1     -11.395   4.807  -5.084  0.00  0.00    +0.000 A 
ATOM     23  C   UNL     1     -11.054   3.790  -4.156  0.00  0.00    +0.000 A 
ATOM     24  C   UNL     1      -9.754   3.260  -4.343  0.00  0.00    +0.000 C 
ATOM     25  C   UNL     1      -9.159   4.689  -6.194  0.00  0.00    +0.000 C 
ATOM     26  C   UNL     1      -8.997   3.647  -5.179  0.00  0.00    +0.000 C 
ATOM     27  C   UNL     1      -8.188   5.875  -5.970  0.00  0.00    +0.000 C 
ENDROOT
BRANCH  21  28
ATOM     28  O   UNL     1     -11.545   2.410  -2.296  0.00  0.00    +0.000 OA
ATOM     29  H   UNL     1     -11.153   2.814  -1.489  0.00  0.00    +0.000 HD
ENDBRANCH  21  28
BRANCH   8  30
ATOM     30  C   UNL     1     -16.286   7.385  -2.184  0.00  0.00    +0.000 C 
ATOM     31  C   UNL     1     -15.686   8.605  -1.468  0.00  0.00    +0.000 C 
BRANCH  31  32
ATOM     32  C   UNL     1     -15.223   9.670  -0.876  0.00  0.00    +0.000 C 
ATOM     33  C   UNL     1     -15.071   9.547   0.629  0.00  0.00    +0.000 C 
BRANCH  32  35
ATOM     34  O   UNL     1     -14.679  10.907  -2.877  0.00  0.00    +0.000 OA
ATOM     35  C   UNL     1     -14.870  10.877  -1.671  0.00  0.00    +0.000 C 
BRANCH  35  36
ATOM     36  O   UNL     1     -14.768  12.010  -0.943  0.00  0.00    +0.000 OA
ATOM     37  H   UNL     1     -15.582  12.039  -0.398  0.00  0.00    +0.000 HD
ENDBRANCH  35  36
ENDBRANCH  32  35
ENDBRANCH  31  32
ENDBRANCH   8  30
BRANCH  20  38
ATOM     38  C   UNL     1     -13.018   6.444  -5.926  0.00  0.00    +0.000 C 
ATOM     39  C   UNL     1     -13.396   7.531  -6.943  0.00  0.00    +0.000 C 
BRANCH  39  40
ATOM     40  C   UNL     1     -13.710   8.435  -7.818  0.00  0.00    +0.000 C 
ATOM     41  C   UNL     1     -14.837   8.175  -8.771  0.00  0.00    +0.000 C 
ATOM     42  C   UNL     1     -13.122   9.809  -7.711  0.00  0.00    +0.000 C 
ENDBRANCH  39  40
ENDBRANCH  20  38
BRANCH  25  43
ATOM     43  C   UNL     1      -9.009   4.147  -7.558  0.00  0.00    +0.000 C 
BRANCH  43  44
ATOM     44  C   UNL     1      -8.860   3.578  -8.975  0.00  0.00    +0.000 C 
ATOM     45  C   UNL     1      -8.709   3.006 -10.392  0.00  0.00    +0.000 C 
BRANCH  45  46
ATOM     46  C   UNL     1      -8.575   2.523 -11.587  0.00  0.00    +0.000 C 
ATOM     47  C   UNL     1      -8.184   3.432 -12.712  0.00  0.00    +0.000 C 
ATOM     48  C   UNL     1      -8.980   1.111 -11.874  0.00  0.00    +0.000 C 
ENDBRANCH  45  46
ENDBRANCH  43  44
ENDBRANCH  25  43
TORSDOF 10
ENDMDL
MODEL 5
REMARK VINA RESULT:      -5.2      5.788      9.820
REMARK  Name = 9852185_GambogicAcid.pdbqt.pdb
REMARK  10 active torsions:
REMARK  status: ('A' for Active; 'I' for Inactive)
REMARK    1  A    between atoms: C_8  and  C_30
REMARK    2  A    between atoms: C_20  and  C_38
REMARK    3  A    between atoms: C_21  and  O_28
REMARK    4  A    between atoms: C_25  and  C_43
REMARK    5  A    between atoms: C_31  and  C_32
REMARK    6  A    between atoms: C_32  and  C_35
REMARK    7  A    between atoms: C_35  and  O_36
REMARK    8  A    between atoms: C_39  and  C_40
REMARK    9  A    between atoms: C_43  and  C_44
REMARK   10  A    between atoms: C_45  and  C_46
REMARK                            x       y       z     vdW  Elec       q    Type
REMARK                         _______ _______ _______ _____ _____    ______ ____
ROOT
ATOM      1  O   UNL     1      -9.962  -0.841  -0.502  0.00  0.00    +0.000 OA
ATOM      2  O   UNL     1     -12.410   0.392  -1.387  0.00  0.00    +0.000 OA
ATOM      3  O   UNL     1     -10.556  -3.798   0.487  0.00  0.00    +0.000 OA
ATOM      4  O   UNL     1     -15.998  -1.058   0.017  0.00  0.00    +0.000 OA
ATOM      5  O   UNL     1     -14.508   4.141  -3.418  0.00  0.00    +0.000 OA
ATOM      6  C   UNL     1     -12.339  -0.600  -0.372  0.00  0.00    +0.000 C 
ATOM      7  C   UNL     1     -11.671  -0.072   0.948  0.00  0.00    +0.000 C 
ATOM      8  C   UNL     1     -11.161  -1.619  -0.642  0.00  0.00    +0.000 C 
ATOM      9  C   UNL     1     -10.219   0.148   0.510  0.00  0.00    +0.000 C 
ATOM     10  C   UNL     1     -11.923  -1.075   1.983  0.00  0.00    +0.000 C 
ATOM     11  C   UNL     1     -12.259  -2.429   1.578  0.00  0.00    +0.000 C 
ATOM     12  C   UNL     1     -13.665  -1.339  -0.123  0.00  0.00    +0.000 C 
ATOM     13  C   UNL     1     -11.230  -2.780   0.466  0.00  0.00    +0.000 C 
ATOM     14  C   UNL     1     -13.522  -2.334   0.893  0.00  0.00    +0.000 C 
ATOM     15  C   UNL     1      -9.228  -0.078   1.662  0.00  0.00    +0.000 C 
ATOM     16  C   UNL     1     -10.050   1.557  -0.078  0.00  0.00    +0.000 C 
ATOM     17  C   UNL     1     -14.922  -0.642  -0.389  0.00  0.00    +0.000 C 
ATOM     18  C   UNL     1     -13.585   1.059  -1.604  0.00  0.00    +0.000 A 
ATOM     19  C   UNL     1     -14.834   0.611  -1.150  0.00  0.00    +0.000 A 
ATOM     20  C   UNL     1     -13.497   2.239  -2.374  0.00  0.00    +0.000 A 
ATOM     21  C   UNL     1     -15.999   1.345  -1.429  0.00  0.00    +0.000 A 
ATOM     22  C   UNL     1     -14.651   2.975  -2.662  0.00  0.00    +0.000 A 
ATOM     23  C   UNL     1     -15.901   2.516  -2.176  0.00  0.00    +0.000 A 
ATOM     24  C   UNL     1     -16.993   3.342  -2.539  0.00  0.00    +0.000 C 
ATOM     25  C   UNL     1     -15.700   4.926  -3.821  0.00  0.00    +0.000 C 
ATOM     26  C   UNL     1     -16.886   4.318  -3.215  0.00  0.00    +0.000 C 
ATOM     27  C   UNL     1     -15.754   4.890  -5.369  0.00  0.00    +0.000 C 
ENDROOT
BRANCH  21  28
ATOM     28  O   UNL     1     -17.239   0.959  -0.997  0.00  0.00    +0.000 OA
ATOM     29  H   UNL     1     -17.311   1.091  -0.025  0.00  0.00    +0.000 HD
ENDBRANCH  21  28
BRANCH   8  30
ATOM     30  C   UNL     1     -11.215  -2.194  -1.993  0.00  0.00    +0.000 C 
ATOM     31  C   UNL     1     -11.218  -2.782  -3.413  0.00  0.00    +0.000 C 
BRANCH  31  32
ATOM     32  C   UNL     1     -11.178  -3.246  -4.630  0.00  0.00    +0.000 C 
ATOM     33  C   UNL     1     -11.237  -4.758  -4.737  0.00  0.00    +0.000 C 
BRANCH  32  35
ATOM     34  O   UNL     1     -11.254  -1.102  -5.740  0.00  0.00    +0.000 OA
ATOM     35  C   UNL     1     -11.098  -2.314  -5.787  0.00  0.00    +0.000 C 
BRANCH  35  36
ATOM     36  O   UNL     1     -10.825  -2.913  -6.965  0.00  0.00    +0.000 OA
ATOM     37  H   UNL     1     -10.738  -3.867  -6.754  0.00  0.00    +0.000 HD
ENDBRANCH  35  36
ENDBRANCH  32  35
ENDBRANCH  31  32
ENDBRANCH   8  30
BRANCH  20  38
ATOM     38  C   UNL     1     -12.222   2.686  -2.856  0.00  0.00    +0.000 C 
ATOM     39  C   UNL     1     -10.868   3.164  -3.402  0.00  0.00    +0.000 C 
BRANCH  39  40
ATOM     40  C   UNL     1      -9.734   3.571  -3.881  0.00  0.00    +0.000 C 
ATOM     41  C   UNL     1      -8.696   2.562  -4.271  0.00  0.00    +0.000 C 
ATOM     42  C   UNL     1      -9.564   5.008  -4.269  0.00  0.00    +0.000 C 
ENDBRANCH  39  40
ENDBRANCH  20  38
BRANCH  25  43
ATOM     43  C   UNL     1     -15.489   6.305  -3.341  0.00  0.00    +0.000 C 
BRANCH  43  44
ATOM     44  C   UNL     1     -15.278   7.740  -2.842  0.00  0.00    +0.000 C 
ATOM     45  C   UNL     1     -15.066   9.176  -2.341  0.00  0.00    +0.000 C 
BRANCH  45  46
ATOM     46  C   UNL     1     -14.894  10.387  -1.914  0.00  0.00    +0.000 C 
ATOM     47  C   UNL     1     -15.150  10.706  -0.473  0.00  0.00    +0.000 C 
ATOM     48  C   UNL     1     -14.616  11.492  -2.885  0.00  0.00    +0.000 C 
ENDBRANCH  45  46
ENDBRANCH  43  44
ENDBRANCH  25  43
TORSDOF 10
ENDMDL
MODEL 6
REMARK VINA RESULT:      -5.2      6.073     10.072
REMARK  Name = 9852185_GambogicAcid.pdbqt.pdb
REMARK  10 active torsions:
REMARK  status: ('A' for Active; 'I' for Inactive)
REMARK    1  A    between atoms: C_8  and  C_30
REMARK    2  A    between atoms: C_20  and  C_38
REMARK    3  A    between atoms: C_21  and  O_28
REMARK    4  A    between atoms: C_25  and  C_43
REMARK    5  A    between atoms: C_31  and  C_32
REMARK    6  A    between atoms: C_32  and  C_35
REMARK    7  A    between atoms: C_35  and  O_36
REMARK    8  A    between atoms: C_39  and  C_40
REMARK    9  A    between atoms: C_43  and  C_44
REMARK   10  A    between atoms: C_45  and  C_46
REMARK                            x       y       z     vdW  Elec       q    Type
REMARK                         _______ _______ _______ _____ _____    ______ ____
ROOT
ATOM      1  O   UNL     1      -7.092   3.958  -7.130  0.00  0.00    +0.000 OA
ATOM      2  O   UNL     1      -9.339   3.326  -5.443  0.00  0.00    +0.000 OA
ATOM      3  O   UNL     1      -5.189   1.428  -7.361  0.00  0.00    +0.000 OA
ATOM      4  O   UNL     1      -8.997   0.249  -2.729  0.00  0.00    +0.000 OA
ATOM      5  O   UNL     1     -13.510   4.707  -3.631  0.00  0.00    +0.000 OA
ATOM      6  C   UNL     1      -8.051   2.743  -5.306  0.00  0.00    +0.000 C 
ATOM      7  C   UNL     1      -6.978   3.759  -4.772  0.00  0.00    +0.000 C 
ATOM      8  C   UNL     1      -7.325   2.606  -6.704  0.00  0.00    +0.000 C 
ATOM      9  C   UNL     1      -6.844   4.735  -5.946  0.00  0.00    +0.000 C 
ATOM     10  C   UNL     1      -5.798   2.976  -4.403  0.00  0.00    +0.000 C 
ATOM     11  C   UNL     1      -5.633   1.649  -4.970  0.00  0.00    +0.000 C 
ATOM     12  C   UNL     1      -8.044   1.405  -4.546  0.00  0.00    +0.000 C 
ATOM     13  C   UNL     1      -5.942   1.821  -6.484  0.00  0.00    +0.000 C 
ATOM     14  C   UNL     1      -6.726   0.863  -4.459  0.00  0.00    +0.000 C 
ATOM     15  C   UNL     1      -5.431   5.326  -6.047  0.00  0.00    +0.000 C 
ATOM     16  C   UNL     1      -7.890   5.855  -5.825  0.00  0.00    +0.000 C 
ATOM     17  C   UNL     1      -9.079   1.159  -3.542  0.00  0.00    +0.000 C 
ATOM     18  C   UNL     1     -10.288   3.112  -4.480  0.00  0.00    +0.000 A 
ATOM     19  C   UNL     1     -10.221   2.082  -3.532  0.00  0.00    +0.000 A 
ATOM     20  C   UNL     1     -11.404   3.977  -4.505  0.00  0.00    +0.000 A 
ATOM     21  C   UNL     1     -11.246   1.919  -2.584  0.00  0.00    +0.000 A 
ATOM     22  C   UNL     1     -12.432   3.819  -3.570  0.00  0.00    +0.000 A 
ATOM     23  C   UNL     1     -12.336   2.783  -2.607  0.00  0.00    +0.000 A 
ATOM     24  C   UNL     1     -13.440   2.724  -1.721  0.00  0.00    +0.000 C 
ATOM     25  C   UNL     1     -14.666   4.548  -2.717  0.00  0.00    +0.000 C 
ATOM     26  C   UNL     1     -14.381   3.452  -1.789  0.00  0.00    +0.000 C 
ATOM     27  C   UNL     1     -15.900   4.253  -3.606  0.00  0.00    +0.000 C 
ENDROOT
BRANCH  21  28
ATOM     28  O   UNL     1     -11.223   0.937  -1.630  0.00  0.00    +0.000 OA
ATOM     29  H   UNL     1     -10.679   0.179  -1.943  0.00  0.00    +0.000 HD
ENDBRANCH  21  28
BRANCH   8  30
ATOM     30  C   UNL     1      -8.156   1.917  -7.701  0.00  0.00    +0.000 C 
ATOM     31  C   UNL     1      -9.028   1.154  -8.711  0.00  0.00    +0.000 C 
BRANCH  31  32
ATOM     32  C   UNL     1      -9.749   0.458  -9.543  0.00  0.00    +0.000 C 
ATOM     33  C   UNL     1      -8.988  -0.103 -10.731  0.00  0.00    +0.000 C 
BRANCH  32  35
ATOM     34  O   UNL     1     -11.744  -0.832  -9.113  0.00  0.00    +0.000 OA
ATOM     35  C   UNL     1     -11.199   0.248  -9.288  0.00  0.00    +0.000 C 
BRANCH  35  36
ATOM     36  O   UNL     1     -11.927   1.384  -9.255  0.00  0.00    +0.000 OA
ATOM     37  H   UNL     1     -11.276   2.110  -9.355  0.00  0.00    +0.000 HD
ENDBRANCH  35  36
ENDBRANCH  32  35
ENDBRANCH  31  32
ENDBRANCH   8  30
BRANCH  20  38
ATOM     38  C   UNL     1     -11.481   5.018  -5.488  0.00  0.00    +0.000 C 
ATOM     39  C   UNL     1     -11.583   6.149  -6.522  0.00  0.00    +0.000 C 
BRANCH  39  40
ATOM     40  C   UNL     1     -11.679   7.117  -7.380  0.00  0.00    +0.000 C 
ATOM     41  C   UNL     1     -12.729   8.169  -7.189  0.00  0.00    +0.000 C 
ATOM     42  C   UNL     1     -10.601   7.312  -8.402  0.00  0.00    +0.000 C 
ENDBRANCH  39  40
ENDBRANCH  20  38
BRANCH  25  43
ATOM     43  C   UNL     1     -14.833   5.831  -2.008  0.00  0.00    +0.000 C 
BRANCH  43  44
ATOM     44  C   UNL     1     -15.010   7.162  -1.266  0.00  0.00    +0.000 C 
ATOM     45  C   UNL     1     -15.187   8.493  -0.520  0.00  0.00    +0.000 C 
BRANCH  45  46
ATOM     46  C   UNL     1     -15.341   9.613   0.113  0.00  0.00    +0.000 C 
ATOM     47  C   UNL     1     -15.891   9.605   1.507  0.00  0.00    +0.000 C 
ATOM     48  C   UNL     1     -15.141  10.912  -0.602  0.00  0.00    +0.000 C 
ENDBRANCH  45  46
ENDBRANCH  43  44
ENDBRANCH  25  43
TORSDOF 10
ENDMDL
MODEL 7
REMARK VINA RESULT:      -5.1      9.570     12.718
REMARK  Name = 9852185_GambogicAcid.pdbqt.pdb
REMARK  10 active torsions:
REMARK  status: ('A' for Active; 'I' for Inactive)
REMARK    1  A    between atoms: C_8  and  C_30
REMARK    2  A    between atoms: C_20  and  C_38
REMARK    3  A    between atoms: C_21  and  O_28
REMARK    4  A    between atoms: C_25  and  C_43
REMARK    5  A    between atoms: C_31  and  C_32
REMARK    6  A    between atoms: C_32  and  C_35
REMARK    7  A    between atoms: C_35  and  O_36
REMARK    8  A    between atoms: C_39  and  C_40
REMARK    9  A    between atoms: C_43  and  C_44
REMARK   10  A    between atoms: C_45  and  C_46
REMARK                            x       y       z     vdW  Elec       q    Type
REMARK                         _______ _______ _______ _____ _____    ______ ____
ROOT
ATOM      1  O   UNL     1     -10.817  -1.140  -3.083  0.00  0.00    +0.000 OA
ATOM      2  O   UNL     1      -9.618   0.081  -0.767  0.00  0.00    +0.000 OA
ATOM      3  O   UNL     1     -13.911  -0.439  -3.175  0.00  0.00    +0.000 OA
ATOM      4  O   UNL     1     -12.012   1.074   2.432  0.00  0.00    +0.000 OA
ATOM      5  O   UNL     1      -5.650   1.017   1.676  0.00  0.00    +0.000 OA
ATOM      6  C   UNL     1     -10.971  -0.346  -0.832  0.00  0.00    +0.000 C 
ATOM      7  C   UNL     1     -11.114  -1.910  -0.862  0.00  0.00    +0.000 C 
ATOM      8  C   UNL     1     -11.555  -0.195  -2.293  0.00  0.00    +0.000 C 
ATOM      9  C   UNL     1     -10.524  -2.262  -2.232  0.00  0.00    +0.000 C 
ATOM     10  C   UNL     1     -12.527  -2.213  -0.634  0.00  0.00    +0.000 C 
ATOM     11  C   UNL     1     -13.514  -1.175  -0.881  0.00  0.00    +0.000 C 
ATOM     12  C   UNL     1     -11.892   0.323   0.204  0.00  0.00    +0.000 C 
ATOM     13  C   UNL     1     -13.118  -0.567  -2.256  0.00  0.00    +0.000 C 
ATOM     14  C   UNL     1     -13.239  -0.133   0.074  0.00  0.00    +0.000 C 
ATOM     15  C   UNL     1     -11.182  -3.508  -2.841  0.00  0.00    +0.000 C 
ATOM     16  C   UNL     1      -9.004  -2.454  -2.121  0.00  0.00    +0.000 C 
ATOM     17  C   UNL     1     -11.318   0.773   1.471  0.00  0.00    +0.000 C 
ATOM     18  C   UNL     1      -9.085   0.470   0.433  0.00  0.00    +0.000 A 
ATOM     19  C   UNL     1      -9.852   0.818   1.553  0.00  0.00    +0.000 A 
ATOM     20  C   UNL     1      -7.676   0.553   0.489  0.00  0.00    +0.000 A 
ATOM     21  C   UNL     1      -9.229   1.223   2.745  0.00  0.00    +0.000 A 
ATOM     22  C   UNL     1      -7.046   0.961   1.669  0.00  0.00    +0.000 A 
ATOM     23  C   UNL     1      -7.839   1.290   2.797  0.00  0.00    +0.000 A 
ATOM     24  C   UNL     1      -7.085   1.692   3.927  0.00  0.00    +0.000 C 
ATOM     25  C   UNL     1      -4.924   1.511   2.870  0.00  0.00    +0.000 C 
ATOM     26  C   UNL     1      -5.897   1.779   3.930  0.00  0.00    +0.000 C 
ATOM     27  C   UNL     1      -4.170   2.793   2.434  0.00  0.00    +0.000 C 
ENDROOT
BRANCH  21  28
ATOM     28  O   UNL     1      -9.931   1.561   3.871  0.00  0.00    +0.000 OA
ATOM     29  H   UNL     1      -9.308   1.792   4.597  0.00  0.00    +0.000 HD
ENDBRANCH  21  28
BRANCH   8  30
ATOM     30  C   UNL     1     -11.360   1.155  -2.839  0.00  0.00    +0.000 C 
ATOM     31  C   UNL     1     -11.119   2.547  -3.443  0.00  0.00    +0.000 C 
BRANCH  31  32
ATOM     32  C   UNL     1     -10.861   3.711  -3.970  0.00  0.00    +0.000 C 
ATOM     33  C   UNL     1     -12.085   4.512  -4.375  0.00  0.00    +0.000 C 
BRANCH  32  35
ATOM     34  O   UNL     1      -9.077   5.334  -4.086  0.00  0.00    +0.000 OA
ATOM     35  C   UNL     1      -9.455   4.172  -4.121  0.00  0.00    +0.000 C 
BRANCH  35  36
ATOM     36  O   UNL     1      -8.561   3.178  -4.309  0.00  0.00    +0.000 OA
ATOM     37  H   UNL     1      -8.963   2.596  -4.987  0.00  0.00    +0.000 HD
ENDBRANCH  35  36
ENDBRANCH  32  35
ENDBRANCH  31  32
ENDBRANCH   8  30
BRANCH  20  38
ATOM     38  C   UNL     1      -6.893   0.217  -0.664  0.00  0.00    +0.000 C 
ATOM     39  C   UNL     1      -6.061  -0.117  -1.912  0.00  0.00    +0.000 C 
BRANCH  39  40
ATOM     40  C   UNL     1      -5.361  -0.378  -2.972  0.00  0.00    +0.000 C 
ATOM     41  C   UNL     1      -6.015  -1.063  -4.134  0.00  0.00    +0.000 C 
ATOM     42  C   UNL     1      -3.994   0.215  -3.125  0.00  0.00    +0.000 C 
ENDBRANCH  39  40
ENDBRANCH  20  38
BRANCH  25  43
ATOM     43  C   UNL     1      -3.970   0.456   3.261  0.00  0.00    +0.000 C 
BRANCH  43  44
ATOM     44  C   UNL     1      -2.980  -0.640   3.674  0.00  0.00    +0.000 C 
ATOM     45  C   UNL     1      -1.988  -1.737   4.088  0.00  0.00    +0.000 C 
BRANCH  45  46
ATOM     46  C   UNL     1      -1.150  -2.665   4.430  0.00  0.00    +0.000 C 
ATOM     47  C   UNL     1      -0.967  -3.859   3.544  0.00  0.00    +0.000 C 
ATOM     48  C   UNL     1      -0.505  -2.632   5.781  0.00  0.00    +0.000 C 
ENDBRANCH  45  46
ENDBRANCH  43  44
ENDBRANCH  25  43
TORSDOF 10
ENDMDL
MODEL 8
REMARK VINA RESULT:      -5.0     22.157     25.878
REMARK  Name = 9852185_GambogicAcid.pdbqt.pdb
REMARK  10 active torsions:
REMARK  status: ('A' for Active; 'I' for Inactive)
REMARK    1  A    between atoms: C_8  and  C_30
REMARK    2  A    between atoms: C_20  and  C_38
REMARK    3  A    between atoms: C_21  and  O_28
REMARK    4  A    between atoms: C_25  and  C_43
REMARK    5  A    between atoms: C_31  and  C_32
REMARK    6  A    between atoms: C_32  and  C_35
REMARK    7  A    between atoms: C_35  and  O_36
REMARK    8  A    between atoms: C_39  and  C_40
REMARK    9  A    between atoms: C_43  and  C_44
REMARK   10  A    between atoms: C_45  and  C_46
REMARK                            x       y       z     vdW  Elec       q    Type
REMARK                         _______ _______ _______ _____ _____    ______ ____
ROOT
ATOM      1  O   UNL     1      -3.920   4.964  17.807  0.00  0.00    +0.000 OA
ATOM      2  O   UNL     1      -6.717   5.339  18.382  0.00  0.00    +0.000 OA
ATOM      3  O   UNL     1      -3.390   5.474  14.720  0.00  0.00    +0.000 OA
ATOM      4  O   UNL     1      -9.451   4.980  15.324  0.00  0.00    +0.000 OA
ATOM      5  O   UNL     1     -10.144   5.560  21.668  0.00  0.00    +0.000 OA
ATOM      6  C   UNL     1      -6.214   4.887  17.132  0.00  0.00    +0.000 C 
ATOM      7  C   UNL     1      -5.625   3.433  17.205  0.00  0.00    +0.000 C 
ATOM      8  C   UNL     1      -4.799   5.519  16.817  0.00  0.00    +0.000 C 
ATOM      9  C   UNL     1      -4.383   3.631  18.081  0.00  0.00    +0.000 C 
ATOM     10  C   UNL     1      -5.419   2.988  15.826  0.00  0.00    +0.000 C 
ATOM     11  C   UNL     1      -5.326   3.987  14.775  0.00  0.00    +0.000 C 
ATOM     12  C   UNL     1      -7.185   5.086  15.956  0.00  0.00    +0.000 C 
ATOM     13  C   UNL     1      -4.362   5.070  15.338  0.00  0.00    +0.000 C 
ATOM     14  C   UNL     1      -6.613   4.631  14.728  0.00  0.00    +0.000 C 
ATOM     15  C   UNL     1      -3.258   2.650  17.717  0.00  0.00    +0.000 C 
ATOM     16  C   UNL     1      -4.755   3.498  19.566  0.00  0.00    +0.000 C 
ATOM     17  C   UNL     1      -8.622   5.083  16.219  0.00  0.00    +0.000 C 
ATOM     18  C   UNL     1      -8.063   5.301  18.627  0.00  0.00    +0.000 A 
ATOM     19  C   UNL     1      -9.037   5.180  17.625  0.00  0.00    +0.000 A 
ATOM     20  C   UNL     1      -8.454   5.439  19.977  0.00  0.00    +0.000 A 
ATOM     21  C   UNL     1     -10.402   5.165  17.956  0.00  0.00    +0.000 A 
ATOM     22  C   UNL     1      -9.811   5.431  20.317  0.00  0.00    +0.000 A 
ATOM     23  C   UNL     1     -10.779   5.287  19.291  0.00  0.00    +0.000 A 
ATOM     24  C   UNL     1     -12.115   5.300  19.761  0.00  0.00    +0.000 C 
ATOM     25  C   UNL     1     -11.564   5.634  22.087  0.00  0.00    +0.000 C 
ATOM     26  C   UNL     1     -12.410   5.447  20.907  0.00  0.00    +0.000 C 
ATOM     27  C   UNL     1     -11.766   7.027  22.734  0.00  0.00    +0.000 C 
ENDROOT
BRANCH  21  28
ATOM     28  O   UNL     1     -11.391   5.035  17.018  0.00  0.00    +0.000 OA
ATOM     29  H   UNL     1     -12.221   4.729  17.448  0.00  0.00    +0.000 HD
ENDBRANCH  21  28
BRANCH   8  30
ATOM     30  C   UNL     1      -4.801   6.984  16.931  0.00  0.00    +0.000 C 
ATOM     31  C   UNL     1      -4.850   8.517  17.023  0.00  0.00    +0.000 C 
BRANCH  31  32
ATOM     32  C   UNL     1      -4.924   9.817  17.054  0.00  0.00    +0.000 C 
ATOM     33  C   UNL     1      -3.587  10.533  17.004  0.00  0.00    +0.000 C 
BRANCH  32  35
ATOM     34  O   UNL     1      -6.516  11.584  16.637  0.00  0.00    +0.000 OA
ATOM     35  C   UNL     1      -6.248  10.493  17.117  0.00  0.00    +0.000 C 
BRANCH  35  36
ATOM     36  O   UNL     1      -7.198   9.793  17.773  0.00  0.00    +0.000 OA
ATOM     37  H   UNL     1      -6.714   9.275  18.450  0.00  0.00    +0.000 HD
ENDBRANCH  35  36
ENDBRANCH  32  35
ENDBRANCH  31  32
ENDBRANCH   8  30
BRANCH  20  38
ATOM     38  C   UNL     1      -7.458   5.584  20.999  0.00  0.00    +0.000 C 
ATOM     39  C   UNL     1      -6.390   5.769  22.087  0.00  0.00    +0.000 C 
BRANCH  39  40
ATOM     40  C   UNL     1      -5.490   5.946  23.003  0.00  0.00    +0.000 C 
ATOM     41  C   UNL     1      -4.050   5.686  22.679  0.00  0.00    +0.000 C 
ATOM     42  C   UNL     1      -5.857   6.635  24.282  0.00  0.00    +0.000 C 
ENDBRANCH  39  40
ENDBRANCH  20  38
BRANCH  25  43
ATOM     43  C   UNL     1     -11.774   4.565  23.082  0.00  0.00    +0.000 C 
BRANCH  43  44
ATOM     44  C   UNL     1     -12.001   3.453  24.113  0.00  0.00    +0.000 C 
ATOM     45  C   UNL     1     -12.229   2.340  25.146  0.00  0.00    +0.000 C 
BRANCH  45  46
ATOM     46  C   UNL     1     -12.420   1.406  26.024  0.00  0.00    +0.000 C 
ATOM     47  C   UNL     1     -11.486   1.284  27.189  0.00  0.00    +0.000 C 
ATOM     48  C   UNL     1     -13.452   0.349  25.782  0.00  0.00    +0.000 C 
ENDBRANCH  45  46
ENDBRANCH  43  44
ENDBRANCH  25  43
TORSDOF 10
ENDMDL
MODEL 9
REMARK VINA RESULT:      -5.0     26.259     29.777
REMARK  Name = 9852185_GambogicAcid.pdbqt.pdb
REMARK  10 active torsions:
REMARK  status: ('A' for Active; 'I' for Inactive)
REMARK    1  A    between atoms: C_8  and  C_30
REMARK    2  A    between atoms: C_20  and  C_38
REMARK    3  A    between atoms: C_21  and  O_28
REMARK    4  A    between atoms: C_25  and  C_43
REMARK    5  A    between atoms: C_31  and  C_32
REMARK    6  A    between atoms: C_32  and  C_35
REMARK    7  A    between atoms: C_35  and  O_36
REMARK    8  A    between atoms: C_39  and  C_40
REMARK    9  A    between atoms: C_43  and  C_44
REMARK   10  A    between atoms: C_45  and  C_46
REMARK                            x       y       z     vdW  Elec       q    Type
REMARK                         _______ _______ _______ _____ _____    ______ ____
ROOT
ATOM      1  O   UNL     1     -27.389  13.115  26.453  0.00  0.00    +0.000 OA
ATOM      2  O   UNL     1     -27.698  12.758  23.612  0.00  0.00    +0.000 OA
ATOM      3  O   UNL     1     -29.007  15.682  27.385  0.00  0.00    +0.000 OA
ATOM      4  O   UNL     1     -28.717  16.001  21.290  0.00  0.00    +0.000 OA
ATOM      5  O   UNL     1     -26.868  10.052  19.794  0.00  0.00    +0.000 OA
ATOM      6  C   UNL     1     -27.727  14.020  24.264  0.00  0.00    +0.000 C 
ATOM      7  C   UNL     1     -26.321  14.452  24.815  0.00  0.00    +0.000 C 
ATOM      8  C   UNL     1     -28.337  13.905  25.719  0.00  0.00    +0.000 C 
ATOM      9  C   UNL     1     -26.086  13.435  25.937  0.00  0.00    +0.000 C 
ATOM     10  C   UNL     1     -26.426  15.863  25.189  0.00  0.00    +0.000 C 
ATOM     11  C   UNL     1     -27.743  16.426  25.433  0.00  0.00    +0.000 C 
ATOM     12  C   UNL     1     -28.425  15.128  23.457  0.00  0.00    +0.000 C 
ATOM     13  C   UNL     1     -28.462  15.383  26.335  0.00  0.00    +0.000 C 
ATOM     14  C   UNL     1     -28.438  16.363  24.174  0.00  0.00    +0.000 C 
ATOM     15  C   UNL     1     -25.248  14.022  27.082  0.00  0.00    +0.000 C 
ATOM     16  C   UNL     1     -25.420  12.170  25.374  0.00  0.00    +0.000 C 
ATOM     17  C   UNL     1     -28.415  15.050  21.997  0.00  0.00    +0.000 C 
ATOM     18  C   UNL     1     -27.657  12.700  22.245  0.00  0.00    +0.000 A 
ATOM     19  C   UNL     1     -27.993  13.773  21.407  0.00  0.00    +0.000 A 
ATOM     20  C   UNL     1     -27.293  11.456  21.686  0.00  0.00    +0.000 A 
ATOM     21  C   UNL     1     -27.942  13.629  20.011  0.00  0.00    +0.000 A 
ATOM     22  C   UNL     1     -27.244  11.300  20.297  0.00  0.00    +0.000 A 
ATOM     23  C   UNL     1     -27.569  12.403  19.467  0.00  0.00    +0.000 A 
ATOM     24  C   UNL     1     -27.488  12.118  18.082  0.00  0.00    +0.000 C 
ATOM     25  C   UNL     1     -26.868   9.799  18.334  0.00  0.00    +0.000 C 
ATOM     26  C   UNL     1     -27.204  11.046  17.644  0.00  0.00    +0.000 C 
ATOM     27  C   UNL     1     -27.917   8.689  18.074  0.00  0.00    +0.000 C 
ENDROOT
BRANCH  21  28
ATOM     28  O   UNL     1     -28.247  14.648  19.149  0.00  0.00    +0.000 OA
ATOM     29  H   UNL     1     -27.711  15.443  19.368  0.00  0.00    +0.000 HD
ENDBRANCH  21  28
BRANCH   8  30
ATOM     30  C   UNL     1     -29.644  13.231  25.727  0.00  0.00    +0.000 C 
ATOM     31  C   UNL     1     -30.984  12.481  25.722  0.00  0.00    +0.000 C 
BRANCH  31  32
ATOM     32  C   UNL     1     -32.099  11.807  25.682  0.00  0.00    +0.000 C 
ATOM     33  C   UNL     1     -33.202  12.345  26.575  0.00  0.00    +0.000 C 
BRANCH  32  35
ATOM     34  O   UNL     1     -31.804   9.499  25.038  0.00  0.00    +0.000 OA
ATOM     35  C   UNL     1     -32.227  10.619  24.795  0.00  0.00    +0.000 C 
BRANCH  35  36
ATOM     36  O   UNL     1     -32.875  10.859  23.636  0.00  0.00    +0.000 OA
ATOM     37  H   UNL     1     -32.778  11.822  23.482  0.00  0.00    +0.000 HD
ENDBRANCH  35  36
ENDBRANCH  32  35
ENDBRANCH  31  32
ENDBRANCH   8  30
BRANCH  20  38
ATOM     38  C   UNL     1     -26.969  10.353  22.544  0.00  0.00    +0.000 C 
ATOM     39  C   UNL     1     -26.643   9.154  23.447  0.00  0.00    +0.000 C 
BRANCH  39  40
ATOM     40  C   UNL     1     -26.378   8.129  24.196  0.00  0.00    +0.000 C 
ATOM     41  C   UNL     1     -26.868   8.108  25.612  0.00  0.00    +0.000 C 
ATOM     42  C   UNL     1     -25.810   6.887  23.581  0.00  0.00    +0.000 C 
ENDBRANCH  39  40
ENDBRANCH  20  38
BRANCH  25  43
ATOM     43  C   UNL     1     -25.516   9.328  17.979  0.00  0.00    +0.000 C 
BRANCH  43  44
ATOM     44  C   UNL     1     -24.112   8.831  17.613  0.00  0.00    +0.000 C 
ATOM     45  C   UNL     1     -22.706   8.332  17.249  0.00  0.00    +0.000 C 
BRANCH  45  46
ATOM     46  C   UNL     1     -21.517   7.913  16.948  0.00  0.00    +0.000 C 
ATOM     47  C   UNL     1     -20.469   8.898  16.529  0.00  0.00    +0.000 C 
ATOM     48  C   UNL     1     -21.243   6.445  16.847  0.00  0.00    +0.000 C 
ENDBRANCH  45  46
ENDBRANCH  43  44
ENDBRANCH  25  43
TORSDOF 10
ENDMDL
