MODEL 1
REMARK VINA RESULT:      -6.0      0.000      0.000
REMARK  Name = AFLATOXIN.pdbqt.pdb
REMARK  1 active torsions:
REMARK  status: ('A' for Active; 'I' for Inactive)
REMARK    1  A    between atoms: C_15  and  O_23
REMARK                            x       y       z     vdW  Elec       q    Type
REMARK                         _______ _______ _______ _____ _____    ______ ____
ROOT
ATOM      1  O   UNL     1     -13.015   6.146  23.211  0.00  0.00    +0.000 OA
ATOM      2  O   UNL     1     -13.964   3.868  23.346  0.00  0.00    +0.000 OA
ATOM      3  O   UNL     1     -11.498   5.191  18.857  0.00  0.00    +0.000 OA
ATOM      4  O   UNL     1      -7.657   7.388  16.557  0.00  0.00    +0.000 OA
ATOM      5  O   UNL     1     -11.015   4.730  16.705  0.00  0.00    +0.000 OA
ATOM      6  O   UNL     1      -8.825   5.736  15.575  0.00  0.00    +0.000 OA
ATOM      7  C   UNL     1     -13.284   4.813  21.311  0.00  0.00    +0.000 C 
ATOM      8  C   UNL     1     -12.222   5.764  21.054  0.00  0.00    +0.000 A 
ATOM      9  C   UNL     1     -13.772   5.095  22.684  0.00  0.00    +0.000 C 
ATOM     10  C   UNL     1     -12.140   6.543  22.213  0.00  0.00    +0.000 A 
ATOM     11  C   UNL     1     -11.363   5.990  19.995  0.00  0.00    +0.000 A 
ATOM     12  C   UNL     1     -10.406   7.002  20.061  0.00  0.00    +0.000 A 
ATOM     13  C   UNL     1     -13.260   3.400  21.189  0.00  0.00    +0.000 C 
ATOM     14  C   UNL     1      -9.504   7.130  18.903  0.00  0.00    +0.000 A 
ATOM     15  C   UNL     1     -10.374   7.807  21.236  0.00  0.00    +0.000 A 
ATOM     16  C   UNL     1     -11.222   7.561  22.333  0.00  0.00    +0.000 A 
ATOM     17  C   UNL     1      -8.424   8.041  18.897  0.00  0.00    +0.000 A 
ATOM     18  C   UNL     1      -9.636   6.369  17.777  0.00  0.00    +0.000 A 
ATOM     19  C   UNL     1     -13.642   3.124  22.287  0.00  0.00    +0.000 C 
ATOM     20  C   UNL     1      -7.596   8.073  17.675  0.00  0.00    +0.000 A 
ATOM     21  C   UNL     1     -10.744   5.379  17.705  0.00  0.00    +0.000 A 
ATOM     22  C   UNL     1      -8.695   6.465  16.552  0.00  0.00    +0.000 A 
ENDROOT
BRANCH  15  23
ATOM     23  O   UNL     1      -9.442   8.811  21.379  0.00  0.00    +0.000 OA
ATOM     24  C   UNL     1      -9.405   9.271  22.706  0.00  0.00    +0.000 C 
ENDBRANCH  15  23
TORSDOF 1
ENDMDL
MODEL 2
REMARK VINA RESULT:      -6.0     10.223     12.281
REMARK  Name = AFLATOXIN.pdbqt.pdb
REMARK  1 active torsions:
REMARK  status: ('A' for Active; 'I' for Inactive)
REMARK    1  A    between atoms: C_15  and  O_23
REMARK                            x       y       z     vdW  Elec       q    Type
REMARK                         _______ _______ _______ _____ _____    ______ ____
ROOT
ATOM      1  O   UNL     1     -15.506  18.397  24.362  0.00  0.00    +0.000 OA
ATOM      2  O   UNL     1     -17.517  19.017  23.066  0.00  0.00    +0.000 OA
ATOM      3  O   UNL     1     -12.917  18.877  20.459  0.00  0.00    +0.000 OA
ATOM      4  O   UNL     1      -8.570  16.612  19.542  0.00  0.00    +0.000 OA
ATOM      5  O   UNL     1     -11.727  19.355  18.606  0.00  0.00    +0.000 OA
ATOM      6  O   UNL     1      -9.532  17.965  18.025  0.00  0.00    +0.000 OA
ATOM      7  C   UNL     1     -15.351  19.372  22.244  0.00  0.00    +0.000 C 
ATOM      8  C   UNL     1     -14.145  18.604  22.482  0.00  0.00    +0.000 A 
ATOM      9  C   UNL     1     -16.183  19.228  23.464  0.00  0.00    +0.000 C 
ATOM     10  C   UNL     1     -14.293  18.082  23.771  0.00  0.00    +0.000 A 
ATOM     11  C   UNL     1     -13.019  18.317  21.734  0.00  0.00    +0.000 A 
ATOM     12  C   UNL     1     -12.010  17.507  22.253  0.00  0.00    +0.000 A 
ATOM     13  C   UNL     1     -16.249  19.298  21.148  0.00  0.00    +0.000 C 
ATOM     14  C   UNL     1     -10.876  17.217  21.359  0.00  0.00    +0.000 A 
ATOM     15  C   UNL     1     -12.168  17.023  23.583  0.00  0.00    +0.000 A 
ATOM     16  C   UNL     1     -13.327  17.283  24.339  0.00  0.00    +0.000 A 
ATOM     17  C   UNL     1      -9.847  16.321  21.728  0.00  0.00    +0.000 A 
ATOM     18  C   UNL     1     -10.753  17.772  20.118  0.00  0.00    +0.000 A 
ATOM     19  C   UNL     1     -17.261  19.137  21.763  0.00  0.00    +0.000 C 
ATOM     20  C   UNL     1      -8.766  16.118  20.742  0.00  0.00    +0.000 A 
ATOM     21  C   UNL     1     -11.798  18.722  19.649  0.00  0.00    +0.000 A 
ATOM     22  C   UNL     1      -9.585  17.474  19.146  0.00  0.00    +0.000 A 
ENDROOT
BRANCH  15  23
ATOM     23  O   UNL     1     -11.221  16.201  24.153  0.00  0.00    +0.000 OA
ATOM     24  C   UNL     1     -11.829  15.099  24.778  0.00  0.00    +0.000 C 
ENDBRANCH  15  23
TORSDOF 1
ENDMDL
MODEL 3
REMARK VINA RESULT:      -5.8      3.437      4.862
REMARK  Name = AFLATOXIN.pdbqt.pdb
REMARK  1 active torsions:
REMARK  status: ('A' for Active; 'I' for Inactive)
REMARK    1  A    between atoms: C_15  and  O_23
REMARK                            x       y       z     vdW  Elec       q    Type
REMARK                         _______ _______ _______ _____ _____    ______ ____
ROOT
ATOM      1  O   UNL     1     -12.089   4.162  19.331  0.00  0.00    +0.000 OA
ATOM      2  O   UNL     1     -12.095   2.766  21.371  0.00  0.00    +0.000 OA
ATOM      3  O   UNL     1      -8.308   1.807  17.805  0.00  0.00    +0.000 OA
ATOM      4  O   UNL     1      -4.896   3.526  14.600  0.00  0.00    +0.000 OA
ATOM      5  O   UNL     1      -6.651   0.479  17.051  0.00  0.00    +0.000 OA
ATOM      6  O   UNL     1      -4.713   1.485  15.528  0.00  0.00    +0.000 OA
ATOM      7  C   UNL     1     -10.841   2.191  19.476  0.00  0.00    +0.000 C 
ATOM      8  C   UNL     1     -10.215   3.057  18.496  0.00  0.00    +0.000 A 
ATOM      9  C   UNL     1     -12.034   2.921  19.973  0.00  0.00    +0.000 C 
ATOM     10  C   UNL     1     -11.029   4.193  18.440  0.00  0.00    +0.000 A 
ATOM     11  C   UNL     1      -9.076   2.970  17.719  0.00  0.00    +0.000 A 
ATOM     12  C   UNL     1      -8.722   4.011  16.862  0.00  0.00    +0.000 A 
ATOM     13  C   UNL     1     -10.261   1.571  20.613  0.00  0.00    +0.000 C 
ATOM     14  C   UNL     1      -7.463   3.846  16.114  0.00  0.00    +0.000 A 
ATOM     15  C   UNL     1      -9.591   5.137  16.793  0.00  0.00    +0.000 A 
ATOM     16  C   UNL     1     -10.735   5.248  17.606  0.00  0.00    +0.000 A 
ATOM     17  C   UNL     1      -6.940   4.877  15.300  0.00  0.00    +0.000 A 
ATOM     18  C   UNL     1      -6.712   2.708  16.173  0.00  0.00    +0.000 A 
ATOM     19  C   UNL     1     -11.032   1.964  21.437  0.00  0.00    +0.000 C 
ATOM     20  C   UNL     1      -5.672   4.585  14.602  0.00  0.00    +0.000 A 
ATOM     21  C   UNL     1      -7.188   1.577  17.015  0.00  0.00    +0.000 A 
ATOM     22  C   UNL     1      -5.376   2.510  15.417  0.00  0.00    +0.000 A 
ENDROOT
BRANCH  15  23
ATOM     23  O   UNL     1      -9.294   6.211  15.983  0.00  0.00    +0.000 OA
ATOM     24  C   UNL     1      -9.460   7.421  16.678  0.00  0.00    +0.000 C 
ENDBRANCH  15  23
TORSDOF 1
ENDMDL
MODEL 4
REMARK VINA RESULT:      -5.5     18.753     21.698
REMARK  Name = AFLATOXIN.pdbqt.pdb
REMARK  1 active torsions:
REMARK  status: ('A' for Active; 'I' for Inactive)
REMARK    1  A    between atoms: C_15  and  O_23
REMARK                            x       y       z     vdW  Elec       q    Type
REMARK                         _______ _______ _______ _____ _____    ______ ____
ROOT
ATOM      1  O   UNL     1     -14.646   2.333  -2.798  0.00  0.00    +0.000 OA
ATOM      2  O   UNL     1     -13.150   3.711  -4.202  0.00  0.00    +0.000 OA
ATOM      3  O   UNL     1     -11.117   1.724   0.259  0.00  0.00    +0.000 OA
ATOM      4  O   UNL     1     -10.616  -2.105   3.414  0.00  0.00    +0.000 OA
ATOM      5  O   UNL     1      -9.450   1.679   1.774  0.00  0.00    +0.000 OA
ATOM      6  O   UNL     1      -9.067  -0.480   3.285  0.00  0.00    +0.000 OA
ATOM      7  C   UNL     1     -12.617   3.160  -1.986  0.00  0.00    +0.000 C 
ATOM      8  C   UNL     1     -12.959   1.971  -1.232  0.00  0.00    +0.000 A 
ATOM      9  C   UNL     1     -13.717   3.365  -2.961  0.00  0.00    +0.000 C 
ATOM     10  C   UNL     1     -14.191   1.554  -1.747  0.00  0.00    +0.000 A 
ATOM     11  C   UNL     1     -12.339   1.253  -0.227  0.00  0.00    +0.000 A 
ATOM     12  C   UNL     1     -12.933   0.105   0.294  0.00  0.00    +0.000 A 
ATOM     13  C   UNL     1     -11.418   3.455  -2.686  0.00  0.00    +0.000 C 
ATOM     14  C   UNL     1     -12.169  -0.619   1.326  0.00  0.00    +0.000 A 
ATOM     15  C   UNL     1     -14.206  -0.273  -0.219  0.00  0.00    +0.000 A 
ATOM     16  C   UNL     1     -14.829   0.433  -1.266  0.00  0.00    +0.000 A 
ATOM     17  C   UNL     1     -12.612  -1.854   1.851  0.00  0.00    +0.000 A 
ATOM     18  C   UNL     1     -10.983  -0.161   1.824  0.00  0.00    +0.000 A 
ATOM     19  C   UNL     1     -11.896   3.716  -3.749  0.00  0.00    +0.000 C 
ATOM     20  C   UNL     1     -11.756  -2.476   2.881  0.00  0.00    +0.000 A 
ATOM     21  C   UNL     1     -10.442   1.129   1.318  0.00  0.00    +0.000 A 
ATOM     22  C   UNL     1     -10.146  -0.906   2.892  0.00  0.00    +0.000 A 
ENDROOT
BRANCH  15  23
ATOM     23  O   UNL     1     -14.843  -1.407   0.236  0.00  0.00    +0.000 OA
ATOM     24  C   UNL     1     -16.148  -1.109   0.662  0.00  0.00    +0.000 C 
ENDBRANCH  15  23
TORSDOF 1
ENDMDL
MODEL 5
REMARK VINA RESULT:      -5.5     20.718     24.242
REMARK  Name = AFLATOXIN.pdbqt.pdb
REMARK  1 active torsions:
REMARK  status: ('A' for Active; 'I' for Inactive)
REMARK    1  A    between atoms: C_15  and  O_23
REMARK                            x       y       z     vdW  Elec       q    Type
REMARK                         _______ _______ _______ _____ _____    ______ ____
ROOT
ATOM      1  O   UNL     1     -14.890   4.231  -5.335  0.00  0.00    +0.000 OA
ATOM      2  O   UNL     1     -13.166   4.631  -7.060  0.00  0.00    +0.000 OA
ATOM      3  O   UNL     1     -14.530   8.737  -4.017  0.00  0.00    +0.000 OA
ATOM      4  O   UNL     1     -15.636  10.556   0.493  0.00  0.00    +0.000 OA
ATOM      5  O   UNL     1     -14.460  10.952  -3.610  0.00  0.00    +0.000 OA
ATOM      6  O   UNL     1     -14.826  11.875  -1.139  0.00  0.00    +0.000 OA
ATOM      7  C   UNL     1     -14.256   6.391  -5.961  0.00  0.00    +0.000 C 
ATOM      8  C   UNL     1     -14.778   6.442  -4.610  0.00  0.00    +0.000 A 
ATOM      9  C   UNL     1     -14.356   4.975  -6.391  0.00  0.00    +0.000 C 
ATOM     10  C   UNL     1     -15.164   5.131  -4.317  0.00  0.00    +0.000 A 
ATOM     11  C   UNL     1     -14.920   7.442  -3.666  0.00  0.00    +0.000 A 
ATOM     12  C   UNL     1     -15.456   7.162  -2.410  0.00  0.00    +0.000 A 
ATOM     13  C   UNL     1     -13.009   6.860  -6.450  0.00  0.00    +0.000 C 
ATOM     14  C   UNL     1     -15.519   8.283  -1.457  0.00  0.00    +0.000 A 
ATOM     15  C   UNL     1     -15.881   5.827  -2.156  0.00  0.00    +0.000 A 
ATOM     16  C   UNL     1     -15.708   4.795  -3.098  0.00  0.00    +0.000 A 
ATOM     17  C   UNL     1     -15.937   8.102  -0.120  0.00  0.00    +0.000 A 
ATOM     18  C   UNL     1     -15.159   9.557  -1.792  0.00  0.00    +0.000 A 
ATOM     19  C   UNL     1     -12.636   5.851  -6.971  0.00  0.00    +0.000 C 
ATOM     20  C   UNL     1     -15.957   9.307   0.733  0.00  0.00    +0.000 A 
ATOM     21  C   UNL     1     -14.699   9.833  -3.179  0.00  0.00    +0.000 A 
ATOM     22  C   UNL     1     -15.194  10.754  -0.810  0.00  0.00    +0.000 A 
ENDROOT
BRANCH  15  23
ATOM     23  O   UNL     1     -16.402   5.472  -0.930  0.00  0.00    +0.000 OA
ATOM     24  C   UNL     1     -17.017   4.210  -0.996  0.00  0.00    +0.000 C 
ENDBRANCH  15  23
TORSDOF 1
ENDMDL
MODEL 6
REMARK VINA RESULT:      -5.4     11.030     13.268
REMARK  Name = AFLATOXIN.pdbqt.pdb
REMARK  1 active torsions:
REMARK  status: ('A' for Active; 'I' for Inactive)
REMARK    1  A    between atoms: C_15  and  O_23
REMARK                            x       y       z     vdW  Elec       q    Type
REMARK                         _______ _______ _______ _____ _____    ______ ____
ROOT
ATOM      1  O   UNL     1     -22.996   0.695  16.999  0.00  0.00    +0.000 OA
ATOM      2  O   UNL     1     -22.138   0.014  19.214  0.00  0.00    +0.000 OA
ATOM      3  O   UNL     1     -21.538   5.090  17.854  0.00  0.00    +0.000 OA
ATOM      4  O   UNL     1     -23.411   9.235  15.810  0.00  0.00    +0.000 OA
ATOM      5  O   UNL     1     -20.605   7.102  18.248  0.00  0.00    +0.000 OA
ATOM      6  O   UNL     1     -21.761   9.321  17.336  0.00  0.00    +0.000 OA
ATOM      7  C   UNL     1     -21.543   2.054  18.225  0.00  0.00    +0.000 C 
ATOM      8  C   UNL     1     -22.314   2.898  17.335  0.00  0.00    +0.000 A 
ATOM      9  C   UNL     1     -21.994   0.663  17.974  0.00  0.00    +0.000 C 
ATOM     10  C   UNL     1     -23.132   2.019  16.616  0.00  0.00    +0.000 A 
ATOM     11  C   UNL     1     -22.388   4.261  17.117  0.00  0.00    +0.000 A 
ATOM     12  C   UNL     1     -23.272   4.782  16.174  0.00  0.00    +0.000 A 
ATOM     13  C   UNL     1     -21.378   2.162  19.630  0.00  0.00    +0.000 C 
ATOM     14  C   UNL     1     -23.312   6.250  16.053  0.00  0.00    +0.000 A 
ATOM     15  C   UNL     1     -24.061   3.862  15.427  0.00  0.00    +0.000 A 
ATOM     16  C   UNL     1     -24.017   2.475  15.666  0.00  0.00    +0.000 A 
ATOM     17  C   UNL     1     -24.244   6.902  15.214  0.00  0.00    +0.000 A 
ATOM     18  C   UNL     1     -22.475   7.072  16.752  0.00  0.00    +0.000 A 
ATOM     19  C   UNL     1     -21.706   1.053  19.930  0.00  0.00    +0.000 C 
ATOM     20  C   UNL     1     -24.179   8.377  15.181  0.00  0.00    +0.000 A 
ATOM     21  C   UNL     1     -21.469   6.464  17.664  0.00  0.00    +0.000 A 
ATOM     22  C   UNL     1     -22.505   8.617  16.663  0.00  0.00    +0.000 A 
ENDROOT
BRANCH  15  23
ATOM     23  O   UNL     1     -24.971   4.307  14.492  0.00  0.00    +0.000 OA
ATOM     24  C   UNL     1     -24.969   3.475  13.360  0.00  0.00    +0.000 C 
ENDBRANCH  15  23
TORSDOF 1
ENDMDL
MODEL 7
REMARK VINA RESULT:      -5.3     10.223     12.270
REMARK  Name = AFLATOXIN.pdbqt.pdb
REMARK  1 active torsions:
REMARK  status: ('A' for Active; 'I' for Inactive)
REMARK    1  A    between atoms: C_15  and  O_23
REMARK                            x       y       z     vdW  Elec       q    Type
REMARK                         _______ _______ _______ _____ _____    ______ ____
ROOT
ATOM      1  O   UNL     1     -13.559  15.855  25.960  0.00  0.00    +0.000 OA
ATOM      2  O   UNL     1     -11.633  14.401  26.492  0.00  0.00    +0.000 OA
ATOM      3  O   UNL     1     -11.615  16.796  21.776  0.00  0.00    +0.000 OA
ATOM      4  O   UNL     1     -12.424  20.883  19.034  0.00  0.00    +0.000 OA
ATOM      5  O   UNL     1     -10.730  17.005  19.714  0.00  0.00    +0.000 OA
ATOM      6  O   UNL     1     -10.983  19.289  18.369  0.00  0.00    +0.000 OA
ATOM      7  C   UNL     1     -12.063  15.145  24.311  0.00  0.00    +0.000 C 
ATOM      8  C   UNL     1     -12.673  16.384  23.871  0.00  0.00    +0.000 A 
ATOM      9  C   UNL     1     -12.661  14.835  25.633  0.00  0.00    +0.000 C 
ATOM     10  C   UNL     1     -13.573  16.728  24.884  0.00  0.00    +0.000 A 
ATOM     11  C   UNL     1     -12.518  17.196  22.764  0.00  0.00    +0.000 A 
ATOM     12  C   UNL     1     -13.260  18.369  22.636  0.00  0.00    +0.000 A 
ATOM     13  C   UNL     1     -10.686  14.822  24.420  0.00  0.00    +0.000 C 
ATOM     14  C   UNL     1     -12.986  19.193  21.445  0.00  0.00    +0.000 A 
ATOM     15  C   UNL     1     -14.199  18.674  23.662  0.00  0.00    +0.000 A 
ATOM     16  C   UNL     1     -14.339  17.869  24.809  0.00  0.00    +0.000 A 
ATOM     17  C   UNL     1     -13.591  20.457  21.259  0.00  0.00    +0.000 A 
ATOM     18  C   UNL     1     -12.121  18.806  20.463  0.00  0.00    +0.000 A 
ATOM     19  C   UNL     1     -10.682  14.462  25.560  0.00  0.00    +0.000 C 
ATOM     20  C   UNL     1     -13.233  21.182  20.023  0.00  0.00    +0.000 A 
ATOM     21  C   UNL     1     -11.435  17.492  20.587  0.00  0.00    +0.000 A 
ATOM     22  C   UNL     1     -11.795  19.656  19.210  0.00  0.00    +0.000 A 
ENDROOT
BRANCH  15  23
ATOM     23  O   UNL     1     -14.952  19.827  23.611  0.00  0.00    +0.000 OA
ATOM     24  C   UNL     1     -16.311  19.526  23.416  0.00  0.00    +0.000 C 
ENDBRANCH  15  23
TORSDOF 1
ENDMDL
MODEL 8
REMARK VINA RESULT:      -5.3      9.960     12.772
REMARK  Name = AFLATOXIN.pdbqt.pdb
REMARK  1 active torsions:
REMARK  status: ('A' for Active; 'I' for Inactive)
REMARK    1  A    between atoms: C_15  and  O_23
REMARK                            x       y       z     vdW  Elec       q    Type
REMARK                         _______ _______ _______ _____ _____    ______ ____
ROOT
ATOM      1  O   UNL     1      -9.097  14.962  22.791  0.00  0.00    +0.000 OA
ATOM      2  O   UNL     1      -7.217  15.843  21.452  0.00  0.00    +0.000 OA
ATOM      3  O   UNL     1     -11.929  18.157  20.805  0.00  0.00    +0.000 OA
ATOM      4  O   UNL     1     -16.128  19.971  22.791  0.00  0.00    +0.000 OA
ATOM      5  O   UNL     1     -13.254  19.557  19.639  0.00  0.00    +0.000 OA
ATOM      6  O   UNL     1     -15.362  20.693  20.803  0.00  0.00    +0.000 OA
ATOM      7  C   UNL     1      -9.446  16.377  20.965  0.00  0.00    +0.000 C 
ATOM      8  C   UNL     1     -10.573  16.510  21.867  0.00  0.00    +0.000 A 
ATOM      9  C   UNL     1      -8.539  15.377  21.578  0.00  0.00    +0.000 C 
ATOM     10  C   UNL     1     -10.312  15.617  22.911  0.00  0.00    +0.000 A 
ATOM     11  C   UNL     1     -11.712  17.292  21.880  0.00  0.00    +0.000 A 
ATOM     12  C   UNL     1     -12.624  17.199  22.931  0.00  0.00    +0.000 A 
ATOM     13  C   UNL     1      -8.607  17.392  20.436  0.00  0.00    +0.000 C 
ATOM     14  C   UNL     1     -13.780  18.110  22.880  0.00  0.00    +0.000 A 
ATOM     15  C   UNL     1     -12.355  16.251  23.959  0.00  0.00    +0.000 A 
ATOM     16  C   UNL     1     -11.180  15.475  23.970  0.00  0.00    +0.000 A 
ATOM     17  C   UNL     1     -14.713  18.190  23.939  0.00  0.00    +0.000 A 
ATOM     18  C   UNL     1     -14.015  18.947  21.827  0.00  0.00    +0.000 A 
ATOM     19  C   UNL     1      -7.553  16.936  20.767  0.00  0.00    +0.000 C 
ATOM     20  C   UNL     1     -15.828  19.143  23.763  0.00  0.00    +0.000 A 
ATOM     21  C   UNL     1     -13.075  18.931  20.674  0.00  0.00    +0.000 A 
ATOM     22  C   UNL     1     -15.208  19.931  21.751  0.00  0.00    +0.000 A 
ENDROOT
BRANCH  15  23
ATOM     23  O   UNL     1     -13.201  16.118  25.038  0.00  0.00    +0.000 OA
ATOM     24  C   UNL     1     -12.781  15.071  25.875  0.00  0.00    +0.000 C 
ENDBRANCH  15  23
TORSDOF 1
ENDMDL
MODEL 9
REMARK VINA RESULT:      -5.2     19.488     21.228
REMARK  Name = AFLATOXIN.pdbqt.pdb
REMARK  1 active torsions:
REMARK  status: ('A' for Active; 'I' for Inactive)
REMARK    1  A    between atoms: C_15  and  O_23
REMARK                            x       y       z     vdW  Elec       q    Type
REMARK                         _______ _______ _______ _____ _____    ______ ____
ROOT
ATOM      1  O   UNL     1     -21.913  17.581   3.920  0.00  0.00    +0.000 OA
ATOM      2  O   UNL     1     -20.373  19.439   4.454  0.00  0.00    +0.000 OA
ATOM      3  O   UNL     1     -22.994  17.246   8.491  0.00  0.00    +0.000 OA
ATOM      4  O   UNL     1     -24.680  13.160  10.800  0.00  0.00    +0.000 OA
ATOM      5  O   UNL     1     -23.623  17.311  10.654  0.00  0.00    +0.000 OA
ATOM      6  O   UNL     1     -24.296  15.070  11.924  0.00  0.00    +0.000 OA
ATOM      7  C   UNL     1     -21.974  18.673   5.986  0.00  0.00    +0.000 C 
ATOM      8  C   UNL     1     -22.506  17.337   6.161  0.00  0.00    +0.000 A 
ATOM      9  C   UNL     1     -21.622  18.796   4.550  0.00  0.00    +0.000 C 
ATOM     10  C   UNL     1     -22.470  16.759   4.887  0.00  0.00    +0.000 A 
ATOM     11  C   UNL     1     -22.966  16.615   7.246  0.00  0.00    +0.000 A 
ATOM     12  C   UNL     1     -23.408  15.302   7.088  0.00  0.00    +0.000 A 
ATOM     13  C   UNL     1     -20.928  19.314   6.699  0.00  0.00    +0.000 C 
ATOM     14  C   UNL     1     -23.831  14.600   8.312  0.00  0.00    +0.000 A 
ATOM     15  C   UNL     1     -23.400  14.754   5.774  0.00  0.00    +0.000 A 
ATOM     16  C   UNL     1     -22.900  15.471   4.669  0.00  0.00    +0.000 A 
ATOM     17  C   UNL     1     -24.193  13.234   8.300  0.00  0.00    +0.000 A 
ATOM     18  C   UNL     1     -23.881  15.209   9.533  0.00  0.00    +0.000 A 
ATOM     19  C   UNL     1     -20.251  19.633   5.767  0.00  0.00    +0.000 C 
ATOM     20  C   UNL     1     -24.599  12.649   9.594  0.00  0.00    +0.000 A 
ATOM     21  C   UNL     1     -23.508  16.646   9.634  0.00  0.00    +0.000 A 
ATOM     22  C   UNL     1     -24.301  14.496  10.841  0.00  0.00    +0.000 A 
ENDROOT
BRANCH  15  23
ATOM     23  O   UNL     1     -23.803  13.456   5.546  0.00  0.00    +0.000 OA
ATOM     24  C   UNL     1     -23.393  13.023   4.274  0.00  0.00    +0.000 C 
ENDBRANCH  15  23
TORSDOF 1
ENDMDL
