MODEL 1
REMARK VINA RESULT:      -6.8      0.000      0.000
REMARK  Name = AZD4547.pdbqt.pdb
REMARK  6 active torsions:
REMARK  status: ('A' for Active; 'I' for Inactive)
REMARK    1  A    between atoms: C_3  and  C_23
REMARK    2  A    between atoms: C_8  and  C_11
REMARK    3  A    between atoms: C_12  and  C_13
REMARK    4  A    between atoms: C_15  and  O_19
REMARK    5  A    between atoms: C_17  and  O_21
REMARK    6  A    between atoms: C_26  and  N_29
REMARK                            x       y       z     vdW  Elec       q    Type
REMARK                         _______ _______ _______ _____ _____    ______ ____
ROOT
ATOM      1  O   UNL     1      -9.401  18.646  17.423  0.00  0.00    +0.000 OA
ATOM      2  N   UNL     1      -9.581  16.530  18.345  0.00  0.00    +0.000 N 
ATOM      3  C   UNL     1      -9.901  17.863  18.224  0.00  0.00    +0.000 C 
ATOM      4  H   UNL     1     -10.018  15.923  19.022  0.00  0.00    +0.000 HD
ATOM      5  C   UNL     1      -8.649  15.881  17.571  0.00  0.00    +0.000 A 
ATOM      6  N   UNL     1      -8.426  14.580  17.786  0.00  0.00    +0.000 NA
ATOM      7  N   UNL     1      -7.481  14.265  16.881  0.00  0.00    +0.000 N 
ATOM      8  C   UNL     1      -7.099  15.314  16.100  0.00  0.00    +0.000 A 
ATOM      9  H   UNL     1      -7.139  13.310  16.848  0.00  0.00    +0.000 HD
ATOM     10  C   UNL     1      -7.841  16.388  16.524  0.00  0.00    +0.000 A 
ENDROOT
BRANCH   3  11
ATOM     11  C   UNL     1     -10.939  18.369  19.156  0.00  0.00    +0.000 A 
ATOM     12  C   UNL     1     -11.457  17.497  20.113  0.00  0.00    +0.000 A 
ATOM     13  C   UNL     1     -12.433  17.937  21.004  0.00  0.00    +0.000 A 
ATOM     14  C   UNL     1     -12.925  19.247  20.953  0.00  0.00    +0.000 A 
ATOM     15  C   UNL     1     -12.379  20.115  19.996  0.00  0.00    +0.000 A 
ATOM     16  C   UNL     1     -11.402  19.682  19.101  0.00  0.00    +0.000 A 
BRANCH  14  17
ATOM     17  N   UNL     1     -13.883  19.705  21.887  0.00  0.00    +0.000 N 
ATOM     18  C   UNL     1     -13.847  19.157  23.254  0.00  0.00    +0.000 C 
ATOM     19  C   UNL     1     -14.795  18.560  24.136  0.00  0.00    +0.000 C 
ATOM     20  N   UNL     1     -16.128  18.424  23.644  0.00  0.00    +0.000 N 
ATOM     21  C   UNL     1     -14.433  18.064  25.490  0.00  0.00    +0.000 C 
ATOM     22  C   UNL     1     -16.403  18.891  22.323  0.00  0.00    +0.000 C 
ATOM     23  H   UNL     1     -16.847  17.991  24.203  0.00  0.00    +0.000 HD
ATOM     24  C   UNL     1     -15.308  19.458  21.606  0.00  0.00    +0.000 C 
ATOM     25  C   UNL     1     -17.757  18.741  21.730  0.00  0.00    +0.000 C 
ENDBRANCH  14  17
ENDBRANCH   3  11
BRANCH   8  26
ATOM     26  C   UNL     1      -6.128  15.258  15.071  0.00  0.00    +0.000 C 
ATOM     27  C   UNL     1      -5.080  15.194  13.955  0.00  0.00    +0.000 C 
BRANCH  27  28
ATOM     28  C   UNL     1      -4.110  15.129  12.913  0.00  0.00    +0.000 A 
ATOM     29  C   UNL     1      -4.401  15.662  11.661  0.00  0.00    +0.000 A 
ATOM     30  C   UNL     1      -3.452  15.605  10.637  0.00  0.00    +0.000 A 
ATOM     31  C   UNL     1      -2.211  15.013  10.885  0.00  0.00    +0.000 A 
ATOM     32  C   UNL     1      -1.918  14.473  12.138  0.00  0.00    +0.000 A 
ATOM     33  C   UNL     1      -2.874  14.536  13.153  0.00  0.00    +0.000 A 
BRANCH  30  34
ATOM     34  O   UNL     1      -3.629  16.104   9.370  0.00  0.00    +0.000 OA
ATOM     35  C   UNL     1      -4.660  17.042   9.233  0.00  0.00    +0.000 C 
ENDBRANCH  30  34
BRANCH  32  36
ATOM     36  O   UNL     1      -0.668  13.918  12.267  0.00  0.00    +0.000 OA
ATOM     37  C   UNL     1       0.319  14.459  11.433  0.00  0.00    +0.000 C 
ENDBRANCH  32  36
ENDBRANCH  27  28
ENDBRANCH   8  26
TORSDOF 6
ENDMDL
MODEL 2
REMARK VINA RESULT:      -6.7      0.283      2.024
REMARK  Name = AZD4547.pdbqt.pdb
REMARK  6 active torsions:
REMARK  status: ('A' for Active; 'I' for Inactive)
REMARK    1  A    between atoms: C_3  and  C_23
REMARK    2  A    between atoms: C_8  and  C_11
REMARK    3  A    between atoms: C_12  and  C_13
REMARK    4  A    between atoms: C_15  and  O_19
REMARK    5  A    between atoms: C_17  and  O_21
REMARK    6  A    between atoms: C_26  and  N_29
REMARK                            x       y       z     vdW  Elec       q    Type
REMARK                         _______ _______ _______ _____ _____    ______ ____
ROOT
ATOM      1  O   UNL     1      -9.432  18.683  17.508  0.00  0.00    +0.000 OA
ATOM      2  N   UNL     1      -9.655  16.561  18.408  0.00  0.00    +0.000 N 
ATOM      3  C   UNL     1      -9.955  17.900  18.293  0.00  0.00    +0.000 C 
ATOM      4  H   UNL     1     -10.111  15.955  19.073  0.00  0.00    +0.000 HD
ATOM      5  C   UNL     1      -8.719  15.907  17.644  0.00  0.00    +0.000 A 
ATOM      6  N   UNL     1      -8.516  14.601  17.852  0.00  0.00    +0.000 NA
ATOM      7  N   UNL     1      -7.560  14.282  16.960  0.00  0.00    +0.000 N 
ATOM      8  C   UNL     1      -7.151  15.333  16.194  0.00  0.00    +0.000 A 
ATOM      9  H   UNL     1      -7.230  13.323  16.925  0.00  0.00    +0.000 HD
ATOM     10  C   UNL     1      -7.887  16.412  16.615  0.00  0.00    +0.000 A 
ENDROOT
BRANCH   3  11
ATOM     11  C   UNL     1     -11.003  18.412  19.212  0.00  0.00    +0.000 A 
ATOM     12  C   UNL     1     -11.509  17.554  20.187  0.00  0.00    +0.000 A 
ATOM     13  C   UNL     1     -12.494  18.000  21.067  0.00  0.00    +0.000 A 
ATOM     14  C   UNL     1     -13.004  19.301  20.985  0.00  0.00    +0.000 A 
ATOM     15  C   UNL     1     -12.470  20.155  20.010  0.00  0.00    +0.000 A 
ATOM     16  C   UNL     1     -11.484  19.716  19.127  0.00  0.00    +0.000 A 
BRANCH  14  17
ATOM     17  N   UNL     1     -13.971  19.766  21.907  0.00  0.00    +0.000 N 
ATOM     18  C   UNL     1     -13.948  19.227  23.278  0.00  0.00    +0.000 C 
ATOM     19  C   UNL     1     -14.905  18.636  24.155  0.00  0.00    +0.000 C 
ATOM     20  N   UNL     1     -16.234  18.499  23.651  0.00  0.00    +0.000 N 
ATOM     21  C   UNL     1     -14.556  18.149  25.516  0.00  0.00    +0.000 C 
ATOM     22  C   UNL     1     -16.495  18.957  22.325  0.00  0.00    +0.000 C 
ATOM     23  H   UNL     1     -16.958  18.070  24.206  0.00  0.00    +0.000 HD
ATOM     24  C   UNL     1     -15.393  19.519  21.615  0.00  0.00    +0.000 C 
ATOM     25  C   UNL     1     -17.845  18.805  21.720  0.00  0.00    +0.000 C 
ENDBRANCH  14  17
ENDBRANCH   3  11
BRANCH   8  26
ATOM     26  C   UNL     1      -6.164  15.272  15.182  0.00  0.00    +0.000 C 
ATOM     27  C   UNL     1      -5.093  15.209  14.088  0.00  0.00    +0.000 C 
BRANCH  27  28
ATOM     28  C   UNL     1      -4.092  15.156  13.076  0.00  0.00    +0.000 A 
ATOM     29  C   UNL     1      -2.828  14.657  13.376  0.00  0.00    +0.000 A 
ATOM     30  C   UNL     1      -1.843  14.598  12.386  0.00  0.00    +0.000 A 
ATOM     31  C   UNL     1      -2.143  15.040  11.096  0.00  0.00    +0.000 A 
ATOM     32  C   UNL     1      -3.407  15.547  10.792  0.00  0.00    +0.000 A 
ATOM     33  C   UNL     1      -4.382  15.601  11.789  0.00  0.00    +0.000 A 
BRANCH  30  34
ATOM     34  O   UNL     1      -0.570  14.119  12.570  0.00  0.00    +0.000 OA
ATOM     35  C   UNL     1      -0.079  13.308  11.540  0.00  0.00    +0.000 C 
ENDBRANCH  30  34
BRANCH  32  36
ATOM     36  O   UNL     1      -3.588  15.952   9.492  0.00  0.00    +0.000 OA
ATOM     37  C   UNL     1      -4.022  17.274   9.328  0.00  0.00    +0.000 C 
ENDBRANCH  32  36
ENDBRANCH  27  28
ENDBRANCH   8  26
TORSDOF 6
ENDMDL
MODEL 3
REMARK VINA RESULT:      -6.1     21.288     23.328
REMARK  Name = AZD4547.pdbqt.pdb
REMARK  6 active torsions:
REMARK  status: ('A' for Active; 'I' for Inactive)
REMARK    1  A    between atoms: C_3  and  C_23
REMARK    2  A    between atoms: C_8  and  C_11
REMARK    3  A    between atoms: C_12  and  C_13
REMARK    4  A    between atoms: C_15  and  O_19
REMARK    5  A    between atoms: C_17  and  O_21
REMARK    6  A    between atoms: C_26  and  N_29
REMARK                            x       y       z     vdW  Elec       q    Type
REMARK                         _______ _______ _______ _____ _____    ______ ____
ROOT
ATOM      1  O   UNL     1     -10.150   1.763  -0.003  0.00  0.00    +0.000 OA
ATOM      2  N   UNL     1     -10.249   0.313   1.800  0.00  0.00    +0.000 N 
ATOM      3  C   UNL     1     -10.746   0.933   0.675  0.00  0.00    +0.000 C 
ATOM      4  H   UNL     1     -10.779  -0.362   2.329  0.00  0.00    +0.000 HD
ATOM      5  C   UNL     1      -8.998   0.537   2.322  0.00  0.00    +0.000 A 
ATOM      6  N   UNL     1      -8.630  -0.126   3.423  0.00  0.00    +0.000 NA
ATOM      7  N   UNL     1      -7.381   0.316   3.659  0.00  0.00    +0.000 N 
ATOM      8  C   UNL     1      -6.943   1.232   2.750  0.00  0.00    +0.000 A 
ATOM      9  H   UNL     1      -6.880  -0.051   4.461  0.00  0.00    +0.000 HD
ATOM     10  C   UNL     1      -7.975   1.402   1.861  0.00  0.00    +0.000 A 
ENDROOT
BRANCH   3  11
ATOM     11  C   UNL     1     -12.122   0.547   0.276  0.00  0.00    +0.000 A 
ATOM     12  C   UNL     1     -12.775   1.312  -0.690  0.00  0.00    +0.000 A 
ATOM     13  C   UNL     1     -14.067   0.980  -1.090  0.00  0.00    +0.000 A 
ATOM     14  C   UNL     1     -14.743  -0.111  -0.526  0.00  0.00    +0.000 A 
ATOM     15  C   UNL     1     -14.064  -0.880   0.430  0.00  0.00    +0.000 A 
ATOM     16  C   UNL     1     -12.770  -0.552   0.834  0.00  0.00    +0.000 A 
BRANCH  14  17
ATOM     17  N   UNL     1     -16.038  -0.474  -0.965  0.00  0.00    +0.000 N 
ATOM     18  C   UNL     1     -16.957   0.594  -1.396  0.00  0.00    +0.000 C 
ATOM     19  C   UNL     1     -18.295   0.972  -1.083  0.00  0.00    +0.000 C 
ATOM     20  N   UNL     1     -18.979   0.165  -0.123  0.00  0.00    +0.000 N 
ATOM     21  C   UNL     1     -18.958   2.159  -1.685  0.00  0.00    +0.000 C 
ATOM     22  C   UNL     1     -18.275  -0.941   0.441  0.00  0.00    +0.000 C 
ATOM     23  H   UNL     1     -19.920   0.386   0.164  0.00  0.00    +0.000 HD
ATOM     24  C   UNL     1     -16.938  -1.145  -0.011  0.00  0.00    +0.000 C 
ATOM     25  C   UNL     1     -18.909  -1.796   1.478  0.00  0.00    +0.000 C 
ENDBRANCH  14  17
ENDBRANCH   3  11
BRANCH   8  26
ATOM     26  C   UNL     1      -5.671   1.853   2.763  0.00  0.00    +0.000 C 
ATOM     27  C   UNL     1      -4.294   2.525   2.781  0.00  0.00    +0.000 C 
BRANCH  27  28
ATOM     28  C   UNL     1      -3.012   3.146   2.806  0.00  0.00    +0.000 A 
ATOM     29  C   UNL     1      -1.884   2.397   3.127  0.00  0.00    +0.000 A 
ATOM     30  C   UNL     1      -0.624   3.000   3.149  0.00  0.00    +0.000 A 
ATOM     31  C   UNL     1      -0.510   4.358   2.841  0.00  0.00    +0.000 A 
ATOM     32  C   UNL     1      -1.639   5.114   2.523  0.00  0.00    +0.000 A 
ATOM     33  C   UNL     1      -2.892   4.499   2.505  0.00  0.00    +0.000 A 
BRANCH  30  34
ATOM     34  O   UNL     1       0.552   2.356   3.444  0.00  0.00    +0.000 OA
ATOM     35  C   UNL     1       0.611   1.762   4.710  0.00  0.00    +0.000 C 
ENDBRANCH  30  34
BRANCH  32  36
ATOM     36  O   UNL     1      -1.406   6.437   2.238  0.00  0.00    +0.000 OA
ATOM     37  C   UNL     1      -1.951   6.897   1.031  0.00  0.00    +0.000 C 
ENDBRANCH  32  36
ENDBRANCH  27  28
ENDBRANCH   8  26
TORSDOF 6
ENDMDL
MODEL 4
REMARK VINA RESULT:      -6.1     20.875     23.300
REMARK  Name = AZD4547.pdbqt.pdb
REMARK  6 active torsions:
REMARK  status: ('A' for Active; 'I' for Inactive)
REMARK    1  A    between atoms: C_3  and  C_23
REMARK    2  A    between atoms: C_8  and  C_11
REMARK    3  A    between atoms: C_12  and  C_13
REMARK    4  A    between atoms: C_15  and  O_19
REMARK    5  A    between atoms: C_17  and  O_21
REMARK    6  A    between atoms: C_26  and  N_29
REMARK                            x       y       z     vdW  Elec       q    Type
REMARK                         _______ _______ _______ _____ _____    ______ ____
ROOT
ATOM      1  O   UNL     1     -10.086  -0.144   0.636  0.00  0.00    +0.000 OA
ATOM      2  N   UNL     1     -10.457  -0.079   2.920  0.00  0.00    +0.000 N 
ATOM      3  C   UNL     1     -10.794  -0.355   1.614  0.00  0.00    +0.000 C 
ATOM      4  H   UNL     1     -11.076  -0.268   3.694  0.00  0.00    +0.000 HD
ATOM      5  C   UNL     1      -9.262   0.473   3.314  0.00  0.00    +0.000 A 
ATOM      6  N   UNL     1      -9.053   0.696   4.616  0.00  0.00    +0.000 NA
ATOM      7  N   UNL     1      -7.817   1.228   4.653  0.00  0.00    +0.000 N 
ATOM      8  C   UNL     1      -7.235   1.350   3.427  0.00  0.00    +0.000 A 
ATOM      9  H   UNL     1      -7.428   1.488   5.553  0.00  0.00    +0.000 HD
ATOM     10  C   UNL     1      -8.152   0.867   2.527  0.00  0.00    +0.000 A 
ENDROOT
BRANCH   3  11
ATOM     11  C   UNL     1     -12.135  -0.956   1.403  0.00  0.00    +0.000 A 
ATOM     12  C   UNL     1     -12.461  -2.118   2.101  0.00  0.00    +0.000 A 
ATOM     13  C   UNL     1     -13.711  -2.710   1.927  0.00  0.00    +0.000 A 
ATOM     14  C   UNL     1     -14.654  -2.167   1.046  0.00  0.00    +0.000 A 
ATOM     15  C   UNL     1     -14.316  -0.988   0.367  0.00  0.00    +0.000 A 
ATOM     16  C   UNL     1     -13.067  -0.390   0.536  0.00  0.00    +0.000 A 
BRANCH  14  17
ATOM     17  N   UNL     1     -15.938  -2.744   0.904  0.00  0.00    +0.000 N 
ATOM     18  C   UNL     1     -17.081  -1.854   0.632  0.00  0.00    +0.000 C 
ATOM     19  C   UNL     1     -18.371  -1.652   1.204  0.00  0.00    +0.000 C 
ATOM     20  N   UNL     1     -18.712  -2.477   2.319  0.00  0.00    +0.000 N 
ATOM     21  C   UNL     1     -19.319  -0.620   0.707  0.00  0.00    +0.000 C 
ATOM     22  C   UNL     1     -17.745  -3.426   2.767  0.00  0.00    +0.000 C 
ATOM     23  H   UNL     1     -19.599  -2.374   2.788  0.00  0.00    +0.000 HD
ATOM     24  C   UNL     1     -16.511  -3.466   2.053  0.00  0.00    +0.000 C 
ATOM     25  C   UNL     1     -18.015  -4.285   3.949  0.00  0.00    +0.000 C 
ENDBRANCH  14  17
ENDBRANCH   3  11
BRANCH   8  26
ATOM     26  C   UNL     1      -5.944   1.875   3.183  0.00  0.00    +0.000 C 
ATOM     27  C   UNL     1      -4.544   2.438   2.919  0.00  0.00    +0.000 C 
BRANCH  27  28
ATOM     28  C   UNL     1      -3.238   2.954   2.675  0.00  0.00    +0.000 A 
ATOM     29  C   UNL     1      -3.064   4.314   2.430  0.00  0.00    +0.000 A 
ATOM     30  C   UNL     1      -1.785   4.826   2.196  0.00  0.00    +0.000 A 
ATOM     31  C   UNL     1      -0.688   3.962   2.215  0.00  0.00    +0.000 A 
ATOM     32  C   UNL     1      -0.859   2.598   2.455  0.00  0.00    +0.000 A 
ATOM     33  C   UNL     1      -2.141   2.098   2.688  0.00  0.00    +0.000 A 
BRANCH  30  34
ATOM     34  O   UNL     1      -1.499   6.146   1.952  0.00  0.00    +0.000 OA
ATOM     35  C   UNL     1      -0.241   6.578   2.388  0.00  0.00    +0.000 C 
ENDBRANCH  30  34
BRANCH  32  36
ATOM     36  O   UNL     1       0.290   1.846   2.450  0.00  0.00    +0.000 OA
ATOM     37  C   UNL     1       1.475   2.555   2.692  0.00  0.00    +0.000 C 
ENDBRANCH  32  36
ENDBRANCH  27  28
ENDBRANCH   8  26
TORSDOF 6
ENDMDL
MODEL 5
REMARK VINA RESULT:      -5.8     13.384     14.269
REMARK  Name = AZD4547.pdbqt.pdb
REMARK  6 active torsions:
REMARK  status: ('A' for Active; 'I' for Inactive)
REMARK    1  A    between atoms: C_3  and  C_23
REMARK    2  A    between atoms: C_8  and  C_11
REMARK    3  A    between atoms: C_12  and  C_13
REMARK    4  A    between atoms: C_15  and  O_19
REMARK    5  A    between atoms: C_17  and  O_21
REMARK    6  A    between atoms: C_26  and  N_29
REMARK                            x       y       z     vdW  Elec       q    Type
REMARK                         _______ _______ _______ _____ _____    ______ ____
ROOT
ATOM      1  O   UNL     1     -13.644   3.126  20.720  0.00  0.00    +0.000 OA
ATOM      2  N   UNL     1     -13.090   5.374  20.742  0.00  0.00    +0.000 N 
ATOM      3  C   UNL     1     -13.880   4.286  21.039  0.00  0.00    +0.000 C 
ATOM      4  H   UNL     1     -13.328   6.313  21.023  0.00  0.00    +0.000 HD
ATOM      5  C   UNL     1     -11.908   5.309  20.044  0.00  0.00    +0.000 A 
ATOM      6  N   UNL     1     -11.231   6.439  19.816  0.00  0.00    +0.000 NA
ATOM      7  N   UNL     1     -10.150   6.030  19.126  0.00  0.00    +0.000 N 
ATOM      8  C   UNL     1     -10.116   4.685  18.908  0.00  0.00    +0.000 A 
ATOM      9  H   UNL     1      -9.470   6.723  18.833  0.00  0.00    +0.000 HD
ATOM     10  C   UNL     1     -11.251   4.181  19.494  0.00  0.00    +0.000 A 
ENDROOT
BRANCH   3  11
ATOM     11  C   UNL     1     -15.117   4.573  21.807  0.00  0.00    +0.000 A 
ATOM     12  C   UNL     1     -16.326   4.651  21.118  0.00  0.00    +0.000 A 
ATOM     13  C   UNL     1     -17.507   4.919  21.806  0.00  0.00    +0.000 A 
ATOM     14  C   UNL     1     -17.508   5.128  23.191  0.00  0.00    +0.000 A 
ATOM     15  C   UNL     1     -16.286   5.027  23.871  0.00  0.00    +0.000 A 
ATOM     16  C   UNL     1     -15.100   4.759  23.188  0.00  0.00    +0.000 A 
BRANCH  14  17
ATOM     17  N   UNL     1     -18.714   5.355  23.895  0.00  0.00    +0.000 N 
ATOM     18  C   UNL     1     -18.799   4.918  25.300  0.00  0.00    +0.000 C 
ATOM     19  C   UNL     1     -19.709   4.134  26.067  0.00  0.00    +0.000 C 
ATOM     20  N   UNL     1     -20.840   3.606  25.373  0.00  0.00    +0.000 N 
ATOM     21  C   UNL     1     -19.497   3.836  27.509  0.00  0.00    +0.000 C 
ATOM     22  C   UNL     1     -20.968   3.902  23.983  0.00  0.00    +0.000 C 
ATOM     23  H   UNL     1     -21.514   3.023  25.847  0.00  0.00    +0.000 HD
ATOM     24  C   UNL     1     -19.943   4.708  23.405  0.00  0.00    +0.000 C 
ATOM     25  C   UNL     1     -22.096   3.348  23.189  0.00  0.00    +0.000 C 
ENDBRANCH  14  17
ENDBRANCH   3  11
BRANCH   8  26
ATOM     26  C   UNL     1      -9.095   3.994  18.214  0.00  0.00    +0.000 C 
ATOM     27  C   UNL     1      -7.986   3.248  17.464  0.00  0.00    +0.000 C 
BRANCH  27  28
ATOM     28  C   UNL     1      -6.949   2.560  16.771  0.00  0.00    +0.000 A 
ATOM     29  C   UNL     1      -5.847   3.265  16.294  0.00  0.00    +0.000 A 
ATOM     30  C   UNL     1      -4.825   2.595  15.618  0.00  0.00    +0.000 A 
ATOM     31  C   UNL     1      -4.918   1.213  15.432  0.00  0.00    +0.000 A 
ATOM     32  C   UNL     1      -6.023   0.504  15.904  0.00  0.00    +0.000 A 
ATOM     33  C   UNL     1      -7.038   1.185  16.578  0.00  0.00    +0.000 A 
BRANCH  30  34
ATOM     34  O   UNL     1      -3.694   3.187  15.114  0.00  0.00    +0.000 OA
ATOM     35  C   UNL     1      -3.774   4.572  14.925  0.00  0.00    +0.000 C 
ENDBRANCH  30  34
BRANCH  32  36
ATOM     36  O   UNL     1      -6.007  -0.848  15.664  0.00  0.00    +0.000 OA
ATOM     37  C   UNL     1      -5.766  -1.221  14.334  0.00  0.00    +0.000 C 
ENDBRANCH  32  36
ENDBRANCH  27  28
ENDBRANCH   8  26
TORSDOF 6
ENDMDL
MODEL 6
REMARK VINA RESULT:      -5.7      8.440     10.681
REMARK  Name = AZD4547.pdbqt.pdb
REMARK  6 active torsions:
REMARK  status: ('A' for Active; 'I' for Inactive)
REMARK    1  A    between atoms: C_3  and  C_23
REMARK    2  A    between atoms: C_8  and  C_11
REMARK    3  A    between atoms: C_12  and  C_13
REMARK    4  A    between atoms: C_15  and  O_19
REMARK    5  A    between atoms: C_17  and  O_21
REMARK    6  A    between atoms: C_26  and  N_29
REMARK                            x       y       z     vdW  Elec       q    Type
REMARK                         _______ _______ _______ _____ _____    ______ ____
ROOT
ATOM      1  O   UNL     1      -7.827   8.178  16.402  0.00  0.00    +0.000 OA
ATOM      2  N   UNL     1      -7.334   9.276  18.380  0.00  0.00    +0.000 N 
ATOM      3  C   UNL     1      -7.826   8.234  17.627  0.00  0.00    +0.000 C 
ATOM      4  H   UNL     1      -7.358   9.279  19.389  0.00  0.00    +0.000 HD
ATOM      5  C   UNL     1      -6.762  10.411  17.857  0.00  0.00    +0.000 A 
ATOM      6  N   UNL     1      -6.322  11.356  18.694  0.00  0.00    +0.000 NA
ATOM      7  N   UNL     1      -5.833  12.305  17.875  0.00  0.00    +0.000 N 
ATOM      8  C   UNL     1      -5.944  11.997  16.552  0.00  0.00    +0.000 A 
ATOM      9  H   UNL     1      -5.434  13.142  18.285  0.00  0.00    +0.000 HD
ATOM     10  C   UNL     1      -6.549  10.766  16.502  0.00  0.00    +0.000 A 
ENDROOT
BRANCH   3  11
ATOM     11  C   UNL     1      -8.401   7.097  18.389  0.00  0.00    +0.000 A 
ATOM     12  C   UNL     1      -9.433   7.354  19.291  0.00  0.00    +0.000 A 
ATOM     13  C   UNL     1      -9.996   6.312  20.023  0.00  0.00    +0.000 A 
ATOM     14  C   UNL     1      -9.535   4.996  19.885  0.00  0.00    +0.000 A 
ATOM     15  C   UNL     1      -8.510   4.754  18.961  0.00  0.00    +0.000 A 
ATOM     16  C   UNL     1      -7.942   5.793  18.224  0.00  0.00    +0.000 A 
BRANCH  14  17
ATOM     17  N   UNL     1     -10.138   3.933  20.597  0.00  0.00    +0.000 N 
ATOM     18  C   UNL     1      -9.749   2.553  20.258  0.00  0.00    +0.000 C 
ATOM     19  C   UNL     1     -10.444   1.352  19.926  0.00  0.00    +0.000 C 
ATOM     20  N   UNL     1     -11.870   1.428  19.894  0.00  0.00    +0.000 N 
ATOM     21  C   UNL     1      -9.745   0.083  19.594  0.00  0.00    +0.000 C 
ATOM     22  C   UNL     1     -12.478   2.684  20.191  0.00  0.00    +0.000 C 
ATOM     23  H   UNL     1     -12.427   0.625  19.645  0.00  0.00    +0.000 HD
ATOM     24  C   UNL     1     -11.598   3.763  20.499  0.00  0.00    +0.000 C 
ATOM     25  C   UNL     1     -13.955   2.846  20.132  0.00  0.00    +0.000 C 
ENDBRANCH  14  17
ENDBRANCH   3  11
BRANCH   8  26
ATOM     26  C   UNL     1      -5.509  12.815  15.482  0.00  0.00    +0.000 C 
ATOM     27  C   UNL     1      -5.040  13.699  14.321  0.00  0.00    +0.000 C 
BRANCH  27  28
ATOM     28  C   UNL     1      -4.612  14.519  13.237  0.00  0.00    +0.000 A 
ATOM     29  C   UNL     1      -5.547  15.021  12.336  0.00  0.00    +0.000 A 
ATOM     30  C   UNL     1      -5.133  15.829  11.274  0.00  0.00    +0.000 A 
ATOM     31  C   UNL     1      -3.777  16.129  11.130  0.00  0.00    +0.000 A 
ATOM     32  C   UNL     1      -2.836  15.623  12.028  0.00  0.00    +0.000 A 
ATOM     33  C   UNL     1      -3.261  14.817  13.085  0.00  0.00    +0.000 A 
BRANCH  30  34
ATOM     34  O   UNL     1      -5.967  16.383  10.334  0.00  0.00    +0.000 OA
ATOM     35  C   UNL     1      -5.911  17.777  10.228  0.00  0.00    +0.000 C 
ENDBRANCH  30  34
BRANCH  32  36
ATOM     36  O   UNL     1      -1.533  15.984  11.788  0.00  0.00    +0.000 OA
ATOM     37  C   UNL     1      -0.686  14.945  11.378  0.00  0.00    +0.000 C 
ENDBRANCH  32  36
ENDBRANCH  27  28
ENDBRANCH   8  26
TORSDOF 6
ENDMDL
MODEL 7
REMARK VINA RESULT:      -5.7     20.552     24.152
REMARK  Name = AZD4547.pdbqt.pdb
REMARK  6 active torsions:
REMARK  status: ('A' for Active; 'I' for Inactive)
REMARK    1  A    between atoms: C_3  and  C_23
REMARK    2  A    between atoms: C_8  and  C_11
REMARK    3  A    between atoms: C_12  and  C_13
REMARK    4  A    between atoms: C_15  and  O_19
REMARK    5  A    between atoms: C_17  and  O_21
REMARK    6  A    between atoms: C_26  and  N_29
REMARK                            x       y       z     vdW  Elec       q    Type
REMARK                         _______ _______ _______ _____ _____    ______ ____
ROOT
ATOM      1  O   UNL     1     -10.995   1.177  -0.682  0.00  0.00    +0.000 OA
ATOM      2  N   UNL     1     -11.745   0.825   1.481  0.00  0.00    +0.000 N 
ATOM      3  C   UNL     1     -11.893   0.931   0.116  0.00  0.00    +0.000 C 
ATOM      4  H   UNL     1     -12.516   0.624   2.099  0.00  0.00    +0.000 HD
ATOM      5  C   UNL     1     -10.553   0.977   2.147  0.00  0.00    +0.000 A 
ATOM      6  N   UNL     1     -10.537   0.853   3.478  0.00  0.00    +0.000 NA
ATOM      7  N   UNL     1      -9.247   1.055   3.802  0.00  0.00    +0.000 N 
ATOM      8  C   UNL     1      -8.444   1.300   2.729  0.00  0.00    +0.000 A 
ATOM      9  H   UNL     1      -8.979   1.010   4.779  0.00  0.00    +0.000 HD
ATOM     10  C   UNL     1      -9.264   1.259   1.629  0.00  0.00    +0.000 A 
ENDROOT
BRANCH   3  11
ATOM     11  C   UNL     1     -13.268   0.728  -0.405  0.00  0.00    +0.000 A 
ATOM     12  C   UNL     1     -14.017  -0.338   0.091  0.00  0.00    +0.000 A 
ATOM     13  C   UNL     1     -15.311  -0.560  -0.376  0.00  0.00    +0.000 A 
ATOM     14  C   UNL     1     -15.880   0.265  -1.355  0.00  0.00    +0.000 A 
ATOM     15  C   UNL     1     -15.119   1.343  -1.828  0.00  0.00    +0.000 A 
ATOM     16  C   UNL     1     -13.824   1.570  -1.365  0.00  0.00    +0.000 A 
BRANCH  14  17
ATOM     17  N   UNL     1     -17.210   0.065  -1.794  0.00  0.00    +0.000 N 
ATOM     18  C   UNL     1     -17.433  -0.340  -3.193  0.00  0.00    +0.000 C 
ATOM     19  C   UNL     1     -18.244   0.124  -4.270  0.00  0.00    +0.000 C 
ATOM     20  N   UNL     1     -19.071   1.258  -4.004  0.00  0.00    +0.000 N 
ATOM     21  C   UNL     1     -18.224  -0.501  -5.619  0.00  0.00    +0.000 C 
ATOM     22  C   UNL     1     -19.018   1.830  -2.698  0.00  0.00    +0.000 C 
ATOM     23  H   UNL     1     -19.653   1.655  -4.725  0.00  0.00    +0.000 HD
ATOM     24  C   UNL     1     -18.137   1.210  -1.764  0.00  0.00    +0.000 C 
ATOM     25  C   UNL     1     -19.818   3.038  -2.366  0.00  0.00    +0.000 C 
ENDBRANCH  14  17
ENDBRANCH   3  11
BRANCH   8  26
ATOM     26  C   UNL     1      -7.051   1.543   2.787  0.00  0.00    +0.000 C 
ATOM     27  C   UNL     1      -5.542   1.801   2.850  0.00  0.00    +0.000 C 
BRANCH  27  28
ATOM     28  C   UNL     1      -4.137   2.033   2.906  0.00  0.00    +0.000 A 
ATOM     29  C   UNL     1      -3.272   0.983   3.203  0.00  0.00    +0.000 A 
ATOM     30  C   UNL     1      -1.894   1.203   3.255  0.00  0.00    +0.000 A 
ATOM     31  C   UNL     1      -1.395   2.483   3.002  0.00  0.00    +0.000 A 
ATOM     32  C   UNL     1      -2.258   3.539   2.710  0.00  0.00    +0.000 A 
ATOM     33  C   UNL     1      -3.634   3.307   2.661  0.00  0.00    +0.000 A 
BRANCH  30  34
ATOM     34  O   UNL     1      -0.953   0.241   3.529  0.00  0.00    +0.000 OA
ATOM     35  C   UNL     1       0.054   0.624   4.424  0.00  0.00    +0.000 C 
ENDBRANCH  30  34
BRANCH  32  36
ATOM     36  O   UNL     1      -1.656   4.752   2.479  0.00  0.00    +0.000 OA
ATOM     37  C   UNL     1      -2.223   5.843   3.151  0.00  0.00    +0.000 C 
ENDBRANCH  32  36
ENDBRANCH  27  28
ENDBRANCH   8  26
TORSDOF 6
ENDMDL
MODEL 8
REMARK VINA RESULT:      -5.7     20.852     24.918
REMARK  Name = AZD4547.pdbqt.pdb
REMARK  6 active torsions:
REMARK  status: ('A' for Active; 'I' for Inactive)
REMARK    1  A    between atoms: C_3  and  C_23
REMARK    2  A    between atoms: C_8  and  C_11
REMARK    3  A    between atoms: C_12  and  C_13
REMARK    4  A    between atoms: C_15  and  O_19
REMARK    5  A    between atoms: C_17  and  O_21
REMARK    6  A    between atoms: C_26  and  N_29
REMARK                            x       y       z     vdW  Elec       q    Type
REMARK                         _______ _______ _______ _____ _____    ______ ____
ROOT
ATOM      1  O   UNL     1     -20.409   0.828   9.950  0.00  0.00    +0.000 OA
ATOM      2  N   UNL     1     -22.118  -0.614  10.550  0.00  0.00    +0.000 N 
ATOM      3  C   UNL     1     -21.053  -0.201   9.781  0.00  0.00    +0.000 C 
ATOM      4  H   UNL     1     -22.621  -1.470  10.371  0.00  0.00    +0.000 HD
ATOM      5  C   UNL     1     -22.610   0.077  11.631  0.00  0.00    +0.000 A 
ATOM      6  N   UNL     1     -23.653  -0.427  12.298  0.00  0.00    +0.000 NA
ATOM      7  N   UNL     1     -23.874   0.475  13.273  0.00  0.00    +0.000 N 
ATOM      8  C   UNL     1     -23.011   1.530  13.250  0.00  0.00    +0.000 A 
ATOM      9  H   UNL     1     -24.634   0.309  13.924  0.00  0.00    +0.000 HD
ATOM     10  C   UNL     1     -22.171   1.304  12.188  0.00  0.00    +0.000 A 
ENDROOT
BRANCH   3  11
ATOM     11  C   UNL     1     -20.677  -1.097   8.659  0.00  0.00    +0.000 A 
ATOM     12  C   UNL     1     -19.329  -1.401   8.473  0.00  0.00    +0.000 A 
ATOM     13  C   UNL     1     -18.940  -2.239   7.430  0.00  0.00    +0.000 A 
ATOM     14  C   UNL     1     -19.880  -2.777   6.542  0.00  0.00    +0.000 A 
ATOM     15  C   UNL     1     -21.232  -2.475   6.756  0.00  0.00    +0.000 A 
ATOM     16  C   UNL     1     -21.629  -1.638   7.798  0.00  0.00    +0.000 A 
BRANCH  14  17
ATOM     17  N   UNL     1     -19.487  -3.663   5.511  0.00  0.00    +0.000 N 
ATOM     18  C   UNL     1     -18.069  -4.056   5.427  0.00  0.00    +0.000 C 
ATOM     19  C   UNL     1     -17.077  -4.072   4.403  0.00  0.00    +0.000 C 
ATOM     20  N   UNL     1     -17.481  -3.605   3.115  0.00  0.00    +0.000 N 
ATOM     21  C   UNL     1     -15.678  -4.514   4.645  0.00  0.00    +0.000 C 
ATOM     22  C   UNL     1     -18.829  -3.164   2.958  0.00  0.00    +0.000 C 
ATOM     23  H   UNL     1     -16.826  -3.566   2.349  0.00  0.00    +0.000 HD
ATOM     24  C   UNL     1     -19.662  -3.231   4.113  0.00  0.00    +0.000 C 
ATOM     25  C   UNL     1     -19.304  -2.624   1.657  0.00  0.00    +0.000 C 
ENDBRANCH  14  17
ENDBRANCH   3  11
BRANCH   8  26
ATOM     26  C   UNL     1     -23.020   2.614  14.159  0.00  0.00    +0.000 C 
ATOM     27  C   UNL     1     -23.025   3.788  15.144  0.00  0.00    +0.000 C 
BRANCH  27  28
ATOM     28  C   UNL     1     -23.021   4.877  16.063  0.00  0.00    +0.000 A 
ATOM     29  C   UNL     1     -21.830   5.536  16.352  0.00  0.00    +0.000 A 
ATOM     30  C   UNL     1     -21.820   6.608  17.248  0.00  0.00    +0.000 A 
ATOM     31  C   UNL     1     -23.017   7.012  17.844  0.00  0.00    +0.000 A 
ATOM     32  C   UNL     1     -24.213   6.350  17.561  0.00  0.00    +0.000 A 
ATOM     33  C   UNL     1     -24.209   5.280  16.664  0.00  0.00    +0.000 A 
BRANCH  30  34
ATOM     34  O   UNL     1     -20.708   7.332  17.598  0.00  0.00    +0.000 OA
ATOM     35  C   UNL     1     -20.666   8.644  17.111  0.00  0.00    +0.000 C 
ENDBRANCH  30  34
BRANCH  32  36
ATOM     36  O   UNL     1     -25.325   6.834  18.205  0.00  0.00    +0.000 OA
ATOM     37  C   UNL     1     -25.580   8.200  18.023  0.00  0.00    +0.000 C 
ENDBRANCH  32  36
ENDBRANCH  27  28
ENDBRANCH   8  26
TORSDOF 6
ENDMDL
MODEL 9
REMARK VINA RESULT:      -5.6     22.332     23.546
REMARK  Name = AZD4547.pdbqt.pdb
REMARK  6 active torsions:
REMARK  status: ('A' for Active; 'I' for Inactive)
REMARK    1  A    between atoms: C_3  and  C_23
REMARK    2  A    between atoms: C_8  and  C_11
REMARK    3  A    between atoms: C_12  and  C_13
REMARK    4  A    between atoms: C_15  and  O_19
REMARK    5  A    between atoms: C_17  and  O_21
REMARK    6  A    between atoms: C_26  and  N_29
REMARK                            x       y       z     vdW  Elec       q    Type
REMARK                         _______ _______ _______ _____ _____    ______ ____
ROOT
ATOM      1  O   UNL     1     -24.392   9.285   4.670  0.00  0.00    +0.000 OA
ATOM      2  N   UNL     1     -24.092   7.818   6.436  0.00  0.00    +0.000 N 
ATOM      3  C   UNL     1     -24.063   9.053   5.828  0.00  0.00    +0.000 C 
ATOM      4  H   UNL     1     -23.808   7.674   7.393  0.00  0.00    +0.000 HD
ATOM      5  C   UNL     1     -24.504   6.659   5.822  0.00  0.00    +0.000 A 
ATOM      6  N   UNL     1     -24.484   5.518   6.519  0.00  0.00    +0.000 NA
ATOM      7  N   UNL     1     -24.938   4.602   5.644  0.00  0.00    +0.000 N 
ATOM      8  C   UNL     1     -25.246   5.119   4.420  0.00  0.00    +0.000 A 
ATOM      9  H   UNL     1     -25.015   3.637   5.947  0.00  0.00    +0.000 HD
ATOM     10  C   UNL     1     -24.973   6.461   4.500  0.00  0.00    +0.000 A 
ENDROOT
BRANCH   3  11
ATOM     11  C   UNL     1     -23.587  10.179   6.670  0.00  0.00    +0.000 A 
ATOM     12  C   UNL     1     -24.045  11.464   6.383  0.00  0.00    +0.000 A 
ATOM     13  C   UNL     1     -23.619  12.546   7.151  0.00  0.00    +0.000 A 
ATOM     14  C   UNL     1     -22.718  12.373   8.210  0.00  0.00    +0.000 A 
ATOM     15  C   UNL     1     -22.282  11.072   8.495  0.00  0.00    +0.000 A 
ATOM     16  C   UNL     1     -22.705   9.985   7.730  0.00  0.00    +0.000 A 
BRANCH  14  17
ATOM     17  N   UNL     1     -22.322  13.466   9.017  0.00  0.00    +0.000 N 
ATOM     18  C   UNL     1     -23.260  13.957  10.041  0.00  0.00    +0.000 C 
ATOM     19  C   UNL     1     -23.802  15.226  10.398  0.00  0.00    +0.000 C 
ATOM     20  N   UNL     1     -23.381  16.344   9.616  0.00  0.00    +0.000 N 
ATOM     21  C   UNL     1     -24.784  15.401  11.502  0.00  0.00    +0.000 C 
ATOM     22  C   UNL     1     -22.462  16.104   8.550  0.00  0.00    +0.000 C 
ATOM     23  H   UNL     1     -23.741  17.269   9.796  0.00  0.00    +0.000 HD
ATOM     24  C   UNL     1     -22.042  14.755   8.362  0.00  0.00    +0.000 C 
ATOM     25  C   UNL     1     -22.017  17.214   7.667  0.00  0.00    +0.000 C 
ENDBRANCH  14  17
ENDBRANCH   3  11
BRANCH   8  26
ATOM     26  C   UNL     1     -25.744   4.378   3.322  0.00  0.00    +0.000 C 
ATOM     27  C   UNL     1     -26.287   3.577   2.134  0.00  0.00    +0.000 C 
BRANCH  27  28
ATOM     28  C   UNL     1     -26.800   2.831   1.034  0.00  0.00    +0.000 A 
ATOM     29  C   UNL     1     -26.551   3.255  -0.268  0.00  0.00    +0.000 A 
ATOM     30  C   UNL     1     -27.048   2.525  -1.351  0.00  0.00    +0.000 A 
ATOM     31  C   UNL     1     -27.790   1.366  -1.112  0.00  0.00    +0.000 A 
ATOM     32  C   UNL     1     -28.046   0.940   0.192  0.00  0.00    +0.000 A 
ATOM     33  C   UNL     1     -27.544   1.678   1.265  0.00  0.00    +0.000 A 
BRANCH  30  34
ATOM     34  O   UNL     1     -26.857   2.847  -2.672  0.00  0.00    +0.000 OA
ATOM     35  C   UNL     1     -25.544   2.714  -3.139  0.00  0.00    +0.000 C 
ENDBRANCH  30  34
BRANCH  32  36
ATOM     36  O   UNL     1     -28.785  -0.212   0.306  0.00  0.00    +0.000 OA
ATOM     37  C   UNL     1     -29.853  -0.155   1.211  0.00  0.00    +0.000 C 
ENDBRANCH  32  36
ENDBRANCH  27  28
ENDBRANCH   8  26
TORSDOF 6
ENDMDL
