MODEL 1
REMARK VINA RESULT:      -6.3      0.000      0.000
REMARK  Name = Belinostat.pdbqt.pdb
REMARK  6 active torsions:
REMARK  status: ('A' for Active; 'I' for Inactive)
REMARK    1  A    between atoms: C_1  and  S_7
REMARK    2  A    between atoms: C_3  and  C_18
REMARK    3  A    between atoms: S_7  and  N_10
REMARK    4  A    between atoms: N_10  and  C_12
REMARK    5  A    between atoms: C_19  and  C_20
REMARK    6  A    between atoms: N_22  and  O_24
REMARK                            x       y       z     vdW  Elec       q    Type
REMARK                         _______ _______ _______ _____ _____    ______ ____
ROOT
ATOM      1  C   UNL     1     -16.866   8.090  -0.493  0.00  0.00    +0.000 A 
ATOM      2  C   UNL     1     -16.340   8.985  -1.418  0.00  0.00    +0.000 A 
ATOM      3  C   UNL     1     -15.563  10.046  -0.963  0.00  0.00    +0.000 A 
ATOM      4  C   UNL     1     -16.609   8.215   0.868  0.00  0.00    +0.000 A 
ATOM      5  C   UNL     1     -15.308  10.195   0.400  0.00  0.00    +0.000 A 
ATOM      6  C   UNL     1     -15.829   9.279   1.314  0.00  0.00    +0.000 A 
ENDROOT
BRANCH   1   7
ATOM      7  S   UNL     1     -17.815   6.724  -1.058  0.00  0.00    +0.000 S 
ATOM      8  O   UNL     1     -19.076   7.251  -1.533  0.00  0.00    +0.000 OA
ATOM      9  O   UNL     1     -17.769   5.692  -0.046  0.00  0.00    +0.000 OA
BRANCH   7  10
ATOM     10  N   UNL     1     -16.978   6.205  -2.413  0.00  0.00    +0.000 N 
ATOM     11  H   UNL     1     -17.099   6.793  -3.236  0.00  0.00    +0.000 HD
BRANCH  10  12
ATOM     12  C   UNL     1     -15.883   5.297  -2.355  0.00  0.00    +0.000 A 
ATOM     13  C   UNL     1     -14.573   5.710  -2.121  0.00  0.00    +0.000 A 
ATOM     14  C   UNL     1     -13.550   4.773  -1.992  0.00  0.00    +0.000 A 
ATOM     15  C   UNL     1     -13.840   3.414  -2.070  0.00  0.00    +0.000 A 
ATOM     16  C   UNL     1     -15.152   2.994  -2.267  0.00  0.00    +0.000 A 
ATOM     17  C   UNL     1     -16.171   3.933  -2.397  0.00  0.00    +0.000 A 
ENDBRANCH  10  12
ENDBRANCH   7  10
ENDBRANCH   1   7
BRANCH   3  18
ATOM     18  C   UNL     1     -15.027  10.982  -1.896  0.00  0.00    +0.000 C 
ATOM     19  C   UNL     1     -14.573  11.768  -2.683  0.00  0.00    +0.000 C 
BRANCH  19  20
ATOM     20  C   UNL     1     -14.027  12.712  -3.627  0.00  0.00    +0.000 C 
ATOM     21  O   UNL     1     -13.300  12.331  -4.537  0.00  0.00    +0.000 OA
ATOM     22  N   UNL     1     -14.381  14.018  -3.438  0.00  0.00    +0.000 N 
ATOM     23  H   UNL     1     -15.026  14.342  -2.727  0.00  0.00    +0.000 HD
BRANCH  22  24
ATOM     24  O   UNL     1     -13.905  14.965  -4.372  0.00  0.00    +0.000 OA
ATOM     25  H   UNL     1     -12.979  14.674  -4.521  0.00  0.00    +0.000 HD
ENDBRANCH  22  24
ENDBRANCH  19  20
ENDBRANCH   3  18
TORSDOF 6
ENDMDL
MODEL 2
REMARK VINA RESULT:      -5.9     12.358     15.067
REMARK  Name = Belinostat.pdbqt.pdb
REMARK  6 active torsions:
REMARK  status: ('A' for Active; 'I' for Inactive)
REMARK    1  A    between atoms: C_1  and  S_7
REMARK    2  A    between atoms: C_3  and  C_18
REMARK    3  A    between atoms: S_7  and  N_10
REMARK    4  A    between atoms: N_10  and  C_12
REMARK    5  A    between atoms: C_19  and  C_20
REMARK    6  A    between atoms: N_22  and  O_24
REMARK                            x       y       z     vdW  Elec       q    Type
REMARK                         _______ _______ _______ _____ _____    ______ ____
ROOT
ATOM      1  C   UNL     1      -3.208   2.236   1.822  0.00  0.00    +0.000 A 
ATOM      2  C   UNL     1      -4.592   2.294   1.696  0.00  0.00    +0.000 A 
ATOM      3  C   UNL     1      -5.377   1.465   2.490  0.00  0.00    +0.000 A 
ATOM      4  C   UNL     1      -2.597   1.392   2.743  0.00  0.00    +0.000 A 
ATOM      5  C   UNL     1      -4.780   0.601   3.409  0.00  0.00    +0.000 A 
ATOM      6  C   UNL     1      -3.390   0.567   3.535  0.00  0.00    +0.000 A 
ENDROOT
BRANCH   1   7
ATOM      7  S   UNL     1      -2.209   3.307   0.853  0.00  0.00    +0.000 S 
ATOM      8  O   UNL     1      -2.853   3.436  -0.437  0.00  0.00    +0.000 OA
ATOM      9  O   UNL     1      -0.836   2.865   0.962  0.00  0.00    +0.000 OA
BRANCH   7  10
ATOM     10  N   UNL     1      -2.374   4.788   1.616  0.00  0.00    +0.000 N 
ATOM     11  H   UNL     1      -3.313   5.182   1.575  0.00  0.00    +0.000 HD
BRANCH  10  12
ATOM     12  C   UNL     1      -1.450   5.277   2.582  0.00  0.00    +0.000 A 
ATOM     13  C   UNL     1      -1.348   4.745   3.866  0.00  0.00    +0.000 A 
ATOM     14  C   UNL     1      -0.370   5.206   4.745  0.00  0.00    +0.000 A 
ATOM     15  C   UNL     1       0.529   6.185   4.332  0.00  0.00    +0.000 A 
ATOM     16  C   UNL     1       0.455   6.695   3.039  0.00  0.00    +0.000 A 
ATOM     17  C   UNL     1      -0.524   6.233   2.164  0.00  0.00    +0.000 A 
ENDBRANCH  10  12
ENDBRANCH   7  10
ENDBRANCH   1   7
BRANCH   3  18
ATOM     18  C   UNL     1      -6.798   1.500   2.365  0.00  0.00    +0.000 C 
ATOM     19  C   UNL     1      -7.994   1.527   2.262  0.00  0.00    +0.000 C 
BRANCH  19  20
ATOM     20  C   UNL     1      -9.430   1.560   2.138  0.00  0.00    +0.000 C 
ATOM     21  O   UNL     1      -9.957   1.706   1.041  0.00  0.00    +0.000 OA
ATOM     22  N   UNL     1     -10.133   1.412   3.301  0.00  0.00    +0.000 N 
ATOM     23  H   UNL     1      -9.715   1.233   4.206  0.00  0.00    +0.000 HD
BRANCH  22  24
ATOM     24  O   UNL     1     -11.543   1.391   3.213  0.00  0.00    +0.000 OA
ATOM     25  H   UNL     1     -11.700   1.439   2.244  0.00  0.00    +0.000 HD
ENDBRANCH  22  24
ENDBRANCH  19  20
ENDBRANCH   3  18
TORSDOF 6
ENDMDL
MODEL 3
REMARK VINA RESULT:      -5.9      1.959      2.245
REMARK  Name = Belinostat.pdbqt.pdb
REMARK  6 active torsions:
REMARK  status: ('A' for Active; 'I' for Inactive)
REMARK    1  A    between atoms: C_1  and  S_7
REMARK    2  A    between atoms: C_3  and  C_18
REMARK    3  A    between atoms: S_7  and  N_10
REMARK    4  A    between atoms: N_10  and  C_12
REMARK    5  A    between atoms: C_19  and  C_20
REMARK    6  A    between atoms: N_22  and  O_24
REMARK                            x       y       z     vdW  Elec       q    Type
REMARK                         _______ _______ _______ _____ _____    ______ ____
ROOT
ATOM      1  C   UNL     1     -16.391   7.369  -0.713  0.00  0.00    +0.000 A 
ATOM      2  C   UNL     1     -15.739   8.519  -1.144  0.00  0.00    +0.000 A 
ATOM      3  C   UNL     1     -15.728   9.638  -0.318  0.00  0.00    +0.000 A 
ATOM      4  C   UNL     1     -17.003   7.305   0.535  0.00  0.00    +0.000 A 
ATOM      5  C   UNL     1     -16.350   9.596   0.930  0.00  0.00    +0.000 A 
ATOM      6  C   UNL     1     -16.986   8.429   1.356  0.00  0.00    +0.000 A 
ENDROOT
BRANCH   1   7
ATOM      7  S   UNL     1     -16.377   5.938  -1.729  0.00  0.00    +0.000 S 
ATOM      8  O   UNL     1     -17.100   6.269  -2.938  0.00  0.00    +0.000 OA
ATOM      9  O   UNL     1     -16.758   4.803  -0.918  0.00  0.00    +0.000 OA
BRANCH   7  10
ATOM     10  N   UNL     1     -14.767   5.787  -2.166  0.00  0.00    +0.000 N 
ATOM     11  H   UNL     1     -14.105   6.039  -1.433  0.00  0.00    +0.000 HD
BRANCH  10  12
ATOM     12  C   UNL     1     -14.327   5.004  -3.270  0.00  0.00    +0.000 A 
ATOM     13  C   UNL     1     -14.523   3.627  -3.344  0.00  0.00    +0.000 A 
ATOM     14  C   UNL     1     -14.146   2.921  -4.484  0.00  0.00    +0.000 A 
ATOM     15  C   UNL     1     -13.594   3.596  -5.569  0.00  0.00    +0.000 A 
ATOM     16  C   UNL     1     -13.429   4.978  -5.516  0.00  0.00    +0.000 A 
ATOM     17  C   UNL     1     -13.807   5.680  -4.374  0.00  0.00    +0.000 A 
ENDBRANCH  10  12
ENDBRANCH   7  10
ENDBRANCH   1   7
BRANCH   3  18
ATOM     18  C   UNL     1     -15.076  10.832  -0.749  0.00  0.00    +0.000 C 
ATOM     19  C   UNL     1     -14.529  11.836  -1.116  0.00  0.00    +0.000 C 
BRANCH  19  20
ATOM     20  C   UNL     1     -13.872  13.041  -1.557  0.00  0.00    +0.000 C 
ATOM     21  O   UNL     1     -12.890  13.468  -0.960  0.00  0.00    +0.000 OA
ATOM     22  N   UNL     1     -14.407  13.645  -2.660  0.00  0.00    +0.000 N 
ATOM     23  H   UNL     1     -15.182  13.275  -3.198  0.00  0.00    +0.000 HD
BRANCH  22  24
ATOM     24  O   UNL     1     -13.761  14.802  -3.149  0.00  0.00    +0.000 OA
ATOM     25  H   UNL     1     -14.253  14.989  -3.978  0.00  0.00    +0.000 HD
ENDBRANCH  22  24
ENDBRANCH  19  20
ENDBRANCH   3  18
TORSDOF 6
ENDMDL
MODEL 4
REMARK VINA RESULT:      -5.9      2.568      3.993
REMARK  Name = Belinostat.pdbqt.pdb
REMARK  6 active torsions:
REMARK  status: ('A' for Active; 'I' for Inactive)
REMARK    1  A    between atoms: C_1  and  S_7
REMARK    2  A    between atoms: C_3  and  C_18
REMARK    3  A    between atoms: S_7  and  N_10
REMARK    4  A    between atoms: N_10  and  C_12
REMARK    5  A    between atoms: C_19  and  C_20
REMARK    6  A    between atoms: N_22  and  O_24
REMARK                            x       y       z     vdW  Elec       q    Type
REMARK                         _______ _______ _______ _____ _____    ______ ____
ROOT
ATOM      1  C   UNL     1     -16.560   7.685  -0.605  0.00  0.00    +0.000 A 
ATOM      2  C   UNL     1     -15.919   8.806  -1.119  0.00  0.00    +0.000 A 
ATOM      3  C   UNL     1     -15.677   9.889  -0.280  0.00  0.00    +0.000 A 
ATOM      4  C   UNL     1     -16.937   7.613   0.733  0.00  0.00    +0.000 A 
ATOM      5  C   UNL     1     -16.061   9.839   1.059  0.00  0.00    +0.000 A 
ATOM      6  C   UNL     1     -16.689   8.700   1.565  0.00  0.00    +0.000 A 
ENDROOT
BRANCH   1   7
ATOM      7  S   UNL     1     -16.835   6.296  -1.644  0.00  0.00    +0.000 S 
ATOM      8  O   UNL     1     -16.958   5.140  -0.782  0.00  0.00    +0.000 OA
ATOM      9  O   UNL     1     -15.862   6.332  -2.713  0.00  0.00    +0.000 OA
BRANCH   7  10
ATOM     10  N   UNL     1     -18.360   6.580  -2.276  0.00  0.00    +0.000 N 
ATOM     11  H   UNL     1     -19.022   5.817  -2.141  0.00  0.00    +0.000 HD
BRANCH  10  12
ATOM     12  C   UNL     1     -18.844   7.880  -2.597  0.00  0.00    +0.000 A 
ATOM     13  C   UNL     1     -18.509   8.539  -3.778  0.00  0.00    +0.000 A 
ATOM     14  C   UNL     1     -19.075   9.775  -4.081  0.00  0.00    +0.000 A 
ATOM     15  C   UNL     1     -20.002  10.345  -3.214  0.00  0.00    +0.000 A 
ATOM     16  C   UNL     1     -20.369   9.675  -2.050  0.00  0.00    +0.000 A 
ATOM     17  C   UNL     1     -19.800   8.440  -1.750  0.00  0.00    +0.000 A 
ENDBRANCH  10  12
ENDBRANCH   7  10
ENDBRANCH   1   7
BRANCH   3  18
ATOM     18  C   UNL     1     -15.032  11.054  -0.794  0.00  0.00    +0.000 C 
ATOM     19  C   UNL     1     -14.487  12.033  -1.227  0.00  0.00    +0.000 C 
BRANCH  19  20
ATOM     20  C   UNL     1     -13.832  13.207  -1.746  0.00  0.00    +0.000 C 
ATOM     21  O   UNL     1     -13.721  14.214  -1.056  0.00  0.00    +0.000 OA
ATOM     22  N   UNL     1     -13.352  13.109  -3.022  0.00  0.00    +0.000 N 
ATOM     23  H   UNL     1     -13.384  12.267  -3.585  0.00  0.00    +0.000 HD
BRANCH  22  24
ATOM     24  O   UNL     1     -12.662  14.224  -3.548  0.00  0.00    +0.000 OA
ATOM     25  H   UNL     1     -12.845  14.157  -4.510  0.00  0.00    +0.000 HD
ENDBRANCH  22  24
ENDBRANCH  19  20
ENDBRANCH   3  18
TORSDOF 6
ENDMDL
MODEL 5
REMARK VINA RESULT:      -5.5      2.232      2.659
REMARK  Name = Belinostat.pdbqt.pdb
REMARK  6 active torsions:
REMARK  status: ('A' for Active; 'I' for Inactive)
REMARK    1  A    between atoms: C_1  and  S_7
REMARK    2  A    between atoms: C_3  and  C_18
REMARK    3  A    between atoms: S_7  and  N_10
REMARK    4  A    between atoms: N_10  and  C_12
REMARK    5  A    between atoms: C_19  and  C_20
REMARK    6  A    between atoms: N_22  and  O_24
REMARK                            x       y       z     vdW  Elec       q    Type
REMARK                         _______ _______ _______ _____ _____    ______ ____
ROOT
ATOM      1  C   UNL     1     -15.533   8.393  -1.462  0.00  0.00    +0.000 A 
ATOM      2  C   UNL     1     -15.184   9.520  -2.197  0.00  0.00    +0.000 A 
ATOM      3  C   UNL     1     -14.893  10.702  -1.523  0.00  0.00    +0.000 A 
ATOM      4  C   UNL     1     -15.567   8.413  -0.072  0.00  0.00    +0.000 A 
ATOM      5  C   UNL     1     -14.938  10.744  -0.130  0.00  0.00    +0.000 A 
ATOM      6  C   UNL     1     -15.273   9.600   0.595  0.00  0.00    +0.000 A 
ENDROOT
BRANCH   1   7
ATOM      7  S   UNL     1     -15.863   6.885  -2.301  0.00  0.00    +0.000 S 
ATOM      8  O   UNL     1     -14.776   5.981  -1.990  0.00  0.00    +0.000 OA
ATOM      9  O   UNL     1     -16.209   7.196  -3.671  0.00  0.00    +0.000 OA
BRANCH   7  10
ATOM     10  N   UNL     1     -17.215   6.290  -1.512  0.00  0.00    +0.000 N 
ATOM     11  H   UNL     1     -17.801   7.004  -1.081  0.00  0.00    +0.000 HD
BRANCH  10  12
ATOM     12  C   UNL     1     -17.749   4.992  -1.747  0.00  0.00    +0.000 A 
ATOM     13  C   UNL     1     -18.215   4.583  -2.995  0.00  0.00    +0.000 A 
ATOM     14  C   UNL     1     -18.652   3.275  -3.191  0.00  0.00    +0.000 A 
ATOM     15  C   UNL     1     -18.598   2.361  -2.143  0.00  0.00    +0.000 A 
ATOM     16  C   UNL     1     -18.099   2.753  -0.904  0.00  0.00    +0.000 A 
ATOM     17  C   UNL     1     -17.664   4.061  -0.712  0.00  0.00    +0.000 A 
ENDBRANCH  10  12
ENDBRANCH   7  10
ENDBRANCH   1   7
BRANCH   3  18
ATOM     18  C   UNL     1     -14.548  11.873  -2.261  0.00  0.00    +0.000 C 
ATOM     19  C   UNL     1     -14.258  12.857  -2.885  0.00  0.00    +0.000 C 
BRANCH  19  20
ATOM     20  C   UNL     1     -13.912  14.039  -3.635  0.00  0.00    +0.000 C 
ATOM     21  O   UNL     1     -12.752  14.434  -3.672  0.00  0.00    +0.000 OA
ATOM     22  N   UNL     1     -14.942  14.659  -4.285  0.00  0.00    +0.000 N 
ATOM     23  H   UNL     1     -15.895  14.314  -4.311  0.00  0.00    +0.000 HD
BRANCH  22  24
ATOM     24  O   UNL     1     -14.632  15.792  -5.068  0.00  0.00    +0.000 OA
ATOM     25  H   UNL     1     -15.459  16.320  -5.020  0.00  0.00    +0.000 HD
ENDBRANCH  22  24
ENDBRANCH  19  20
ENDBRANCH   3  18
TORSDOF 6
ENDMDL
MODEL 6
REMARK VINA RESULT:      -5.4      3.444      8.005
REMARK  Name = Belinostat.pdbqt.pdb
REMARK  6 active torsions:
REMARK  status: ('A' for Active; 'I' for Inactive)
REMARK    1  A    between atoms: C_1  and  S_7
REMARK    2  A    between atoms: C_3  and  C_18
REMARK    3  A    between atoms: S_7  and  N_10
REMARK    4  A    between atoms: N_10  and  C_12
REMARK    5  A    between atoms: C_19  and  C_20
REMARK    6  A    between atoms: N_22  and  O_24
REMARK                            x       y       z     vdW  Elec       q    Type
REMARK                         _______ _______ _______ _____ _____    ______ ____
ROOT
ATOM      1  C   UNL     1     -14.016  12.466  -3.449  0.00  0.00    +0.000 A 
ATOM      2  C   UNL     1     -14.648  11.388  -2.840  0.00  0.00    +0.000 A 
ATOM      3  C   UNL     1     -14.785  11.380  -1.456  0.00  0.00    +0.000 A 
ATOM      4  C   UNL     1     -13.546  13.546  -2.709  0.00  0.00    +0.000 A 
ATOM      5  C   UNL     1     -14.305  12.447  -0.697  0.00  0.00    +0.000 A 
ATOM      6  C   UNL     1     -13.688  13.531  -1.324  0.00  0.00    +0.000 A 
ENDROOT
BRANCH   1   7
ATOM      7  S   UNL     1     -13.875  12.506  -5.199  0.00  0.00    +0.000 S 
ATOM      8  O   UNL     1     -15.111  13.058  -5.712  0.00  0.00    +0.000 OA
ATOM      9  O   UNL     1     -13.389  11.218  -5.643  0.00  0.00    +0.000 OA
BRANCH   7  10
ATOM     10  N   UNL     1     -12.693  13.663  -5.467  0.00  0.00    +0.000 N 
ATOM     11  H   UNL     1     -12.958  14.609  -5.194  0.00  0.00    +0.000 HD
BRANCH  10  12
ATOM     12  C   UNL     1     -11.318  13.347  -5.654  0.00  0.00    +0.000 A 
ATOM     13  C   UNL     1     -10.442  13.130  -4.593  0.00  0.00    +0.000 A 
ATOM     14  C   UNL     1      -9.126  12.742  -4.832  0.00  0.00    +0.000 A 
ATOM     15  C   UNL     1      -8.687  12.542  -6.138  0.00  0.00    +0.000 A 
ATOM     16  C   UNL     1      -9.568  12.721  -7.201  0.00  0.00    +0.000 A 
ATOM     17  C   UNL     1     -10.882  13.110  -6.958  0.00  0.00    +0.000 A 
ENDBRANCH  10  12
ENDBRANCH   7  10
ENDBRANCH   1   7
BRANCH   3  18
ATOM     18  C   UNL     1     -15.417  10.275  -0.812  0.00  0.00    +0.000 C 
ATOM     19  C   UNL     1     -15.951   9.343  -0.273  0.00  0.00    +0.000 C 
BRANCH  19  20
ATOM     20  C   UNL     1     -16.591   8.225   0.373  0.00  0.00    +0.000 C 
ATOM     21  O   UNL     1     -16.848   8.263   1.571  0.00  0.00    +0.000 OA
ATOM     22  N   UNL     1     -16.886   7.159  -0.430  0.00  0.00    +0.000 N 
ATOM     23  H   UNL     1     -16.732   7.135  -1.431  0.00  0.00    +0.000 HD
BRANCH  22  24
ATOM     24  O   UNL     1     -17.557   6.064   0.159  0.00  0.00    +0.000 OA
ATOM     25  H   UNL     1     -18.046   5.678  -0.600  0.00  0.00    +0.000 HD
ENDBRANCH  22  24
ENDBRANCH  19  20
ENDBRANCH   3  18
TORSDOF 6
ENDMDL
MODEL 7
REMARK VINA RESULT:      -5.4     13.979     15.703
REMARK  Name = Belinostat.pdbqt.pdb
REMARK  6 active torsions:
REMARK  status: ('A' for Active; 'I' for Inactive)
REMARK    1  A    between atoms: C_1  and  S_7
REMARK    2  A    between atoms: C_3  and  C_18
REMARK    3  A    between atoms: S_7  and  N_10
REMARK    4  A    between atoms: N_10  and  C_12
REMARK    5  A    between atoms: C_19  and  C_20
REMARK    6  A    between atoms: N_22  and  O_24
REMARK                            x       y       z     vdW  Elec       q    Type
REMARK                         _______ _______ _______ _____ _____    ______ ____
ROOT
ATOM      1  C   UNL     1     -22.814  15.423   9.379  0.00  0.00    +0.000 A 
ATOM      2  C   UNL     1     -22.571  16.179  10.519  0.00  0.00    +0.000 A 
ATOM      3  C   UNL     1     -22.079  17.473  10.379  0.00  0.00    +0.000 A 
ATOM      4  C   UNL     1     -22.604  15.940   8.105  0.00  0.00    +0.000 A 
ATOM      5  C   UNL     1     -21.848  18.002   9.109  0.00  0.00    +0.000 A 
ATOM      6  C   UNL     1     -22.113  17.236   7.973  0.00  0.00    +0.000 A 
ENDROOT
BRANCH   1   7
ATOM      7  S   UNL     1     -23.474  13.803   9.542  0.00  0.00    +0.000 S 
ATOM      8  O   UNL     1     -24.801  13.826   8.966  0.00  0.00    +0.000 OA
ATOM      9  O   UNL     1     -23.257  13.362  10.903  0.00  0.00    +0.000 OA
BRANCH   7  10
ATOM     10  N   UNL     1     -22.523  12.890   8.509  0.00  0.00    +0.000 N 
ATOM     11  H   UNL     1     -21.531  12.884   8.742  0.00  0.00    +0.000 HD
BRANCH  10  12
ATOM     12  C   UNL     1     -23.047  11.885   7.648  0.00  0.00    +0.000 A 
ATOM     13  C   UNL     1     -23.711  12.181   6.459  0.00  0.00    +0.000 A 
ATOM     14  C   UNL     1     -24.132  11.159   5.612  0.00  0.00    +0.000 A 
ATOM     15  C   UNL     1     -23.865   9.833   5.940  0.00  0.00    +0.000 A 
ATOM     16  C   UNL     1     -23.170   9.531   7.108  0.00  0.00    +0.000 A 
ATOM     17  C   UNL     1     -22.752  10.556   7.952  0.00  0.00    +0.000 A 
ENDBRANCH  10  12
ENDBRANCH   7  10
ENDBRANCH   1   7
BRANCH   3  18
ATOM     18  C   UNL     1     -21.810  18.259  11.539  0.00  0.00    +0.000 C 
ATOM     19  C   UNL     1     -21.582  18.918  12.516  0.00  0.00    +0.000 C 
BRANCH  19  20
ATOM     20  C   UNL     1     -21.308  19.710  13.690  0.00  0.00    +0.000 C 
ATOM     21  O   UNL     1     -21.998  19.590  14.695  0.00  0.00    +0.000 OA
ATOM     22  N   UNL     1     -20.248  20.567  13.599  0.00  0.00    +0.000 N 
ATOM     23  H   UNL     1     -19.632  20.637  12.796  0.00  0.00    +0.000 HD
BRANCH  22  24
ATOM     24  O   UNL     1     -19.919  21.324  14.745  0.00  0.00    +0.000 OA
ATOM     25  H   UNL     1     -19.733  20.631  15.415  0.00  0.00    +0.000 HD
ENDBRANCH  22  24
ENDBRANCH  19  20
ENDBRANCH   3  18
TORSDOF 6
ENDMDL
MODEL 8
REMARK VINA RESULT:      -5.4     28.160     30.677
REMARK  Name = Belinostat.pdbqt.pdb
REMARK  6 active torsions:
REMARK  status: ('A' for Active; 'I' for Inactive)
REMARK    1  A    between atoms: C_1  and  S_7
REMARK    2  A    between atoms: C_3  and  C_18
REMARK    3  A    between atoms: S_7  and  N_10
REMARK    4  A    between atoms: N_10  and  C_12
REMARK    5  A    between atoms: C_19  and  C_20
REMARK    6  A    between atoms: N_22  and  O_24
REMARK                            x       y       z     vdW  Elec       q    Type
REMARK                         _______ _______ _______ _____ _____    ______ ____
ROOT
ATOM      1  C   UNL     1     -14.186  18.370  27.405  0.00  0.00    +0.000 A 
ATOM      2  C   UNL     1     -14.905  18.264  26.220  0.00  0.00    +0.000 A 
ATOM      3  C   UNL     1     -14.709  19.215  25.224  0.00  0.00    +0.000 A 
ATOM      4  C   UNL     1     -13.258  19.387  27.603  0.00  0.00    +0.000 A 
ATOM      5  C   UNL     1     -13.793  20.250  25.413  0.00  0.00    +0.000 A 
ATOM      6  C   UNL     1     -13.067  20.334  26.602  0.00  0.00    +0.000 A 
ENDROOT
BRANCH   1   7
ATOM      7  S   UNL     1     -14.395  17.151  28.652  0.00  0.00    +0.000 S 
ATOM      8  O   UNL     1     -13.083  16.871  29.195  0.00  0.00    +0.000 OA
ATOM      9  O   UNL     1     -15.225  16.094  28.117  0.00  0.00    +0.000 OA
BRANCH   7  10
ATOM     10  N   UNL     1     -15.240  17.962  29.850  0.00  0.00    +0.000 N 
ATOM     11  H   UNL     1     -14.738  18.055  30.732  0.00  0.00    +0.000 HD
BRANCH  10  12
ATOM     12  C   UNL     1     -16.354  18.808  29.585  0.00  0.00    +0.000 A 
ATOM     13  C   UNL     1     -17.564  18.328  29.089  0.00  0.00    +0.000 A 
ATOM     14  C   UNL     1     -18.649  19.186  28.925  0.00  0.00    +0.000 A 
ATOM     15  C   UNL     1     -18.535  20.526  29.283  0.00  0.00    +0.000 A 
ATOM     16  C   UNL     1     -17.340  21.004  29.813  0.00  0.00    +0.000 A 
ATOM     17  C   UNL     1     -16.257  20.144  29.974  0.00  0.00    +0.000 A 
ENDBRANCH  10  12
ENDBRANCH   7  10
ENDBRANCH   1   7
BRANCH   3  18
ATOM     18  C   UNL     1     -15.448  19.131  24.007  0.00  0.00    +0.000 C 
ATOM     19  C   UNL     1     -16.069  19.057  22.981  0.00  0.00    +0.000 C 
BRANCH  19  20
ATOM     20  C   UNL     1     -16.813  18.968  21.750  0.00  0.00    +0.000 C 
ATOM     21  O   UNL     1     -16.291  19.274  20.684  0.00  0.00    +0.000 OA
ATOM     22  N   UNL     1     -18.100  18.521  21.860  0.00  0.00    +0.000 N 
ATOM     23  H   UNL     1     -18.528  18.210  22.724  0.00  0.00    +0.000 HD
BRANCH  22  24
ATOM     24  O   UNL     1     -18.845  18.375  20.669  0.00  0.00    +0.000 OA
ATOM     25  H   UNL     1     -18.149  18.389  19.976  0.00  0.00    +0.000 HD
ENDBRANCH  22  24
ENDBRANCH  19  20
ENDBRANCH   3  18
TORSDOF 6
ENDMDL
MODEL 9
REMARK VINA RESULT:      -5.3     19.772     20.990
REMARK  Name = Belinostat.pdbqt.pdb
REMARK  6 active torsions:
REMARK  status: ('A' for Active; 'I' for Inactive)
REMARK    1  A    between atoms: C_1  and  S_7
REMARK    2  A    between atoms: C_3  and  C_18
REMARK    3  A    between atoms: S_7  and  N_10
REMARK    4  A    between atoms: N_10  and  C_12
REMARK    5  A    between atoms: C_19  and  C_20
REMARK    6  A    between atoms: N_22  and  O_24
REMARK                            x       y       z     vdW  Elec       q    Type
REMARK                         _______ _______ _______ _____ _____    ______ ____
ROOT
ATOM      1  C   UNL     1      -4.891   4.545  15.904  0.00  0.00    +0.000 A 
ATOM      2  C   UNL     1      -3.884   4.619  14.949  0.00  0.00    +0.000 A 
ATOM      3  C   UNL     1      -2.802   5.465  15.172  0.00  0.00    +0.000 A 
ATOM      4  C   UNL     1      -4.826   5.275  17.087  0.00  0.00    +0.000 A 
ATOM      5  C   UNL     1      -2.729   6.215  16.346  0.00  0.00    +0.000 A 
ATOM      6  C   UNL     1      -3.740   6.118  17.303  0.00  0.00    +0.000 A 
ENDROOT
BRANCH   1   7
ATOM      7  S   UNL     1      -6.241   3.451  15.652  0.00  0.00    +0.000 S 
ATOM      8  O   UNL     1      -6.692   3.025  16.959  0.00  0.00    +0.000 OA
ATOM      9  O   UNL     1      -5.859   2.487  14.642  0.00  0.00    +0.000 OA
BRANCH   7  10
ATOM     10  N   UNL     1      -7.439   4.447  15.038  0.00  0.00    +0.000 N 
ATOM     11  H   UNL     1      -7.681   4.266  14.064  0.00  0.00    +0.000 HD
BRANCH  10  12
ATOM     12  C   UNL     1      -8.337   5.186  15.858  0.00  0.00    +0.000 A 
ATOM     13  C   UNL     1      -8.079   6.490  16.276  0.00  0.00    +0.000 A 
ATOM     14  C   UNL     1      -9.028   7.197  17.009  0.00  0.00    +0.000 A 
ATOM     15  C   UNL     1     -10.255   6.611  17.304  0.00  0.00    +0.000 A 
ATOM     16  C   UNL     1     -10.535   5.322  16.859  0.00  0.00    +0.000 A 
ATOM     17  C   UNL     1      -9.583   4.618  16.127  0.00  0.00    +0.000 A 
ENDBRANCH  10  12
ENDBRANCH   7  10
ENDBRANCH   1   7
BRANCH   3  18
ATOM     18  C   UNL     1      -1.766   5.563  14.197  0.00  0.00    +0.000 C 
ATOM     19  C   UNL     1      -0.895   5.649  13.375  0.00  0.00    +0.000 C 
BRANCH  19  20
ATOM     20  C   UNL     1       0.151   5.753  12.388  0.00  0.00    +0.000 C 
ATOM     21  O   UNL     1       0.470   6.846  11.932  0.00  0.00    +0.000 OA
ATOM     22  N   UNL     1       0.744   4.578  12.019  0.00  0.00    +0.000 N 
ATOM     23  H   UNL     1       0.532   3.675  12.427  0.00  0.00    +0.000 HD
BRANCH  22  24
ATOM     24  O   UNL     1       1.805   4.646  11.089  0.00  0.00    +0.000 OA
ATOM     25  H   UNL     1       1.345   4.536  10.229  0.00  0.00    +0.000 HD
ENDBRANCH  22  24
ENDBRANCH  19  20
ENDBRANCH   3  18
TORSDOF 6
ENDMDL
