MODEL 1
REMARK VINA RESULT:      -9.0      0.000      0.000
REMARK  Name = Benzo[a]pyrene.pdbqt.pdb
REMARK  0 active torsions:
REMARK  status: ('A' for Active; 'I' for Inactive)
REMARK                            x       y       z     vdW  Elec       q    Type
REMARK                         _______ _______ _______ _____ _____    ______ ____
ROOT
ATOM      1  C   UNL     1     -14.560  11.040  -2.722  0.00  0.00    +0.000 A 
ATOM      2  C   UNL     1     -13.972  12.120  -3.417  0.00  0.00    +0.000 A 
ATOM      3  C   UNL     1     -14.818  11.136  -1.336  0.00  0.00    +0.000 A 
ATOM      4  C   UNL     1     -14.887   9.864  -3.431  0.00  0.00    +0.000 A 
ATOM      5  C   UNL     1     -15.409  10.037  -0.666  0.00  0.00    +0.000 A 
ATOM      6  C   UNL     1     -13.637  13.304  -2.728  0.00  0.00    +0.000 A 
ATOM      7  C   UNL     1     -13.716  12.019  -4.800  0.00  0.00    +0.000 A 
ATOM      8  C   UNL     1     -15.729   8.869  -1.394  0.00  0.00    +0.000 A 
ATOM      9  C   UNL     1     -15.467   8.794  -2.759  0.00  0.00    +0.000 A 
ATOM     10  C   UNL     1     -14.472  12.331  -0.682  0.00  0.00    +0.000 A 
ATOM     11  C   UNL     1     -14.629   9.779  -4.799  0.00  0.00    +0.000 A 
ATOM     12  C   UNL     1     -13.891  13.400  -1.363  0.00  0.00    +0.000 A 
ATOM     13  C   UNL     1     -14.048  10.847  -5.480  0.00  0.00    +0.000 A 
ATOM     14  C   UNL     1     -13.057  14.365  -3.422  0.00  0.00    +0.000 A 
ATOM     15  C   UNL     1     -13.135  13.091  -5.476  0.00  0.00    +0.000 A 
ATOM     16  C   UNL     1     -15.697  10.055   0.710  0.00  0.00    +0.000 A 
ATOM     17  C   UNL     1     -16.312   7.775  -0.754  0.00  0.00    +0.000 A 
ATOM     18  C   UNL     1     -12.806  14.260  -4.789  0.00  0.00    +0.000 A 
ATOM     19  C   UNL     1     -16.279   8.959   1.343  0.00  0.00    +0.000 A 
ATOM     20  C   UNL     1     -16.586   7.819   0.611  0.00  0.00    +0.000 A 
ENDROOT
TORSDOF 0
ENDMDL
MODEL 2
REMARK VINA RESULT:      -8.9      1.119      6.179
REMARK  Name = Benzo[a]pyrene.pdbqt.pdb
REMARK  0 active torsions:
REMARK  status: ('A' for Active; 'I' for Inactive)
REMARK                            x       y       z     vdW  Elec       q    Type
REMARK                         _______ _______ _______ _____ _____    ______ ____
ROOT
ATOM      1  C   UNL     1     -15.509   9.526  -1.416  0.00  0.00    +0.000 A 
ATOM      2  C   UNL     1     -16.079   8.234  -1.360  0.00  0.00    +0.000 A 
ATOM      3  C   UNL     1     -15.050  10.053  -2.644  0.00  0.00    +0.000 A 
ATOM      4  C   UNL     1     -15.404  10.282  -0.229  0.00  0.00    +0.000 A 
ATOM      5  C   UNL     1     -14.483  11.350  -2.670  0.00  0.00    +0.000 A 
ATOM      6  C   UNL     1     -16.194   7.462  -2.534  0.00  0.00    +0.000 A 
ATOM      7  C   UNL     1     -16.535   7.713  -0.131  0.00  0.00    +0.000 A 
ATOM      8  C   UNL     1     -14.387  12.092  -1.471  0.00  0.00    +0.000 A 
ATOM      9  C   UNL     1     -14.844  11.554  -0.270  0.00  0.00    +0.000 A 
ATOM     10  C   UNL     1     -15.180   9.255  -3.795  0.00  0.00    +0.000 A 
ATOM     11  C   UNL     1     -15.859   9.753   0.978  0.00  0.00    +0.000 A 
ATOM     12  C   UNL     1     -15.742   7.980  -3.744  0.00  0.00    +0.000 A 
ATOM     13  C   UNL     1     -16.421   8.478   1.028  0.00  0.00    +0.000 A 
ATOM     14  C   UNL     1     -16.758   6.189  -2.470  0.00  0.00    +0.000 A 
ATOM     15  C   UNL     1     -17.096   6.437  -0.088  0.00  0.00    +0.000 A 
ATOM     16  C   UNL     1     -14.004  11.944  -3.851  0.00  0.00    +0.000 A 
ATOM     17  C   UNL     1     -13.832  13.371  -1.473  0.00  0.00    +0.000 A 
ATOM     18  C   UNL     1     -17.207   5.678  -1.253  0.00  0.00    +0.000 A 
ATOM     19  C   UNL     1     -13.451  13.223  -3.847  0.00  0.00    +0.000 A 
ATOM     20  C   UNL     1     -13.365  13.936  -2.657  0.00  0.00    +0.000 A 
ENDROOT
TORSDOF 0
ENDMDL
MODEL 3
REMARK VINA RESULT:      -8.7      0.710      2.912
REMARK  Name = Benzo[a]pyrene.pdbqt.pdb
REMARK  0 active torsions:
REMARK  status: ('A' for Active; 'I' for Inactive)
REMARK                            x       y       z     vdW  Elec       q    Type
REMARK                         _______ _______ _______ _____ _____    ______ ____
ROOT
ATOM      1  C   UNL     1     -14.434  11.406  -2.633  0.00  0.00    +0.000 A 
ATOM      2  C   UNL     1     -13.955  12.015  -3.814  0.00  0.00    +0.000 A 
ATOM      3  C   UNL     1     -14.945  10.089  -2.665  0.00  0.00    +0.000 A 
ATOM      4  C   UNL     1     -14.394  12.128  -1.422  0.00  0.00    +0.000 A 
ATOM      5  C   UNL     1     -15.419   9.502  -1.466  0.00  0.00    +0.000 A 
ATOM      6  C   UNL     1     -13.985  11.311  -5.034  0.00  0.00    +0.000 A 
ATOM      7  C   UNL     1     -13.445  13.330  -3.776  0.00  0.00    +0.000 A 
ATOM      8  C   UNL     1     -15.371  10.243  -0.263  0.00  0.00    +0.000 A 
ATOM      9  C   UNL     1     -14.863  11.539  -0.252  0.00  0.00    +0.000 A 
ATOM     10  C   UNL     1     -14.961   9.416  -3.899  0.00  0.00    +0.000 A 
ATOM     11  C   UNL     1     -13.888  13.427  -1.400  0.00  0.00    +0.000 A 
ATOM     12  C   UNL     1     -14.489  10.014  -5.067  0.00  0.00    +0.000 A 
ATOM     13  C   UNL     1     -13.416  14.025  -2.567  0.00  0.00    +0.000 A 
ATOM     14  C   UNL     1     -13.511  11.921  -6.195  0.00  0.00    +0.000 A 
ATOM     15  C   UNL     1     -12.975  13.923  -4.947  0.00  0.00    +0.000 A 
ATOM     16  C   UNL     1     -15.942   8.199  -1.415  0.00  0.00    +0.000 A 
ATOM     17  C   UNL     1     -15.831   9.685   0.929  0.00  0.00    +0.000 A 
ATOM     18  C   UNL     1     -13.008  13.221  -6.152  0.00  0.00    +0.000 A 
ATOM     19  C   UNL     1     -16.401   7.647  -0.221  0.00  0.00    +0.000 A 
ATOM     20  C   UNL     1     -16.345   8.391   0.952  0.00  0.00    +0.000 A 
ENDROOT
TORSDOF 0
ENDMDL
MODEL 4
REMARK VINA RESULT:      -8.3      1.781      3.429
REMARK  Name = Benzo[a]pyrene.pdbqt.pdb
REMARK  0 active torsions:
REMARK  status: ('A' for Active; 'I' for Inactive)
REMARK                            x       y       z     vdW  Elec       q    Type
REMARK                         _______ _______ _______ _____ _____    ______ ____
ROOT
ATOM      1  C   UNL     1     -15.661   8.643  -1.913  0.00  0.00    +0.000 A 
ATOM      2  C   UNL     1     -15.144   9.954  -1.811  0.00  0.00    +0.000 A 
ATOM      3  C   UNL     1     -16.141   7.973  -0.765  0.00  0.00    +0.000 A 
ATOM      4  C   UNL     1     -15.691   8.012  -3.174  0.00  0.00    +0.000 A 
ATOM      5  C   UNL     1     -16.654   6.659  -0.895  0.00  0.00    +0.000 A 
ATOM      6  C   UNL     1     -15.104  10.603  -0.561  0.00  0.00    +0.000 A 
ATOM      7  C   UNL     1     -14.665  10.617  -2.961  0.00  0.00    +0.000 A 
ATOM      8  C   UNL     1     -16.676   6.045  -2.168  0.00  0.00    +0.000 A 
ATOM      9  C   UNL     1     -16.197   6.721  -3.287  0.00  0.00    +0.000 A 
ATOM     10  C   UNL     1     -16.087   8.651   0.466  0.00  0.00    +0.000 A 
ATOM     11  C   UNL     1     -15.214   8.680  -4.301  0.00  0.00    +0.000 A 
ATOM     12  C   UNL     1     -15.578   9.944   0.570  0.00  0.00    +0.000 A 
ATOM     13  C   UNL     1     -14.705   9.974  -4.197  0.00  0.00    +0.000 A 
ATOM     14  C   UNL     1     -14.592  11.896  -0.471  0.00  0.00    +0.000 A 
ATOM     15  C   UNL     1     -14.157  11.911  -2.849  0.00  0.00    +0.000 A 
ATOM     16  C   UNL     1     -17.150   5.928   0.197  0.00  0.00    +0.000 A 
ATOM     17  C   UNL     1     -17.176   4.752  -2.320  0.00  0.00    +0.000 A 
ATOM     18  C   UNL     1     -14.121  12.548  -1.610  0.00  0.00    +0.000 A 
ATOM     19  C   UNL     1     -17.649   4.637   0.039  0.00  0.00    +0.000 A 
ATOM     20  C   UNL     1     -17.662   4.049  -1.220  0.00  0.00    +0.000 A 
ENDROOT
TORSDOF 0
ENDMDL
MODEL 5
REMARK VINA RESULT:      -7.9      0.887      5.463
REMARK  Name = Benzo[a]pyrene.pdbqt.pdb
REMARK  0 active torsions:
REMARK  status: ('A' for Active; 'I' for Inactive)
REMARK                            x       y       z     vdW  Elec       q    Type
REMARK                         _______ _______ _______ _____ _____    ______ ____
ROOT
ATOM      1  C   UNL     1     -14.753  10.149  -2.902  0.00  0.00    +0.000 A 
ATOM      2  C   UNL     1     -15.174   9.651  -1.649  0.00  0.00    +0.000 A 
ATOM      3  C   UNL     1     -14.314  11.486  -3.029  0.00  0.00    +0.000 A 
ATOM      4  C   UNL     1     -14.776   9.294  -4.024  0.00  0.00    +0.000 A 
ATOM      5  C   UNL     1     -13.898  11.959  -4.298  0.00  0.00    +0.000 A 
ATOM      6  C   UNL     1     -15.159  10.488  -0.515  0.00  0.00    +0.000 A 
ATOM      7  C   UNL     1     -15.611   8.315  -1.528  0.00  0.00    +0.000 A 
ATOM      8  C   UNL     1     -13.928  11.087  -5.409  0.00  0.00    +0.000 A 
ATOM      9  C   UNL     1     -14.364   9.772  -5.264  0.00  0.00    +0.000 A 
ATOM     10  C   UNL     1     -14.312  12.293  -1.878  0.00  0.00    +0.000 A 
ATOM     11  C   UNL     1     -15.210   7.976  -3.889  0.00  0.00    +0.000 A 
ATOM     12  C   UNL     1     -14.727  11.805  -0.639  0.00  0.00    +0.000 A 
ATOM     13  C   UNL     1     -15.625   7.488  -2.651  0.00  0.00    +0.000 A 
ATOM     14  C   UNL     1     -15.577   9.987   0.717  0.00  0.00    +0.000 A 
ATOM     15  C   UNL     1     -16.025   7.833  -0.286  0.00  0.00    +0.000 A 
ATOM     16  C   UNL     1     -13.449  13.274  -4.506  0.00  0.00    +0.000 A 
ATOM     17  C   UNL     1     -13.523  11.531  -6.667  0.00  0.00    +0.000 A 
ATOM     18  C   UNL     1     -16.007   8.666   0.832  0.00  0.00    +0.000 A 
ATOM     19  C   UNL     1     -13.045  13.712  -5.765  0.00  0.00    +0.000 A 
ATOM     20  C   UNL     1     -13.082  12.840  -6.846  0.00  0.00    +0.000 A 
ENDROOT
TORSDOF 0
ENDMDL
MODEL 6
REMARK VINA RESULT:      -7.6      1.655      5.574
REMARK  Name = Benzo[a]pyrene.pdbqt.pdb
REMARK  0 active torsions:
REMARK  status: ('A' for Active; 'I' for Inactive)
REMARK                            x       y       z     vdW  Elec       q    Type
REMARK                         _______ _______ _______ _____ _____    ______ ____
ROOT
ATOM      1  C   UNL     1     -14.743   9.180  -3.482  0.00  0.00    +0.000 A 
ATOM      2  C   UNL     1     -14.972   9.418  -2.108  0.00  0.00    +0.000 A 
ATOM      3  C   UNL     1     -14.461  10.254  -4.356  0.00  0.00    +0.000 A 
ATOM      4  C   UNL     1     -14.801   7.857  -3.969  0.00  0.00    +0.000 A 
ATOM      5  C   UNL     1     -14.236   9.986  -5.729  0.00  0.00    +0.000 A 
ATOM      6  C   UNL     1     -14.920  10.732  -1.601  0.00  0.00    +0.000 A 
ATOM      7  C   UNL     1     -15.254   8.342  -1.240  0.00  0.00    +0.000 A 
ATOM      8  C   UNL     1     -14.297   8.654  -6.197  0.00  0.00    +0.000 A 
ATOM      9  C   UNL     1     -14.577   7.609  -5.319  0.00  0.00    +0.000 A 
ATOM     10  C   UNL     1     -14.417  11.551  -3.816  0.00  0.00    +0.000 A 
ATOM     11  C   UNL     1     -15.080   6.804  -3.099  0.00  0.00    +0.000 A 
ATOM     12  C   UNL     1     -14.642  11.790  -2.461  0.00  0.00    +0.000 A 
ATOM     13  C   UNL     1     -15.305   7.043  -1.744  0.00  0.00    +0.000 A 
ATOM     14  C   UNL     1     -15.147  10.957  -0.244  0.00  0.00    +0.000 A 
ATOM     15  C   UNL     1     -15.478   8.588   0.114  0.00  0.00    +0.000 A 
ATOM     16  C   UNL     1     -13.949  10.998  -6.661  0.00  0.00    +0.000 A 
ATOM     17  C   UNL     1     -14.079   8.367  -7.544  0.00  0.00    +0.000 A 
ATOM     18  C   UNL     1     -15.425   9.890   0.610  0.00  0.00    +0.000 A 
ATOM     19  C   UNL     1     -13.732  10.705  -8.005  0.00  0.00    +0.000 A 
ATOM     20  C   UNL     1     -13.797   9.389  -8.447  0.00  0.00    +0.000 A 
ENDROOT
TORSDOF 0
ENDMDL
MODEL 7
REMARK VINA RESULT:      -7.5      2.080      5.734
REMARK  Name = Benzo[a]pyrene.pdbqt.pdb
REMARK  0 active torsions:
REMARK  status: ('A' for Active; 'I' for Inactive)
REMARK                            x       y       z     vdW  Elec       q    Type
REMARK                         _______ _______ _______ _____ _____    ______ ____
ROOT
ATOM      1  C   UNL     1     -14.745   9.163  -3.496  0.00  0.00    +0.000 A 
ATOM      2  C   UNL     1     -14.966   9.415  -2.124  0.00  0.00    +0.000 A 
ATOM      3  C   UNL     1     -14.795   7.843  -3.997  0.00  0.00    +0.000 A 
ATOM      4  C   UNL     1     -14.473  10.246  -4.359  0.00  0.00    +0.000 A 
ATOM      5  C   UNL     1     -14.569   7.619  -5.378  0.00  0.00    +0.000 A 
ATOM      6  C   UNL     1     -15.239   8.348  -1.245  0.00  0.00    +0.000 A 
ATOM      7  C   UNL     1     -14.914  10.735  -1.629  0.00  0.00    +0.000 A 
ATOM      8  C   UNL     1     -14.299   8.718  -6.225  0.00  0.00    +0.000 A 
ATOM      9  C   UNL     1     -14.254  10.011  -5.712  0.00  0.00    +0.000 A 
ATOM     10  C   UNL     1     -15.069   6.803  -3.092  0.00  0.00    +0.000 A 
ATOM     11  C   UNL     1     -14.426  11.545  -3.855  0.00  0.00    +0.000 A 
ATOM     12  C   UNL     1     -15.288   7.047  -1.737  0.00  0.00    +0.000 A 
ATOM     13  C   UNL     1     -14.645  11.790  -2.500  0.00  0.00    +0.000 A 
ATOM     14  C   UNL     1     -15.456   8.606   0.108  0.00  0.00    +0.000 A 
ATOM     15  C   UNL     1     -15.134  10.973  -0.272  0.00  0.00    +0.000 A 
ATOM     16  C   UNL     1     -14.602   6.337  -5.953  0.00  0.00    +0.000 A 
ATOM     17  C   UNL     1     -14.074   8.520  -7.587  0.00  0.00    +0.000 A 
ATOM     18  C   UNL     1     -15.404   9.913   0.593  0.00  0.00    +0.000 A 
ATOM     19  C   UNL     1     -14.376   6.147  -7.314  0.00  0.00    +0.000 A 
ATOM     20  C   UNL     1     -14.112   7.239  -8.132  0.00  0.00    +0.000 A 
ENDROOT
TORSDOF 0
ENDMDL
MODEL 8
REMARK VINA RESULT:      -7.3      2.455      4.080
REMARK  Name = Benzo[a]pyrene.pdbqt.pdb
REMARK  0 active torsions:
REMARK  status: ('A' for Active; 'I' for Inactive)
REMARK                            x       y       z     vdW  Elec       q    Type
REMARK                         _______ _______ _______ _____ _____    ______ ____
ROOT
ATOM      1  C   UNL     1     -14.981   8.316  -2.930  0.00  0.00    +0.000 A 
ATOM      2  C   UNL     1     -14.869   9.652  -2.487  0.00  0.00    +0.000 A 
ATOM      3  C   UNL     1     -15.234   7.275  -2.008  0.00  0.00    +0.000 A 
ATOM      4  C   UNL     1     -14.837   8.034  -4.305  0.00  0.00    +0.000 A 
ATOM      5  C   UNL     1     -15.342   5.944  -2.481  0.00  0.00    +0.000 A 
ATOM      6  C   UNL     1     -15.010   9.956  -1.118  0.00  0.00    +0.000 A 
ATOM      7  C   UNL     1     -14.617  10.687  -3.411  0.00  0.00    +0.000 A 
ATOM      8  C   UNL     1     -15.194   5.683  -3.862  0.00  0.00    +0.000 A 
ATOM      9  C   UNL     1     -14.945   6.722  -4.755  0.00  0.00    +0.000 A 
ATOM     10  C   UNL     1     -15.369   7.614  -0.651  0.00  0.00    +0.000 A 
ATOM     11  C   UNL     1     -14.587   9.067  -5.207  0.00  0.00    +0.000 A 
ATOM     12  C   UNL     1     -15.260   8.932  -0.208  0.00  0.00    +0.000 A 
ATOM     13  C   UNL     1     -14.478  10.385  -4.765  0.00  0.00    +0.000 A 
ATOM     14  C   UNL     1     -14.898  11.278  -0.689  0.00  0.00    +0.000 A 
ATOM     15  C   UNL     1     -14.508  12.003  -2.963  0.00  0.00    +0.000 A 
ATOM     16  C   UNL     1     -15.592   4.855  -1.629  0.00  0.00    +0.000 A 
ATOM     17  C   UNL     1     -15.296   4.380  -4.349  0.00  0.00    +0.000 A 
ATOM     18  C   UNL     1     -14.648  12.297  -1.607  0.00  0.00    +0.000 A 
ATOM     19  C   UNL     1     -15.693   3.556  -2.121  0.00  0.00    +0.000 A 
ATOM     20  C   UNL     1     -15.545   3.319  -3.483  0.00  0.00    +0.000 A 
ENDROOT
TORSDOF 0
ENDMDL
MODEL 9
REMARK VINA RESULT:      -7.2      2.443      5.938
REMARK  Name = Benzo[a]pyrene.pdbqt.pdb
REMARK  0 active torsions:
REMARK  status: ('A' for Active; 'I' for Inactive)
REMARK                            x       y       z     vdW  Elec       q    Type
REMARK                         _______ _______ _______ _____ _____    ______ ____
ROOT
ATOM      1  C   UNL     1     -15.778   7.839  -2.256  0.00  0.00    +0.000 A 
ATOM      2  C   UNL     1     -16.037   8.321  -0.954  0.00  0.00    +0.000 A 
ATOM      3  C   UNL     1     -15.093   8.644  -3.194  0.00  0.00    +0.000 A 
ATOM      4  C   UNL     1     -16.214   6.544  -2.608  0.00  0.00    +0.000 A 
ATOM      5  C   UNL     1     -14.848   8.135  -4.493  0.00  0.00    +0.000 A 
ATOM      6  C   UNL     1     -15.611   9.612  -0.581  0.00  0.00    +0.000 A 
ATOM      7  C   UNL     1     -16.721   7.513  -0.022  0.00  0.00    +0.000 A 
ATOM      8  C   UNL     1     -15.292   6.835  -4.826  0.00  0.00    +0.000 A 
ATOM      9  C   UNL     1     -15.966   6.057  -3.887  0.00  0.00    +0.000 A 
ATOM     10  C   UNL     1     -14.683   9.926  -2.789  0.00  0.00    +0.000 A 
ATOM     11  C   UNL     1     -16.889   5.756  -1.676  0.00  0.00    +0.000 A 
ATOM     12  C   UNL     1     -14.936  10.406  -1.504  0.00  0.00    +0.000 A 
ATOM     13  C   UNL     1     -17.141   6.236  -0.392  0.00  0.00    +0.000 A 
ATOM     14  C   UNL     1     -15.870  10.079   0.706  0.00  0.00    +0.000 A 
ATOM     15  C   UNL     1     -16.970   7.999   1.262  0.00  0.00    +0.000 A 
ATOM     16  C   UNL     1     -14.174   8.873  -5.481  0.00  0.00    +0.000 A 
ATOM     17  C   UNL     1     -15.062   6.314  -6.098  0.00  0.00    +0.000 A 
ATOM     18  C   UNL     1     -16.547   9.277   1.624  0.00  0.00    +0.000 A 
ATOM     19  C   UNL     1     -13.947   8.347  -6.751  0.00  0.00    +0.000 A 
ATOM     20  C   UNL     1     -14.391   7.067  -7.059  0.00  0.00    +0.000 A 
ENDROOT
TORSDOF 0
ENDMDL
