MODEL 1
REMARK VINA RESULT:      -7.1      0.000      0.000
REMARK  Name = Bicalutamide.pdbqt.pdb
REMARK  8 active torsions:
REMARK  status: ('A' for Active; 'I' for Inactive)
REMARK    1  A    between atoms: C_2  and  N_13
REMARK    2  A    between atoms: C_5  and  C_9
REMARK    3  A    between atoms: C_6  and  C_8
REMARK    4  A    between atoms: C_14  and  C_17
REMARK    5  A    between atoms: C_17  and  O_19
REMARK    6  A    between atoms: C_17  and  C_21
REMARK    7  A    between atoms: C_21  and  S_22
REMARK    8  A    between atoms: S_22  and  C_25
REMARK                            x       y       z     vdW  Elec       q    Type
REMARK                         _______ _______ _______ _____ _____    ______ ____
ROOT
ATOM      1  N   UNL     1     -15.261   5.332  -2.230  0.00  0.00    +0.000 N 
ATOM      2  C   UNL     1     -14.212   4.444  -2.003  0.00  0.00    +0.000 C 
ATOM      3  O   UNL     1     -13.060   4.778  -1.709  0.00  0.00    +0.000 OA
ATOM      4  H   UNL     1     -16.185   4.920  -2.365  0.00  0.00    +0.000 HD
ENDROOT
BRANCH   1   5
ATOM      5  C   UNL     1     -15.175   6.733  -2.204  0.00  0.00    +0.000 A 
ATOM      6  C   UNL     1     -15.440   7.379  -0.997  0.00  0.00    +0.000 A 
ATOM      7  C   UNL     1     -14.853   7.493  -3.325  0.00  0.00    +0.000 A 
ATOM      8  C   UNL     1     -15.385   8.774  -0.891  0.00  0.00    +0.000 A 
ATOM      9  C   UNL     1     -15.057   9.527  -2.029  0.00  0.00    +0.000 A 
ATOM     10  C   UNL     1     -14.794   8.881  -3.238  0.00  0.00    +0.000 A 
BRANCH   8  11
ATOM     11  C   UNL     1     -15.679   9.417   0.432  0.00  0.00    +0.000 C 
ATOM     12  F   UNL     1     -14.595  10.029   0.985  0.00  0.00    +0.000 F 
ATOM     13  F   UNL     1     -16.639  10.375   0.339  0.00  0.00    +0.000 F 
ATOM     14  F   UNL     1     -16.113   8.523   1.359  0.00  0.00    +0.000 F 
ENDBRANCH   8  11
BRANCH   9  16
ATOM     15  N   UNL     1     -14.917  12.113  -1.966  0.00  0.00    +0.000 NA
ATOM     16  C   UNL     1     -14.980  10.956  -2.002  0.00  0.00    +0.000 C 
ENDBRANCH   9  16
ENDBRANCH   1   5
BRANCH   2  17
ATOM     17  C   UNL     1     -14.571   2.914  -2.192  0.00  0.00    +0.000 C 
ATOM     18  C   UNL     1     -15.167   2.643  -3.603  0.00  0.00    +0.000 C 
BRANCH  17  19
ATOM     19  O   UNL     1     -15.546   2.517  -1.242  0.00  0.00    +0.000 OA
ATOM     20  H   UNL     1     -15.318   3.012  -0.433  0.00  0.00    +0.000 HD
ENDBRANCH  17  19
BRANCH  17  21
ATOM     21  C   UNL     1     -13.380   2.150  -1.983  0.00  0.00    +0.000 C 
BRANCH  21  22
ATOM     22  S   UNL     1     -11.920   1.232  -1.952  0.00  0.00    +0.000 S 
ATOM     23  O   UNL     1     -11.128   2.090  -2.797  0.00  0.00    +0.000 OA
ATOM     24  O   UNL     1     -12.505  -0.026  -2.344  0.00  0.00    +0.000 OA
BRANCH  22  25
ATOM     25  C   UNL     1     -11.311   1.183  -0.331  0.00  0.00    +0.000 A 
ATOM     26  C   UNL     1      -9.961   1.450  -0.130  0.00  0.00    +0.000 A 
ATOM     27  C   UNL     1      -9.443   1.395   1.161  0.00  0.00    +0.000 A 
ATOM     28  C   UNL     1     -10.284   1.068   2.222  0.00  0.00    +0.000 A 
ATOM     29  F   UNL     1      -9.785   1.014   3.464  0.00  0.00    +0.000 F 
ATOM     30  C   UNL     1     -11.633   0.794   2.014  0.00  0.00    +0.000 A 
ATOM     31  C   UNL     1     -12.153   0.850   0.725  0.00  0.00    +0.000 A 
ENDBRANCH  22  25
ENDBRANCH  21  22
ENDBRANCH  17  21
ENDBRANCH   2  17
TORSDOF 8
ENDMDL
MODEL 2
REMARK VINA RESULT:      -6.5      3.716      5.181
REMARK  Name = Bicalutamide.pdbqt.pdb
REMARK  8 active torsions:
REMARK  status: ('A' for Active; 'I' for Inactive)
REMARK    1  A    between atoms: C_2  and  N_13
REMARK    2  A    between atoms: C_5  and  C_9
REMARK    3  A    between atoms: C_6  and  C_8
REMARK    4  A    between atoms: C_14  and  C_17
REMARK    5  A    between atoms: C_17  and  O_19
REMARK    6  A    between atoms: C_17  and  C_21
REMARK    7  A    between atoms: C_21  and  S_22
REMARK    8  A    between atoms: S_22  and  C_25
REMARK                            x       y       z     vdW  Elec       q    Type
REMARK                         _______ _______ _______ _____ _____    ______ ____
ROOT
ATOM      1  N   UNL     1     -15.745   5.410  -2.244  0.00  0.00    +0.000 N 
ATOM      2  C   UNL     1     -14.765   4.422  -2.182  0.00  0.00    +0.000 C 
ATOM      3  O   UNL     1     -13.587   4.621  -1.869  0.00  0.00    +0.000 OA
ATOM      4  H   UNL     1     -16.700   5.092  -2.417  0.00  0.00    +0.000 HD
ENDROOT
BRANCH   1   5
ATOM      5  C   UNL     1     -15.552   6.780  -2.009  0.00  0.00    +0.000 A 
ATOM      6  C   UNL     1     -15.923   7.285  -0.763  0.00  0.00    +0.000 A 
ATOM      7  C   UNL     1     -15.023   7.645  -2.963  0.00  0.00    +0.000 A 
ATOM      8  C   UNL     1     -15.771   8.642  -0.454  0.00  0.00    +0.000 A 
ATOM      9  C   UNL     1     -15.235   9.502  -1.424  0.00  0.00    +0.000 A 
ATOM     10  C   UNL     1     -14.865   8.998  -2.673  0.00  0.00    +0.000 A 
BRANCH   8  11
ATOM     11  C   UNL     1     -16.186   9.132   0.902  0.00  0.00    +0.000 C 
ATOM     12  F   UNL     1     -17.117  10.124   0.853  0.00  0.00    +0.000 F 
ATOM     13  F   UNL     1     -16.733   8.147   1.663  0.00  0.00    +0.000 F 
ATOM     14  F   UNL     1     -15.143   9.636   1.614  0.00  0.00    +0.000 F 
ENDBRANCH   8  11
BRANCH   9  16
ATOM     15  N   UNL     1     -14.887  12.030  -0.981  0.00  0.00    +0.000 NA
ATOM     16  C   UNL     1     -15.047  10.901  -1.185  0.00  0.00    +0.000 C 
ENDBRANCH   9  16
ENDBRANCH   1   5
BRANCH   2  17
ATOM     17  C   UNL     1     -15.243   2.970  -2.591  0.00  0.00    +0.000 C 
ATOM     18  C   UNL     1     -14.331   1.877  -1.965  0.00  0.00    +0.000 C 
BRANCH  17  19
ATOM     19  O   UNL     1     -15.182   2.811  -3.999  0.00  0.00    +0.000 OA
ATOM     20  H   UNL     1     -14.881   1.891  -4.131  0.00  0.00    +0.000 HD
ENDBRANCH  17  19
BRANCH  17  21
ATOM     21  C   UNL     1     -16.599   2.813  -2.165  0.00  0.00    +0.000 C 
BRANCH  21  22
ATOM     22  S   UNL     1     -18.258   2.841  -1.692  0.00  0.00    +0.000 S 
ATOM     23  O   UNL     1     -18.829   3.103  -2.989  0.00  0.00    +0.000 OA
ATOM     24  O   UNL     1     -18.111   3.804  -0.628  0.00  0.00    +0.000 OA
BRANCH  22  25
ATOM     25  C   UNL     1     -18.707   1.280  -1.092  0.00  0.00    +0.000 A 
ATOM     26  C   UNL     1     -19.673   0.563  -1.790  0.00  0.00    +0.000 A 
ATOM     27  C   UNL     1     -20.068  -0.685  -1.315  0.00  0.00    +0.000 A 
ATOM     28  C   UNL     1     -19.492  -1.186  -0.150  0.00  0.00    +0.000 A 
ATOM     29  F   UNL     1     -19.873  -2.387   0.307  0.00  0.00    +0.000 F 
ATOM     30  C   UNL     1     -18.531  -0.461   0.549  0.00  0.00    +0.000 A 
ATOM     31  C   UNL     1     -18.135   0.785   0.076  0.00  0.00    +0.000 A 
ENDBRANCH  22  25
ENDBRANCH  21  22
ENDBRANCH  17  21
ENDBRANCH   2  17
TORSDOF 8
ENDMDL
MODEL 3
REMARK VINA RESULT:      -6.2      6.858      9.248
REMARK  Name = Bicalutamide.pdbqt.pdb
REMARK  8 active torsions:
REMARK  status: ('A' for Active; 'I' for Inactive)
REMARK    1  A    between atoms: C_2  and  N_13
REMARK    2  A    between atoms: C_5  and  C_9
REMARK    3  A    between atoms: C_6  and  C_8
REMARK    4  A    between atoms: C_14  and  C_17
REMARK    5  A    between atoms: C_17  and  O_19
REMARK    6  A    between atoms: C_17  and  C_21
REMARK    7  A    between atoms: C_21  and  S_22
REMARK    8  A    between atoms: S_22  and  C_25
REMARK                            x       y       z     vdW  Elec       q    Type
REMARK                         _______ _______ _______ _____ _____    ______ ____
ROOT
ATOM      1  N   UNL     1     -16.370   9.774  -1.670  0.00  0.00    +0.000 N 
ATOM      2  C   UNL     1     -15.961   8.881  -0.683  0.00  0.00    +0.000 C 
ATOM      3  O   UNL     1     -14.798   8.498  -0.520  0.00  0.00    +0.000 OA
ATOM      4  H   UNL     1     -17.342  10.083  -1.630  0.00  0.00    +0.000 HD
ENDROOT
BRANCH   1   5
ATOM      5  C   UNL     1     -15.550  10.346  -2.656  0.00  0.00    +0.000 A 
ATOM      6  C   UNL     1     -14.948  11.571  -2.370  0.00  0.00    +0.000 A 
ATOM      7  C   UNL     1     -15.329   9.752  -3.895  0.00  0.00    +0.000 A 
ATOM      8  C   UNL     1     -14.124  12.211  -3.303  0.00  0.00    +0.000 A 
ATOM      9  C   UNL     1     -13.908  11.600  -4.547  0.00  0.00    +0.000 A 
ATOM     10  C   UNL     1     -14.512  10.375  -4.836  0.00  0.00    +0.000 A 
BRANCH   8  11
ATOM     11  C   UNL     1     -13.500  13.528  -2.944  0.00  0.00    +0.000 C 
ATOM     12  F   UNL     1     -13.975  14.567  -3.684  0.00  0.00    +0.000 F 
ATOM     13  F   UNL     1     -13.719  13.866  -1.646  0.00  0.00    +0.000 F 
ATOM     14  F   UNL     1     -12.153  13.530  -3.123  0.00  0.00    +0.000 F 
ENDBRANCH   8  11
BRANCH   9  16
ATOM     15  N   UNL     1     -12.414  12.681  -6.368  0.00  0.00    +0.000 NA
ATOM     16  C   UNL     1     -13.079  12.190  -5.554  0.00  0.00    +0.000 C 
ENDBRANCH   9  16
ENDBRANCH   1   5
BRANCH   2  17
ATOM     17  C   UNL     1     -17.118   8.317   0.238  0.00  0.00    +0.000 C 
ATOM     18  C   UNL     1     -16.918   8.739   1.721  0.00  0.00    +0.000 C 
BRANCH  17  19
ATOM     19  O   UNL     1     -17.127   6.899   0.204  0.00  0.00    +0.000 OA
ATOM     20  H   UNL     1     -17.507   6.634   1.064  0.00  0.00    +0.000 HD
ENDBRANCH  17  19
BRANCH  17  21
ATOM     21  C   UNL     1     -18.365   8.800  -0.270  0.00  0.00    +0.000 C 
BRANCH  21  22
ATOM     22  S   UNL     1     -19.842   9.236  -1.047  0.00  0.00    +0.000 S 
ATOM     23  O   UNL     1     -20.189   7.933  -1.557  0.00  0.00    +0.000 OA
ATOM     24  O   UNL     1     -19.306  10.327  -1.824  0.00  0.00    +0.000 OA
BRANCH  22  25
ATOM     25  C   UNL     1     -20.973   9.786   0.143  0.00  0.00    +0.000 A 
ATOM     26  C   UNL     1     -20.474  10.404   1.285  0.00  0.00    +0.000 A 
ATOM     27  C   UNL     1     -21.362  10.834   2.267  0.00  0.00    +0.000 A 
ATOM     28  C   UNL     1     -22.728  10.633   2.089  0.00  0.00    +0.000 A 
ATOM     29  F   UNL     1     -23.582  11.048   3.035  0.00  0.00    +0.000 F 
ATOM     30  C   UNL     1     -23.223  10.008   0.948  0.00  0.00    +0.000 A 
ATOM     31  C   UNL     1     -22.337   9.577  -0.035  0.00  0.00    +0.000 A 
ENDBRANCH  22  25
ENDBRANCH  21  22
ENDBRANCH  17  21
ENDBRANCH   2  17
TORSDOF 8
ENDMDL
MODEL 4
REMARK VINA RESULT:      -6.2     19.636     21.930
REMARK  Name = Bicalutamide.pdbqt.pdb
REMARK  8 active torsions:
REMARK  status: ('A' for Active; 'I' for Inactive)
REMARK    1  A    between atoms: C_2  and  N_13
REMARK    2  A    between atoms: C_5  and  C_9
REMARK    3  A    between atoms: C_6  and  C_8
REMARK    4  A    between atoms: C_14  and  C_17
REMARK    5  A    between atoms: C_17  and  O_19
REMARK    6  A    between atoms: C_17  and  C_21
REMARK    7  A    between atoms: C_21  and  S_22
REMARK    8  A    between atoms: S_22  and  C_25
REMARK                            x       y       z     vdW  Elec       q    Type
REMARK                         _______ _______ _______ _____ _____    ______ ____
ROOT
ATOM      1  N   UNL     1     -11.924   4.805  19.944  0.00  0.00    +0.000 N 
ATOM      2  C   UNL     1     -11.881   3.414  20.000  0.00  0.00    +0.000 C 
ATOM      3  O   UNL     1     -10.951   2.722  19.574  0.00  0.00    +0.000 OA
ATOM      4  H   UNL     1     -12.704   5.256  20.424  0.00  0.00    +0.000 HD
ENDROOT
BRANCH   1   5
ATOM      5  C   UNL     1     -10.953   5.637  19.364  0.00  0.00    +0.000 A 
ATOM      6  C   UNL     1     -10.737   5.523  17.991  0.00  0.00    +0.000 A 
ATOM      7  C   UNL     1     -10.201   6.549  20.097  0.00  0.00    +0.000 A 
ATOM      8  C   UNL     1      -9.781   6.311  17.338  0.00  0.00    +0.000 A 
ATOM      9  C   UNL     1      -9.031   7.228  18.090  0.00  0.00    +0.000 A 
ATOM     10  C   UNL     1      -9.246   7.341  19.465  0.00  0.00    +0.000 A 
BRANCH   8  11
ATOM     11  C   UNL     1      -9.589   6.148  15.859  0.00  0.00    +0.000 C 
ATOM     12  F   UNL     1     -10.389   5.190  15.315  0.00  0.00    +0.000 F 
ATOM     13  F   UNL     1      -9.860   7.290  15.174  0.00  0.00    +0.000 F 
ATOM     14  F   UNL     1      -8.316   5.795  15.536  0.00  0.00    +0.000 F 
ENDBRANCH   8  11
BRANCH   9  16
ATOM     15  N   UNL     1      -7.229   8.757  17.029  0.00  0.00    +0.000 NA
ATOM     16  C   UNL     1      -8.036   8.069  17.497  0.00  0.00    +0.000 C 
ENDBRANCH   9  16
ENDBRANCH   1   5
BRANCH   2  17
ATOM     17  C   UNL     1     -13.160   2.724  20.627  0.00  0.00    +0.000 C 
ATOM     18  C   UNL     1     -12.856   1.266  21.072  0.00  0.00    +0.000 C 
BRANCH  17  19
ATOM     19  O   UNL     1     -14.204   2.660  19.669  0.00  0.00    +0.000 OA
ATOM     20  H   UNL     1     -14.884   2.094  20.082  0.00  0.00    +0.000 HD
ENDBRANCH  17  19
BRANCH  17  21
ATOM     21  C   UNL     1     -13.595   3.519  21.734  0.00  0.00    +0.000 C 
BRANCH  21  22
ATOM     22  S   UNL     1     -14.312   4.501  22.958  0.00  0.00    +0.000 S 
ATOM     23  O   UNL     1     -13.541   5.696  22.730  0.00  0.00    +0.000 OA
ATOM     24  O   UNL     1     -14.123   3.574  24.047  0.00  0.00    +0.000 OA
BRANCH  22  25
ATOM     25  C   UNL     1     -15.988   4.734  22.593  0.00  0.00    +0.000 A 
ATOM     26  C   UNL     1     -16.879   4.860  23.654  0.00  0.00    +0.000 A 
ATOM     27  C   UNL     1     -18.235   5.026  23.386  0.00  0.00    +0.000 A 
ATOM     28  C   UNL     1     -18.672   5.057  22.065  0.00  0.00    +0.000 A 
ATOM     29  F   UNL     1     -19.978   5.216  21.808  0.00  0.00    +0.000 F 
ATOM     30  C   UNL     1     -17.778   4.924  21.006  0.00  0.00    +0.000 A 
ATOM     31  C   UNL     1     -16.423   4.758  21.272  0.00  0.00    +0.000 A 
ENDBRANCH  22  25
ENDBRANCH  21  22
ENDBRANCH  17  21
ENDBRANCH   2  17
TORSDOF 8
ENDMDL
MODEL 5
REMARK VINA RESULT:      -6.1      5.502      7.762
REMARK  Name = Bicalutamide.pdbqt.pdb
REMARK  8 active torsions:
REMARK  status: ('A' for Active; 'I' for Inactive)
REMARK    1  A    between atoms: C_2  and  N_13
REMARK    2  A    between atoms: C_5  and  C_9
REMARK    3  A    between atoms: C_6  and  C_8
REMARK    4  A    between atoms: C_14  and  C_17
REMARK    5  A    between atoms: C_17  and  O_19
REMARK    6  A    between atoms: C_17  and  C_21
REMARK    7  A    between atoms: C_21  and  S_22
REMARK    8  A    between atoms: S_22  and  C_25
REMARK                            x       y       z     vdW  Elec       q    Type
REMARK                         _______ _______ _______ _____ _____    ______ ____
ROOT
ATOM      1  N   UNL     1     -16.672   7.615  -0.946  0.00  0.00    +0.000 N 
ATOM      2  C   UNL     1     -16.127   6.404  -1.367  0.00  0.00    +0.000 C 
ATOM      3  O   UNL     1     -14.972   6.259  -1.780  0.00  0.00    +0.000 OA
ATOM      4  H   UNL     1     -17.605   7.575  -0.534  0.00  0.00    +0.000 HD
ENDROOT
BRANCH   1   5
ATOM      5  C   UNL     1     -16.024   8.861  -0.962  0.00  0.00    +0.000 A 
ATOM      6  C   UNL     1     -15.832   9.477  -2.198  0.00  0.00    +0.000 A 
ATOM      7  C   UNL     1     -15.562   9.489   0.190  0.00  0.00    +0.000 A 
ATOM      8  C   UNL     1     -15.187  10.715  -2.300  0.00  0.00    +0.000 A 
ATOM      9  C   UNL     1     -14.728  11.338  -1.130  0.00  0.00    +0.000 A 
ATOM     10  C   UNL     1     -14.917  10.721   0.108  0.00  0.00    +0.000 A 
BRANCH   8  11
ATOM     11  C   UNL     1     -15.006  11.335  -3.655  0.00  0.00    +0.000 C 
ATOM     12  F   UNL     1     -15.723  12.481  -3.822  0.00  0.00    +0.000 F 
ATOM     13  F   UNL     1     -13.712  11.668  -3.903  0.00  0.00    +0.000 F 
ATOM     14  F   UNL     1     -15.393  10.506  -4.660  0.00  0.00    +0.000 F 
ENDBRANCH   8  11
BRANCH   9  16
ATOM     15  N   UNL     1     -13.507  13.623  -1.159  0.00  0.00    +0.000 NA
ATOM     16  C   UNL     1     -14.059  12.604  -1.150  0.00  0.00    +0.000 C 
ENDBRANCH   9  16
ENDBRANCH   1   5
BRANCH   2  17
ATOM     17  C   UNL     1     -17.117   5.170  -1.331  0.00  0.00    +0.000 C 
ATOM     18  C   UNL     1     -17.453   4.757   0.130  0.00  0.00    +0.000 C 
BRANCH  17  19
ATOM     19  O   UNL     1     -16.524   4.045  -1.958  0.00  0.00    +0.000 OA
ATOM     20  H   UNL     1     -16.766   4.131  -2.900  0.00  0.00    +0.000 HD
ENDBRANCH  17  19
BRANCH  17  21
ATOM     21  C   UNL     1     -18.302   5.530  -2.047  0.00  0.00    +0.000 C 
BRANCH  21  22
ATOM     22  S   UNL     1     -19.663   6.176  -2.886  0.00  0.00    +0.000 S 
ATOM     23  O   UNL     1     -20.642   5.996  -1.844  0.00  0.00    +0.000 OA
ATOM     24  O   UNL     1     -19.534   5.359  -4.068  0.00  0.00    +0.000 OA
BRANCH  22  25
ATOM     25  C   UNL     1     -19.382   7.851  -3.226  0.00  0.00    +0.000 A 
ATOM     26  C   UNL     1     -18.788   8.183  -4.439  0.00  0.00    +0.000 A 
ATOM     27  C   UNL     1     -18.531   9.520  -4.726  0.00  0.00    +0.000 A 
ATOM     28  C   UNL     1     -18.868  10.497  -3.792  0.00  0.00    +0.000 A 
ATOM     29  F   UNL     1     -18.620  11.784  -4.068  0.00  0.00    +0.000 F 
ATOM     30  C   UNL     1     -19.456  10.159  -2.576  0.00  0.00    +0.000 A 
ATOM     31  C   UNL     1     -19.714   8.823  -2.288  0.00  0.00    +0.000 A 
ENDBRANCH  22  25
ENDBRANCH  21  22
ENDBRANCH  17  21
ENDBRANCH   2  17
TORSDOF 8
ENDMDL
MODEL 6
REMARK VINA RESULT:      -6.1     18.748     21.242
REMARK  Name = Bicalutamide.pdbqt.pdb
REMARK  8 active torsions:
REMARK  status: ('A' for Active; 'I' for Inactive)
REMARK    1  A    between atoms: C_2  and  N_13
REMARK    2  A    between atoms: C_5  and  C_9
REMARK    3  A    between atoms: C_6  and  C_8
REMARK    4  A    between atoms: C_14  and  C_17
REMARK    5  A    between atoms: C_17  and  O_19
REMARK    6  A    between atoms: C_17  and  C_21
REMARK    7  A    between atoms: C_21  and  S_22
REMARK    8  A    between atoms: S_22  and  C_25
REMARK                            x       y       z     vdW  Elec       q    Type
REMARK                         _______ _______ _______ _____ _____    ______ ____
ROOT
ATOM      1  N   UNL     1     -10.614   2.831  19.656  0.00  0.00    +0.000 N 
ATOM      2  C   UNL     1     -11.632   1.895  19.820  0.00  0.00    +0.000 C 
ATOM      3  O   UNL     1     -11.737   0.850  19.169  0.00  0.00    +0.000 OA
ATOM      4  H   UNL     1     -10.590   3.600  20.328  0.00  0.00    +0.000 HD
ENDROOT
BRANCH   1   5
ATOM      5  C   UNL     1      -9.579   2.767  18.710  0.00  0.00    +0.000 A 
ATOM      6  C   UNL     1      -9.465   3.817  17.799  0.00  0.00    +0.000 A 
ATOM      7  C   UNL     1      -8.682   1.706  18.639  0.00  0.00    +0.000 A 
ATOM      8  C   UNL     1      -8.465   3.824  16.819  0.00  0.00    +0.000 A 
ATOM      9  C   UNL     1      -7.567   2.748  16.761  0.00  0.00    +0.000 A 
ATOM     10  C   UNL     1      -7.681   1.695  17.671  0.00  0.00    +0.000 A 
BRANCH   8  11
ATOM     11  C   UNL     1      -8.388   4.979  15.864  0.00  0.00    +0.000 C 
ATOM     12  F   UNL     1      -9.531   5.718  15.821  0.00  0.00    +0.000 F 
ATOM     13  F   UNL     1      -7.395   5.849  16.185  0.00  0.00    +0.000 F 
ATOM     14  F   UNL     1      -8.156   4.580  14.585  0.00  0.00    +0.000 F 
ENDBRANCH   8  11
BRANCH   9  16
ATOM     15  N   UNL     1      -5.672   2.613  14.999  0.00  0.00    +0.000 NA
ATOM     16  C   UNL     1      -6.518   2.681  15.789  0.00  0.00    +0.000 C 
ENDBRANCH   9  16
ENDBRANCH   1   5
BRANCH   2  17
ATOM     17  C   UNL     1     -12.726   2.269  20.900  0.00  0.00    +0.000 C 
ATOM     18  C   UNL     1     -12.724   1.258  22.081  0.00  0.00    +0.000 C 
BRANCH  17  19
ATOM     19  O   UNL     1     -14.021   2.235  20.322  0.00  0.00    +0.000 OA
ATOM     20  H   UNL     1     -14.453   3.052  20.636  0.00  0.00    +0.000 HD
ENDBRANCH  17  19
BRANCH  17  21
ATOM     21  C   UNL     1     -12.459   3.597  21.361  0.00  0.00    +0.000 C 
BRANCH  21  22
ATOM     22  S   UNL     1     -11.937   5.120  21.981  0.00  0.00    +0.000 S 
ATOM     23  O   UNL     1     -11.083   4.624  23.031  0.00  0.00    +0.000 OA
ATOM     24  O   UNL     1     -13.252   5.685  22.163  0.00  0.00    +0.000 OA
BRANCH  22  25
ATOM     25  C   UNL     1     -11.039   5.956  20.759  0.00  0.00    +0.000 A 
ATOM     26  C   UNL     1     -11.691   6.281  19.574  0.00  0.00    +0.000 A 
ATOM     27  C   UNL     1     -10.984   6.933  18.568  0.00  0.00    +0.000 A 
ATOM     28  C   UNL     1      -9.640   7.241  18.764  0.00  0.00    +0.000 A 
ATOM     29  F   UNL     1      -8.960   7.868  17.795  0.00  0.00    +0.000 F 
ATOM     30  C   UNL     1      -8.990   6.906  19.949  0.00  0.00    +0.000 A 
ATOM     31  C   UNL     1      -9.694   6.255  20.956  0.00  0.00    +0.000 A 
ENDBRANCH  22  25
ENDBRANCH  21  22
ENDBRANCH  17  21
ENDBRANCH   2  17
TORSDOF 8
ENDMDL
MODEL 7
REMARK VINA RESULT:      -6.0      7.808     11.507
REMARK  Name = Bicalutamide.pdbqt.pdb
REMARK  8 active torsions:
REMARK  status: ('A' for Active; 'I' for Inactive)
REMARK    1  A    between atoms: C_2  and  N_13
REMARK    2  A    between atoms: C_5  and  C_9
REMARK    3  A    between atoms: C_6  and  C_8
REMARK    4  A    between atoms: C_14  and  C_17
REMARK    5  A    between atoms: C_17  and  O_19
REMARK    6  A    between atoms: C_17  and  C_21
REMARK    7  A    between atoms: C_21  and  S_22
REMARK    8  A    between atoms: S_22  and  C_25
REMARK                            x       y       z     vdW  Elec       q    Type
REMARK                         _______ _______ _______ _____ _____    ______ ____
ROOT
ATOM      1  N   UNL     1      -3.266   1.578   2.602  0.00  0.00    +0.000 N 
ATOM      2  C   UNL     1      -4.520   1.739   2.017  0.00  0.00    +0.000 C 
ATOM      3  O   UNL     1      -5.022   2.828   1.721  0.00  0.00    +0.000 OA
ATOM      4  H   UNL     1      -2.930   0.619   2.701  0.00  0.00    +0.000 HD
ENDROOT
BRANCH   1   5
ATOM      5  C   UNL     1      -2.397   2.611   2.989  0.00  0.00    +0.000 A 
ATOM      6  C   UNL     1      -2.765   3.920   2.680  0.00  0.00    +0.000 A 
ATOM      7  C   UNL     1      -1.193   2.380   3.648  0.00  0.00    +0.000 A 
ATOM      8  C   UNL     1      -1.949   5.004   3.023  0.00  0.00    +0.000 A 
ATOM      9  C   UNL     1      -0.739   4.758   3.689  0.00  0.00    +0.000 A 
ATOM     10  C   UNL     1      -0.369   3.447   3.996  0.00  0.00    +0.000 A 
BRANCH   8  11
ATOM     11  C   UNL     1      -2.394   6.393   2.667  0.00  0.00    +0.000 C 
ATOM     12  F   UNL     1      -3.460   6.415   1.821  0.00  0.00    +0.000 F 
ATOM     13  F   UNL     1      -2.771   7.110   3.758  0.00  0.00    +0.000 F 
ATOM     14  F   UNL     1      -1.416   7.109   2.052  0.00  0.00    +0.000 F 
ENDBRANCH   8  11
BRANCH   9  16
ATOM     15  N   UNL     1       0.881   6.657   4.383  0.00  0.00    +0.000 NA
ATOM     16  C   UNL     1       0.150   5.812   4.073  0.00  0.00    +0.000 C 
ENDBRANCH   9  16
ENDBRANCH   1   5
BRANCH   2  17
ATOM     17  C   UNL     1      -5.329   0.401   1.775  0.00  0.00    +0.000 C 
ATOM     18  C   UNL     1      -4.543  -0.837   2.292  0.00  0.00    +0.000 C 
BRANCH  17  19
ATOM     19  O   UNL     1      -5.551   0.205   0.388  0.00  0.00    +0.000 OA
ATOM     20  H   UNL     1      -6.391   0.668   0.205  0.00  0.00    +0.000 HD
ENDBRANCH  17  19
BRANCH  17  21
ATOM     21  C   UNL     1      -6.592   0.520   2.435  0.00  0.00    +0.000 C 
BRANCH  21  22
ATOM     22  S   UNL     1      -8.067   0.468   3.328  0.00  0.00    +0.000 S 
ATOM     23  O   UNL     1      -7.811   1.586   4.200  0.00  0.00    +0.000 OA
ATOM     24  O   UNL     1      -7.987  -0.924   3.700  0.00  0.00    +0.000 OA
BRANCH  22  25
ATOM     25  C   UNL     1      -9.393   0.774   2.257  0.00  0.00    +0.000 A 
ATOM     26  C   UNL     1     -10.678   0.496   2.709  0.00  0.00    +0.000 A 
ATOM     27  C   UNL     1     -11.759   0.712   1.859  0.00  0.00    +0.000 A 
ATOM     28  C   UNL     1     -11.531   1.197   0.574  0.00  0.00    +0.000 A 
ATOM     29  F   UNL     1     -12.572   1.405  -0.244  0.00  0.00    +0.000 F 
ATOM     30  C   UNL     1     -10.242   1.468   0.123  0.00  0.00    +0.000 A 
ATOM     31  C   UNL     1      -9.161   1.253   0.971  0.00  0.00    +0.000 A 
ENDBRANCH  22  25
ENDBRANCH  21  22
ENDBRANCH  17  21
ENDBRANCH   2  17
TORSDOF 8
ENDMDL
MODEL 8
REMARK VINA RESULT:      -6.0      4.759      7.841
REMARK  Name = Bicalutamide.pdbqt.pdb
REMARK  8 active torsions:
REMARK  status: ('A' for Active; 'I' for Inactive)
REMARK    1  A    between atoms: C_2  and  N_13
REMARK    2  A    between atoms: C_5  and  C_9
REMARK    3  A    between atoms: C_6  and  C_8
REMARK    4  A    between atoms: C_14  and  C_17
REMARK    5  A    between atoms: C_17  and  O_19
REMARK    6  A    between atoms: C_17  and  C_21
REMARK    7  A    between atoms: C_21  and  S_22
REMARK    8  A    between atoms: S_22  and  C_25
REMARK                            x       y       z     vdW  Elec       q    Type
REMARK                         _______ _______ _______ _____ _____    ______ ____
ROOT
ATOM      1  N   UNL     1     -13.796   4.156  -3.987  0.00  0.00    +0.000 N 
ATOM      2  C   UNL     1     -14.510   4.537  -2.853  0.00  0.00    +0.000 C 
ATOM      3  O   UNL     1     -14.002   4.999  -1.826  0.00  0.00    +0.000 OA
ATOM      4  H   UNL     1     -14.348   3.886  -4.802  0.00  0.00    +0.000 HD
ENDROOT
BRANCH   1   5
ATOM      5  C   UNL     1     -12.400   4.191  -4.133  0.00  0.00    +0.000 A 
ATOM      6  C   UNL     1     -11.866   5.084  -5.062  0.00  0.00    +0.000 A 
ATOM      7  C   UNL     1     -11.542   3.372  -3.407  0.00  0.00    +0.000 A 
ATOM      8  C   UNL     1     -10.485   5.172  -5.274  0.00  0.00    +0.000 A 
ATOM      9  C   UNL     1      -9.632   4.342  -4.533  0.00  0.00    +0.000 A 
ATOM     10  C   UNL     1     -10.165   3.446  -3.605  0.00  0.00    +0.000 A 
BRANCH   8  11
ATOM     11  C   UNL     1      -9.964   6.151  -6.286  0.00  0.00    +0.000 C 
ATOM     12  F   UNL     1     -10.941   6.915  -6.848  0.00  0.00    +0.000 F 
ATOM     13  F   UNL     1      -9.073   7.025  -5.748  0.00  0.00    +0.000 F 
ATOM     14  F   UNL     1      -9.330   5.539  -7.321  0.00  0.00    +0.000 F 
ENDBRANCH   8  11
BRANCH   9  16
ATOM     15  N   UNL     1      -7.057   4.411  -4.815  0.00  0.00    +0.000 NA
ATOM     16  C   UNL     1      -8.209   4.373  -4.692  0.00  0.00    +0.000 C 
ENDBRANCH   9  16
ENDBRANCH   1   5
BRANCH   2  17
ATOM     17  C   UNL     1     -16.073   4.300  -2.928  0.00  0.00    +0.000 C 
ATOM     18  C   UNL     1     -16.417   2.784  -2.909  0.00  0.00    +0.000 C 
BRANCH  17  19
ATOM     19  O   UNL     1     -16.593   4.833  -4.135  0.00  0.00    +0.000 OA
ATOM     20  H   UNL     1     -17.526   5.039  -3.932  0.00  0.00    +0.000 HD
ENDBRANCH  17  19
BRANCH  17  21
ATOM     21  C   UNL     1     -16.678   4.978  -1.823  0.00  0.00    +0.000 C 
BRANCH  21  22
ATOM     22  S   UNL     1     -17.539   5.894  -0.642  0.00  0.00    +0.000 S 
ATOM     23  O   UNL     1     -17.436   4.958   0.449  0.00  0.00    +0.000 OA
ATOM     24  O   UNL     1     -18.718   6.128  -1.440  0.00  0.00    +0.000 OA
BRANCH  22  25
ATOM     25  C   UNL     1     -16.677   7.361  -0.319  0.00  0.00    +0.000 A 
ATOM     26  C   UNL     1     -16.902   7.998   0.897  0.00  0.00    +0.000 A 
ATOM     27  C   UNL     1     -16.239   9.191   1.171  0.00  0.00    +0.000 A 
ATOM     28  C   UNL     1     -15.369   9.723   0.222  0.00  0.00    +0.000 A 
ATOM     29  F   UNL     1     -14.731  10.872   0.486  0.00  0.00    +0.000 F 
ATOM     30  C   UNL     1     -15.153   9.085  -0.996  0.00  0.00    +0.000 A 
ATOM     31  C   UNL     1     -15.815   7.893  -1.271  0.00  0.00    +0.000 A 
ENDBRANCH  22  25
ENDBRANCH  21  22
ENDBRANCH  17  21
ENDBRANCH   2  17
TORSDOF 8
ENDMDL
MODEL 9
REMARK VINA RESULT:      -5.6     19.525     22.164
REMARK  Name = Bicalutamide.pdbqt.pdb
REMARK  8 active torsions:
REMARK  status: ('A' for Active; 'I' for Inactive)
REMARK    1  A    between atoms: C_2  and  N_13
REMARK    2  A    between atoms: C_5  and  C_9
REMARK    3  A    between atoms: C_6  and  C_8
REMARK    4  A    between atoms: C_14  and  C_17
REMARK    5  A    between atoms: C_17  and  O_19
REMARK    6  A    between atoms: C_17  and  C_21
REMARK    7  A    between atoms: C_21  and  S_22
REMARK    8  A    between atoms: S_22  and  C_25
REMARK                            x       y       z     vdW  Elec       q    Type
REMARK                         _______ _______ _______ _____ _____    ______ ____
ROOT
ATOM      1  N   UNL     1     -10.926   2.675  19.965  0.00  0.00    +0.000 N 
ATOM      2  C   UNL     1     -11.714   1.529  20.037  0.00  0.00    +0.000 C 
ATOM      3  O   UNL     1     -11.705   0.616  19.204  0.00  0.00    +0.000 OA
ATOM      4  H   UNL     1     -10.958   3.300  20.771  0.00  0.00    +0.000 HD
ENDROOT
BRANCH   1   5
ATOM      5  C   UNL     1     -10.036   3.000  18.928  0.00  0.00    +0.000 A 
ATOM      6  C   UNL     1     -10.246   4.197  18.244  0.00  0.00    +0.000 A 
ATOM      7  C   UNL     1      -8.976   2.180  18.555  0.00  0.00    +0.000 A 
ATOM      8  C   UNL     1      -9.409   4.589  17.193  0.00  0.00    +0.000 A 
ATOM      9  C   UNL     1      -8.342   3.753  16.828  0.00  0.00    +0.000 A 
ATOM     10  C   UNL     1      -8.133   2.553  17.511  0.00  0.00    +0.000 A 
BRANCH   8  11
ATOM     11  C   UNL     1      -9.679   5.887  16.490  0.00  0.00    +0.000 C 
ATOM     12  F   UNL     1      -9.992   5.731  15.174  0.00  0.00    +0.000 F 
ATOM     13  F   UNL     1     -10.719   6.566  17.041  0.00  0.00    +0.000 F 
ATOM     14  F   UNL     1      -8.610   6.726  16.520  0.00  0.00    +0.000 F 
ENDBRANCH   8  11
BRANCH   9  16
ATOM     15  N   UNL     1      -6.724   4.349  14.894  0.00  0.00    +0.000 NA
ATOM     16  C   UNL     1      -7.442   4.083  15.765  0.00  0.00    +0.000 C 
ENDBRANCH   9  16
ENDBRANCH   1   5
BRANCH   2  17
ATOM     17  C   UNL     1     -12.702   1.466  21.272  0.00  0.00    +0.000 C 
ATOM     18  C   UNL     1     -11.939   1.156  22.591  0.00  0.00    +0.000 C 
BRANCH  17  19
ATOM     19  O   UNL     1     -13.655   0.432  21.087  0.00  0.00    +0.000 OA
ATOM     20  H   UNL     1     -14.079   0.328  21.961  0.00  0.00    +0.000 HD
ENDBRANCH  17  19
BRANCH  17  21
ATOM     21  C   UNL     1     -13.387   2.719  21.357  0.00  0.00    +0.000 C 
BRANCH  21  22
ATOM     22  S   UNL     1     -14.060   4.307  21.316  0.00  0.00    +0.000 S 
ATOM     23  O   UNL     1     -15.411   3.941  20.975  0.00  0.00    +0.000 OA
ATOM     24  O   UNL     1     -13.089   4.876  20.413  0.00  0.00    +0.000 OA
BRANCH  22  25
ATOM     25  C   UNL     1     -13.960   5.009  22.896  0.00  0.00    +0.000 A 
ATOM     26  C   UNL     1     -15.088   4.959  23.708  0.00  0.00    +0.000 A 
ATOM     27  C   UNL     1     -15.039   5.536  24.974  0.00  0.00    +0.000 A 
ATOM     28  C   UNL     1     -13.867   6.156  25.398  0.00  0.00    +0.000 A 
ATOM     29  F   UNL     1     -13.821   6.713  26.616  0.00  0.00    +0.000 F 
ATOM     30  C   UNL     1     -12.743   6.211  24.579  0.00  0.00    +0.000 A 
ATOM     31  C   UNL     1     -12.789   5.634  23.314  0.00  0.00    +0.000 A 
ENDBRANCH  22  25
ENDBRANCH  21  22
ENDBRANCH  17  21
ENDBRANCH   2  17
TORSDOF 8
ENDMDL
