MODEL 1
REMARK VINA RESULT:      -5.2      0.000      0.000
REMARK  Name = Bisphenol_A.pdbqt.pdb
REMARK  4 active torsions:
REMARK  status: ('A' for Active; 'I' for Inactive)
REMARK    1  A    between atoms: C_1  and  C_4
REMARK    2  A    between atoms: C_1  and  C_12
REMARK    3  A    between atoms: C_7  and  O_10
REMARK    4  A    between atoms: C_15  and  O_18
REMARK                            x       y       z     vdW  Elec       q    Type
REMARK                         _______ _______ _______ _____ _____    ______ ____
ROOT
ATOM      1  C   UNL     1     -13.181  18.952  23.748  0.00  0.00    +0.000 C 
ATOM      2  C   UNL     1     -13.328  19.009  25.309  0.00  0.00    +0.000 C 
ATOM      3  C   UNL     1     -12.324  20.187  23.294  0.00  0.00    +0.000 C 
ENDROOT
BRANCH   1   4
ATOM      4  C   UNL     1     -12.485  17.624  23.415  0.00  0.00    +0.000 A 
ATOM      5  C   UNL     1     -11.714  17.509  22.244  0.00  0.00    +0.000 A 
ATOM      6  C   UNL     1     -11.084  16.314  21.902  0.00  0.00    +0.000 A 
ATOM      7  C   UNL     1     -11.225  15.210  22.734  0.00  0.00    +0.000 A 
ATOM      8  C   UNL     1     -11.985  15.285  23.894  0.00  0.00    +0.000 A 
ATOM      9  C   UNL     1     -12.613  16.485  24.224  0.00  0.00    +0.000 A 
BRANCH   7  10
ATOM     10  O   UNL     1     -10.618  14.027  22.432  0.00  0.00    +0.000 OA
ATOM     11  H   UNL     1     -10.783  13.824  21.495  0.00  0.00    +0.000 HD
ENDBRANCH   7  10
ENDBRANCH   1   4
BRANCH   1  12
ATOM     12  C   UNL     1     -14.539  19.070  23.041  0.00  0.00    +0.000 A 
ATOM     13  C   UNL     1     -15.728  18.871  23.766  0.00  0.00    +0.000 A 
ATOM     14  C   UNL     1     -16.976  18.953  23.153  0.00  0.00    +0.000 A 
ATOM     15  C   UNL     1     -17.048  19.234  21.794  0.00  0.00    +0.000 A 
ATOM     16  C   UNL     1     -15.894  19.430  21.046  0.00  0.00    +0.000 A 
ATOM     17  C   UNL     1     -14.651  19.342  21.670  0.00  0.00    +0.000 A 
BRANCH  15  18
ATOM     18  O   UNL     1     -18.253  19.328  21.164  0.00  0.00    +0.000 OA
ATOM     19  H   UNL     1     -18.380  20.248  20.873  0.00  0.00    +0.000 HD
ENDBRANCH  15  18
ENDBRANCH   1  12
TORSDOF 4
ENDMDL
MODEL 2
REMARK VINA RESULT:      -4.9     16.723     19.212
REMARK  Name = Bisphenol_A.pdbqt.pdb
REMARK  4 active torsions:
REMARK  status: ('A' for Active; 'I' for Inactive)
REMARK    1  A    between atoms: C_1  and  C_4
REMARK    2  A    between atoms: C_1  and  C_12
REMARK    3  A    between atoms: C_7  and  O_10
REMARK    4  A    between atoms: C_15  and  O_18
REMARK                            x       y       z     vdW  Elec       q    Type
REMARK                         _______ _______ _______ _____ _____    ______ ____
ROOT
ATOM      1  C   UNL     1      -2.412  17.673   7.638  0.00  0.00    +0.000 C 
ATOM      2  C   UNL     1      -2.544  19.195   7.275  0.00  0.00    +0.000 C 
ATOM      3  C   UNL     1      -0.992  17.444   8.268  0.00  0.00    +0.000 C 
ENDROOT
BRANCH   1   4
ATOM      4  C   UNL     1      -3.536  17.355   8.636  0.00  0.00    +0.000 A 
ATOM      5  C   UNL     1      -4.664  18.191   8.712  0.00  0.00    +0.000 A 
ATOM      6  C   UNL     1      -5.693  17.942   9.619  0.00  0.00    +0.000 A 
ATOM      7  C   UNL     1      -5.599  16.847  10.469  0.00  0.00    +0.000 A 
ATOM      8  C   UNL     1      -4.495  16.005  10.426  0.00  0.00    +0.000 A 
ATOM      9  C   UNL     1      -3.471  16.266   9.517  0.00  0.00    +0.000 A 
BRANCH   7  10
ATOM     10  O   UNL     1      -6.590  16.572  11.365  0.00  0.00    +0.000 OA
ATOM     11  H   UNL     1      -6.448  17.113  12.160  0.00  0.00    +0.000 HD
ENDBRANCH   7  10
ENDBRANCH   1   4
BRANCH   1  12
ATOM     12  C   UNL     1      -2.495  16.781   6.391  0.00  0.00    +0.000 A 
ATOM     13  C   UNL     1      -1.329  16.482   5.662  0.00  0.00    +0.000 A 
ATOM     14  C   UNL     1      -1.370  15.690   4.518  0.00  0.00    +0.000 A 
ATOM     15  C   UNL     1      -2.591  15.187   4.083  0.00  0.00    +0.000 A 
ATOM     16  C   UNL     1      -3.763  15.467   4.775  0.00  0.00    +0.000 A 
ATOM     17  C   UNL     1      -3.709  16.263   5.917  0.00  0.00    +0.000 A 
BRANCH  15  18
ATOM     18  O   UNL     1      -2.667  14.404   2.970  0.00  0.00    +0.000 OA
ATOM     19  H   UNL     1      -3.474  14.639   2.480  0.00  0.00    +0.000 HD
ENDBRANCH  15  18
ENDBRANCH   1  12
TORSDOF 4
ENDMDL
MODEL 3
REMARK VINA RESULT:      -4.9     16.700     18.911
REMARK  Name = Bisphenol_A.pdbqt.pdb
REMARK  4 active torsions:
REMARK  status: ('A' for Active; 'I' for Inactive)
REMARK    1  A    between atoms: C_1  and  C_4
REMARK    2  A    between atoms: C_1  and  C_12
REMARK    3  A    between atoms: C_7  and  O_10
REMARK    4  A    between atoms: C_15  and  O_18
REMARK                            x       y       z     vdW  Elec       q    Type
REMARK                         _______ _______ _______ _____ _____    ______ ____
ROOT
ATOM      1  C   UNL     1      -2.331  17.686   7.714  0.00  0.00    +0.000 C 
ATOM      2  C   UNL     1      -0.918  17.453   8.359  0.00  0.00    +0.000 C 
ATOM      3  C   UNL     1      -2.449  19.206   7.338  0.00  0.00    +0.000 C 
ENDROOT
BRANCH   1   4
ATOM      4  C   UNL     1      -2.407  16.785   6.472  0.00  0.00    +0.000 A 
ATOM      5  C   UNL     1      -1.250  16.540   5.711  0.00  0.00    +0.000 A 
ATOM      6  C   UNL     1      -1.287  15.742   4.569  0.00  0.00    +0.000 A 
ATOM      7  C   UNL     1      -2.494  15.182   4.171  0.00  0.00    +0.000 A 
ATOM      8  C   UNL     1      -3.658  15.410   4.894  0.00  0.00    +0.000 A 
ATOM      9  C   UNL     1      -3.609  16.212   6.033  0.00  0.00    +0.000 A 
BRANCH   7  10
ATOM     10  O   UNL     1      -2.566  14.393   3.061  0.00  0.00    +0.000 OA
ATOM     11  H   UNL     1      -1.963  14.752   2.386  0.00  0.00    +0.000 HD
ENDBRANCH   7  10
ENDBRANCH   1   4
BRANCH   1  12
ATOM     12  C   UNL     1      -3.466  17.383   8.702  0.00  0.00    +0.000 A 
ATOM     13  C   UNL     1      -3.364  16.285   9.576  0.00  0.00    +0.000 A 
ATOM     14  C   UNL     1      -4.382  15.972  10.472  0.00  0.00    +0.000 A 
ATOM     15  C   UNL     1      -5.527  16.759  10.501  0.00  0.00    +0.000 A 
ATOM     16  C   UNL     1      -5.666  17.847   9.648  0.00  0.00    +0.000 A 
ATOM     17  C   UNL     1      -4.641  18.148   8.754  0.00  0.00    +0.000 A 
BRANCH  15  18
ATOM     18  O   UNL     1      -6.542  16.484  11.371  0.00  0.00    +0.000 OA
ATOM     19  H   UNL     1      -6.978  17.320  11.611  0.00  0.00    +0.000 HD
ENDBRANCH  15  18
ENDBRANCH   1  12
TORSDOF 4
ENDMDL
MODEL 4
REMARK VINA RESULT:      -4.8     15.316     17.118
REMARK  Name = Bisphenol_A.pdbqt.pdb
REMARK  4 active torsions:
REMARK  status: ('A' for Active; 'I' for Inactive)
REMARK    1  A    between atoms: C_1  and  C_4
REMARK    2  A    between atoms: C_1  and  C_12
REMARK    3  A    between atoms: C_7  and  O_10
REMARK    4  A    between atoms: C_15  and  O_18
REMARK                            x       y       z     vdW  Elec       q    Type
REMARK                         _______ _______ _______ _____ _____    ______ ____
ROOT
ATOM      1  C   UNL     1     -23.522   5.803  17.229  0.00  0.00    +0.000 C 
ATOM      2  C   UNL     1     -24.119   6.107  18.649  0.00  0.00    +0.000 C 
ATOM      3  C   UNL     1     -23.116   4.287  17.186  0.00  0.00    +0.000 C 
ENDROOT
BRANCH   1   4
ATOM      4  C   UNL     1     -24.621   6.127  16.206  0.00  0.00    +0.000 A 
ATOM      5  C   UNL     1     -25.820   6.727  16.630  0.00  0.00    +0.000 A 
ATOM      6  C   UNL     1     -26.845   7.019  15.732  0.00  0.00    +0.000 A 
ATOM      7  C   UNL     1     -26.680   6.703  14.389  0.00  0.00    +0.000 A 
ATOM      8  C   UNL     1     -25.512   6.102  13.936  0.00  0.00    +0.000 A 
ATOM      9  C   UNL     1     -24.496   5.814  14.845  0.00  0.00    +0.000 A 
BRANCH   7  10
ATOM     10  O   UNL     1     -27.661   6.978  13.482  0.00  0.00    +0.000 OA
ATOM     11  H   UNL     1     -27.915   6.150  13.039  0.00  0.00    +0.000 HD
ENDBRANCH   7  10
ENDBRANCH   1   4
BRANCH   1  12
ATOM     12  C   UNL     1     -22.245   6.613  16.962  0.00  0.00    +0.000 A 
ATOM     13  C   UNL     1     -21.018   5.950  16.775  0.00  0.00    +0.000 A 
ATOM     14  C   UNL     1     -19.839   6.654  16.549  0.00  0.00    +0.000 A 
ATOM     15  C   UNL     1     -19.873   8.042  16.511  0.00  0.00    +0.000 A 
ATOM     16  C   UNL     1     -21.066   8.731  16.698  0.00  0.00    +0.000 A 
ATOM     17  C   UNL     1     -22.239   8.015  16.927  0.00  0.00    +0.000 A 
BRANCH  15  18
ATOM     18  O   UNL     1     -18.738   8.763  16.285  0.00  0.00    +0.000 OA
ATOM     19  H   UNL     1     -18.792   9.157  15.396  0.00  0.00    +0.000 HD
ENDBRANCH  15  18
ENDBRANCH   1  12
TORSDOF 4
ENDMDL
MODEL 5
REMARK VINA RESULT:      -4.4     12.246     15.277
REMARK  Name = Bisphenol_A.pdbqt.pdb
REMARK  4 active torsions:
REMARK  status: ('A' for Active; 'I' for Inactive)
REMARK    1  A    between atoms: C_1  and  C_4
REMARK    2  A    between atoms: C_1  and  C_12
REMARK    3  A    between atoms: C_7  and  O_10
REMARK    4  A    between atoms: C_15  and  O_18
REMARK                            x       y       z     vdW  Elec       q    Type
REMARK                         _______ _______ _______ _____ _____    ______ ____
ROOT
ATOM      1  C   UNL     1     -22.861  18.186  10.159  0.00  0.00    +0.000 C 
ATOM      2  C   UNL     1     -24.117  18.984   9.658  0.00  0.00    +0.000 C 
ATOM      3  C   UNL     1     -21.746  18.291   9.058  0.00  0.00    +0.000 C 
ENDROOT
BRANCH   1   4
ATOM      4  C   UNL     1     -22.419  18.836  11.479  0.00  0.00    +0.000 A 
ATOM      5  C   UNL     1     -21.197  18.466  12.069  0.00  0.00    +0.000 A 
ATOM      6  C   UNL     1     -20.774  19.022  13.275  0.00  0.00    +0.000 A 
ATOM      7  C   UNL     1     -21.581  19.958  13.911  0.00  0.00    +0.000 A 
ATOM      8  C   UNL     1     -22.798  20.341  13.361  0.00  0.00    +0.000 A 
ATOM      9  C   UNL     1     -23.211  19.776  12.156  0.00  0.00    +0.000 A 
BRANCH   7  10
ATOM     10  O   UNL     1     -21.195  20.525  15.089  0.00  0.00    +0.000 OA
ATOM     11  H   UNL     1     -20.384  21.039  14.936  0.00  0.00    +0.000 HD
ENDBRANCH   7  10
ENDBRANCH   1   4
BRANCH   1  12
ATOM     12  C   UNL     1     -23.168  16.693  10.340  0.00  0.00    +0.000 A 
ATOM     13  C   UNL     1     -24.279  16.291  11.104  0.00  0.00    +0.000 A 
ATOM     14  C   UNL     1     -24.576  14.945  11.303  0.00  0.00    +0.000 A 
ATOM     15  C   UNL     1     -23.755  13.978  10.737  0.00  0.00    +0.000 A 
ATOM     16  C   UNL     1     -22.645  14.338   9.982  0.00  0.00    +0.000 A 
ATOM     17  C   UNL     1     -22.357  15.688   9.793  0.00  0.00    +0.000 A 
BRANCH  15  18
ATOM     18  O   UNL     1     -24.020  12.651  10.907  0.00  0.00    +0.000 OA
ATOM     19  H   UNL     1     -23.178  12.163  10.895  0.00  0.00    +0.000 HD
ENDBRANCH  15  18
ENDBRANCH   1  12
TORSDOF 4
ENDMDL
MODEL 6
REMARK VINA RESULT:      -4.0      6.990      8.813
REMARK  Name = Bisphenol_A.pdbqt.pdb
REMARK  4 active torsions:
REMARK  status: ('A' for Active; 'I' for Inactive)
REMARK    1  A    between atoms: C_1  and  C_4
REMARK    2  A    between atoms: C_1  and  C_12
REMARK    3  A    between atoms: C_7  and  O_10
REMARK    4  A    between atoms: C_15  and  O_18
REMARK                            x       y       z     vdW  Elec       q    Type
REMARK                         _______ _______ _______ _____ _____    ______ ____
ROOT
ATOM      1  C   UNL     1     -19.493  20.647  30.215  0.00  0.00    +0.000 C 
ATOM      2  C   UNL     1     -19.635  20.023  31.649  0.00  0.00    +0.000 C 
ATOM      3  C   UNL     1     -19.536  22.210  30.358  0.00  0.00    +0.000 C 
ENDROOT
BRANCH   1   4
ATOM      4  C   UNL     1     -18.149  20.164  29.651  0.00  0.00    +0.000 A 
ATOM      5  C   UNL     1     -18.025  18.852  29.159  0.00  0.00    +0.000 A 
ATOM      6  C   UNL     1     -16.816  18.375  28.657  0.00  0.00    +0.000 A 
ATOM      7  C   UNL     1     -15.707  19.212  28.646  0.00  0.00    +0.000 A 
ATOM      8  C   UNL     1     -15.791  20.512  29.131  0.00  0.00    +0.000 A 
ATOM      9  C   UNL     1     -17.006  20.976  29.634  0.00  0.00    +0.000 A 
BRANCH   7  10
ATOM     10  O   UNL     1     -14.510  18.779  28.158  0.00  0.00    +0.000 OA
ATOM     11  H   UNL     1     -14.313  17.910  28.547  0.00  0.00    +0.000 HD
ENDBRANCH   7  10
ENDBRANCH   1   4
BRANCH   1  12
ATOM     12  C   UNL     1     -20.663  20.253  29.303  0.00  0.00    +0.000 A 
ATOM     13  C   UNL     1     -20.714  20.728  27.979  0.00  0.00    +0.000 A 
ATOM     14  C   UNL     1     -21.769  20.404  27.130  0.00  0.00    +0.000 A 
ATOM     15  C   UNL     1     -22.798  19.597  27.603  0.00  0.00    +0.000 A 
ATOM     16  C   UNL     1     -22.784  19.115  28.906  0.00  0.00    +0.000 A 
ATOM     17  C   UNL     1     -21.724  19.449  29.746  0.00  0.00    +0.000 A 
BRANCH  15  18
ATOM     18  O   UNL     1     -23.843  19.255  26.797  0.00  0.00    +0.000 OA
ATOM     19  H   UNL     1     -24.607  19.034  27.358  0.00  0.00    +0.000 HD
ENDBRANCH  15  18
ENDBRANCH   1  12
TORSDOF 4
ENDMDL
MODEL 7
REMARK VINA RESULT:      -3.9     22.924     24.145
REMARK  Name = Bisphenol_A.pdbqt.pdb
REMARK  4 active torsions:
REMARK  status: ('A' for Active; 'I' for Inactive)
REMARK    1  A    between atoms: C_1  and  C_4
REMARK    2  A    between atoms: C_1  and  C_12
REMARK    3  A    between atoms: C_7  and  O_10
REMARK    4  A    between atoms: C_15  and  O_18
REMARK                            x       y       z     vdW  Elec       q    Type
REMARK                         _______ _______ _______ _____ _____    ______ ____
ROOT
ATOM      1  C   UNL     1      -2.014  17.219   1.065  0.00  0.00    +0.000 C 
ATOM      2  C   UNL     1      -2.173  18.715   1.512  0.00  0.00    +0.000 C 
ATOM      3  C   UNL     1      -1.456  17.205  -0.402  0.00  0.00    +0.000 C 
ENDROOT
BRANCH   1   4
ATOM      4  C   UNL     1      -1.037  16.561   2.051  0.00  0.00    +0.000 A 
ATOM      5  C   UNL     1      -1.307  16.592   3.432  0.00  0.00    +0.000 A 
ATOM      6  C   UNL     1      -0.434  16.021   4.356  0.00  0.00    +0.000 A 
ATOM      7  C   UNL     1       0.732  15.415   3.904  0.00  0.00    +0.000 A 
ATOM      8  C   UNL     1       1.034  15.373   2.548  0.00  0.00    +0.000 A 
ATOM      9  C   UNL     1       0.154  15.950   1.634  0.00  0.00    +0.000 A 
BRANCH   7  10
ATOM     10  O   UNL     1       1.606  14.843   4.780  0.00  0.00    +0.000 OA
ATOM     11  H   UNL     1       1.204  14.031   5.135  0.00  0.00    +0.000 HD
ENDBRANCH   7  10
ENDBRANCH   1   4
BRANCH   1  12
ATOM     12  C   UNL     1      -3.364  16.486   1.034  0.00  0.00    +0.000 A 
ATOM     13  C   UNL     1      -3.419  15.130   0.665  0.00  0.00    +0.000 A 
ATOM     14  C   UNL     1      -4.627  14.440   0.609  0.00  0.00    +0.000 A 
ATOM     15  C   UNL     1      -5.805  15.108   0.921  0.00  0.00    +0.000 A 
ATOM     16  C   UNL     1      -5.789  16.449   1.283  0.00  0.00    +0.000 A 
ATOM     17  C   UNL     1      -4.574  17.129   1.332  0.00  0.00    +0.000 A 
BRANCH  15  18
ATOM     18  O   UNL     1      -7.005  14.461   0.882  0.00  0.00    +0.000 OA
ATOM     19  H   UNL     1      -7.192  14.210  -0.039  0.00  0.00    +0.000 HD
ENDBRANCH  15  18
ENDBRANCH   1  12
TORSDOF 4
ENDMDL
MODEL 8
REMARK VINA RESULT:      -3.9     15.292     16.764
REMARK  Name = Bisphenol_A.pdbqt.pdb
REMARK  4 active torsions:
REMARK  status: ('A' for Active; 'I' for Inactive)
REMARK    1  A    between atoms: C_1  and  C_4
REMARK    2  A    between atoms: C_1  and  C_12
REMARK    3  A    between atoms: C_7  and  O_10
REMARK    4  A    between atoms: C_15  and  O_18
REMARK                            x       y       z     vdW  Elec       q    Type
REMARK                         _______ _______ _______ _____ _____    ______ ____
ROOT
ATOM      1  C   UNL     1     -24.052   5.654  16.844  0.00  0.00    +0.000 C 
ATOM      2  C   UNL     1     -23.961   4.251  16.147  0.00  0.00    +0.000 C 
ATOM      3  C   UNL     1     -25.076   6.532  16.041  0.00  0.00    +0.000 C 
ENDROOT
BRANCH   1   4
ATOM      4  C   UNL     1     -24.523   5.406  18.285  0.00  0.00    +0.000 A 
ATOM      5  C   UNL     1     -25.523   6.220  18.846  0.00  0.00    +0.000 A 
ATOM      6  C   UNL     1     -25.961   6.035  20.156  0.00  0.00    +0.000 A 
ATOM      7  C   UNL     1     -25.393   5.027  20.926  0.00  0.00    +0.000 A 
ATOM      8  C   UNL     1     -24.397   4.210  20.407  0.00  0.00    +0.000 A 
ATOM      9  C   UNL     1     -23.965   4.407  19.096  0.00  0.00    +0.000 A 
BRANCH   7  10
ATOM     10  O   UNL     1     -25.801   4.815  22.209  0.00  0.00    +0.000 OA
ATOM     11  H   UNL     1     -26.764   4.945  22.254  0.00  0.00    +0.000 HD
ENDBRANCH   7  10
ENDBRANCH   1   4
BRANCH   1  12
ATOM     12  C   UNL     1     -22.708   6.396  16.809  0.00  0.00    +0.000 A 
ATOM     13  C   UNL     1     -22.680   7.803  16.829  0.00  0.00    +0.000 A 
ATOM     14  C   UNL     1     -21.480   8.507  16.781  0.00  0.00    +0.000 A 
ATOM     15  C   UNL     1     -20.283   7.805  16.707  0.00  0.00    +0.000 A 
ATOM     16  C   UNL     1     -20.272   6.416  16.680  0.00  0.00    +0.000 A 
ATOM     17  C   UNL     1     -21.480   5.722  16.725  0.00  0.00    +0.000 A 
BRANCH  15  18
ATOM     18  O   UNL     1     -19.089   8.463  16.665  0.00  0.00    +0.000 OA
ATOM     19  H   UNL     1     -18.757   8.562  17.575  0.00  0.00    +0.000 HD
ENDBRANCH  15  18
ENDBRANCH   1  12
TORSDOF 4
ENDMDL
MODEL 9
REMARK VINA RESULT:      -3.9     20.603     21.957
REMARK  Name = Bisphenol_A.pdbqt.pdb
REMARK  4 active torsions:
REMARK  status: ('A' for Active; 'I' for Inactive)
REMARK    1  A    between atoms: C_1  and  C_4
REMARK    2  A    between atoms: C_1  and  C_12
REMARK    3  A    between atoms: C_7  and  O_10
REMARK    4  A    between atoms: C_15  and  O_18
REMARK                            x       y       z     vdW  Elec       q    Type
REMARK                         _______ _______ _______ _____ _____    ______ ____
ROOT
ATOM      1  C   UNL     1      -5.624  20.855   2.397  0.00  0.00    +0.000 C 
ATOM      2  C   UNL     1      -4.378  20.004   2.830  0.00  0.00    +0.000 C 
ATOM      3  C   UNL     1      -5.109  22.246   1.883  0.00  0.00    +0.000 C 
ENDROOT
BRANCH   1   4
ATOM      4  C   UNL     1      -6.337  20.067   1.287  0.00  0.00    +0.000 A 
ATOM      5  C   UNL     1      -7.241  20.721   0.432  0.00  0.00    +0.000 A 
ATOM      6  C   UNL     1      -7.918  20.034  -0.574  0.00  0.00    +0.000 A 
ATOM      7  C   UNL     1      -7.699  18.671  -0.731  0.00  0.00    +0.000 A 
ATOM      8  C   UNL     1      -6.818  17.991   0.101  0.00  0.00    +0.000 A 
ATOM      9  C   UNL     1      -6.149  18.689   1.104  0.00  0.00    +0.000 A 
BRANCH   7  10
ATOM     10  O   UNL     1      -8.341  17.969  -1.707  0.00  0.00    +0.000 OA
ATOM     11  H   UNL     1      -7.691  17.711  -2.383  0.00  0.00    +0.000 HD
ENDBRANCH   7  10
ENDBRANCH   1   4
BRANCH   1  12
ATOM     12  C   UNL     1      -6.562  21.137   3.579  0.00  0.00    +0.000 A 
ATOM     13  C   UNL     1      -6.586  20.263   4.682  0.00  0.00    +0.000 A 
ATOM     14  C   UNL     1      -7.436  20.479   5.763  0.00  0.00    +0.000 A 
ATOM     15  C   UNL     1      -8.283  21.581   5.751  0.00  0.00    +0.000 A 
ATOM     16  C   UNL     1      -8.291  22.462   4.676  0.00  0.00    +0.000 A 
ATOM     17  C   UNL     1      -7.438  22.233   3.599  0.00  0.00    +0.000 A 
BRANCH  15  18
ATOM     18  O   UNL     1      -9.124  21.826   6.796  0.00  0.00    +0.000 OA
ATOM     19  H   UNL     1      -8.867  21.256   7.541  0.00  0.00    +0.000 HD
ENDBRANCH  15  18
ENDBRANCH   1  12
TORSDOF 4
ENDMDL
