MODEL 1
REMARK VINA RESULT:      -2.6      0.000      0.000
REMARK  Name = CadmiumAcetate.pdbqt.pdb
REMARK  1 active torsions:
REMARK  status: ('A' for Active; 'I' for Inactive)
REMARK    1  A    between atoms: C_3  and  O_4
REMARK                            x       y       z     vdW  Elec       q    Type
REMARK                         _______ _______ _______ _____ _____    ______ ____
ROOT
ATOM      1  O   UNL     1     -16.606  19.507  20.604  0.00  0.00    +0.000 OA
ATOM      2  C   UNL     1     -17.082  19.107  22.818  0.00  0.00    +0.000 C 
ATOM      3  C   UNL     1     -17.414  19.043  21.382  0.00  0.00    +0.000 C 
ENDROOT
BRANCH   3   4
ATOM      4  O   UNL     1     -18.579  18.477  21.074  0.00  0.00    +0.000 OA
ATOM      5  H   UNL     1     -18.762  17.927  21.859  0.00  0.00    +0.000 HD
ENDBRANCH   3   4
TORSDOF 1
ENDMDL
MODEL 2
REMARK VINA RESULT:      -2.6      2.136      2.363
REMARK  Name = CadmiumAcetate.pdbqt.pdb
REMARK  1 active torsions:
REMARK  status: ('A' for Active; 'I' for Inactive)
REMARK    1  A    between atoms: C_3  and  O_4
REMARK                            x       y       z     vdW  Elec       q    Type
REMARK                         _______ _______ _______ _____ _____    ______ ____
ROOT
ATOM      1  O   UNL     1     -16.184  18.477  23.469  0.00  0.00    +0.000 OA
ATOM      2  C   UNL     1     -17.505  18.498  21.587  0.00  0.00    +0.000 C 
ATOM      3  C   UNL     1     -17.083  19.050  22.888  0.00  0.00    +0.000 C 
ENDROOT
BRANCH   3   4
ATOM      4  O   UNL     1     -17.733  20.135  23.305  0.00  0.00    +0.000 OA
ATOM      5  H   UNL     1     -18.060  19.863  24.182  0.00  0.00    +0.000 HD
ENDBRANCH   3   4
TORSDOF 1
ENDMDL
MODEL 3
REMARK VINA RESULT:      -2.6     15.820     16.358
REMARK  Name = CadmiumAcetate.pdbqt.pdb
REMARK  1 active torsions:
REMARK  status: ('A' for Active; 'I' for Inactive)
REMARK    1  A    between atoms: C_3  and  O_4
REMARK                            x       y       z     vdW  Elec       q    Type
REMARK                         _______ _______ _______ _____ _____    ______ ____
ROOT
ATOM      1  O   UNL     1     -23.244  10.669   7.259  0.00  0.00    +0.000 OA
ATOM      2  C   UNL     1     -22.691  12.277   8.808  0.00  0.00    +0.000 C 
ATOM      3  C   UNL     1     -22.532  10.940   8.204  0.00  0.00    +0.000 C 
ENDROOT
BRANCH   3   4
ATOM      4  O   UNL     1     -21.612  10.152   8.758  0.00  0.00    +0.000 OA
ATOM      5  H   UNL     1     -22.120   9.684   9.447  0.00  0.00    +0.000 HD
ENDBRANCH   3   4
TORSDOF 1
ENDMDL
MODEL 4
REMARK VINA RESULT:      -2.4     11.360     11.848
REMARK  Name = CadmiumAcetate.pdbqt.pdb
REMARK  1 active torsions:
REMARK  status: ('A' for Active; 'I' for Inactive)
REMARK    1  A    between atoms: C_3  and  O_4
REMARK                            x       y       z     vdW  Elec       q    Type
REMARK                         _______ _______ _______ _____ _____    ______ ____
ROOT
ATOM      1  O   UNL     1     -22.839   8.119  18.082  0.00  0.00    +0.000 OA
ATOM      2  C   UNL     1     -21.139   9.113  16.895  0.00  0.00    +0.000 C 
ATOM      3  C   UNL     1     -22.434   9.156  17.599  0.00  0.00    +0.000 C 
ENDROOT
BRANCH   3   4
ATOM      4  O   UNL     1     -23.041  10.341  17.638  0.00  0.00    +0.000 OA
ATOM      5  H   UNL     1     -23.316  10.409  18.571  0.00  0.00    +0.000 HD
ENDBRANCH   3   4
TORSDOF 1
ENDMDL
MODEL 5
REMARK VINA RESULT:      -2.3     23.644     24.127
REMARK  Name = CadmiumAcetate.pdbqt.pdb
REMARK  1 active torsions:
REMARK  status: ('A' for Active; 'I' for Inactive)
REMARK    1  A    between atoms: C_3  and  O_4
REMARK                            x       y       z     vdW  Elec       q    Type
REMARK                         _______ _______ _______ _____ _____    ______ ____
ROOT
ATOM      1  O   UNL     1     -14.769  12.312  -1.507  0.00  0.00    +0.000 OA
ATOM      2  C   UNL     1     -13.735  14.013  -2.657  0.00  0.00    +0.000 C 
ATOM      3  C   UNL     1     -13.852  13.106  -1.499  0.00  0.00    +0.000 C 
ENDROOT
BRANCH   3   4
ATOM      4  O   UNL     1     -12.930  13.247  -0.548  0.00  0.00    +0.000 OA
ATOM      5  H   UNL     1     -13.369  13.843   0.086  0.00  0.00    +0.000 HD
ENDBRANCH   3   4
TORSDOF 1
ENDMDL
MODEL 6
REMARK VINA RESULT:      -2.3     11.903     12.415
REMARK  Name = CadmiumAcetate.pdbqt.pdb
REMARK  1 active torsions:
REMARK  status: ('A' for Active; 'I' for Inactive)
REMARK    1  A    between atoms: C_3  and  O_4
REMARK                            x       y       z     vdW  Elec       q    Type
REMARK                         _______ _______ _______ _____ _____    ______ ____
ROOT
ATOM      1  O   UNL     1     -20.237   6.792  16.700  0.00  0.00    +0.000 OA
ATOM      2  C   UNL     1     -21.059   8.898  17.122  0.00  0.00    +0.000 C 
ATOM      3  C   UNL     1     -20.006   7.982  16.643  0.00  0.00    +0.000 C 
ENDROOT
BRANCH   3   4
ATOM      4  O   UNL     1     -18.892   8.555  16.188  0.00  0.00    +0.000 OA
ATOM      5  H   UNL     1     -18.237   8.316  16.870  0.00  0.00    +0.000 HD
ENDBRANCH   3   4
TORSDOF 1
ENDMDL
MODEL 7
REMARK VINA RESULT:      -2.2     14.099     14.628
REMARK  Name = CadmiumAcetate.pdbqt.pdb
REMARK  1 active torsions:
REMARK  status: ('A' for Active; 'I' for Inactive)
REMARK    1  A    between atoms: C_3  and  O_4
REMARK                            x       y       z     vdW  Elec       q    Type
REMARK                         _______ _______ _______ _____ _____    ______ ____
ROOT
ATOM      1  O   UNL     1     -23.491  12.671   9.103  0.00  0.00    +0.000 OA
ATOM      2  C   UNL     1     -25.414  13.642   9.907  0.00  0.00    +0.000 C 
ATOM      3  C   UNL     1     -24.119  12.961  10.100  0.00  0.00    +0.000 C 
ENDROOT
BRANCH   3   4
ATOM      4  O   UNL     1     -23.761  12.728  11.361  0.00  0.00    +0.000 OA
ATOM      5  H   UNL     1     -24.597  12.437  11.770  0.00  0.00    +0.000 HD
ENDBRANCH   3   4
TORSDOF 1
ENDMDL
MODEL 8
REMARK VINA RESULT:      -2.1     26.623     27.063
REMARK  Name = CadmiumAcetate.pdbqt.pdb
REMARK  1 active torsions:
REMARK  status: ('A' for Active; 'I' for Inactive)
REMARK    1  A    between atoms: C_3  and  O_4
REMARK                            x       y       z     vdW  Elec       q    Type
REMARK                         _______ _______ _______ _____ _____    ______ ____
ROOT
ATOM      1  O   UNL     1      -1.335   6.940   2.184  0.00  0.00    +0.000 OA
ATOM      2  C   UNL     1      -2.014   5.119   3.413  0.00  0.00    +0.000 C 
ATOM      3  C   UNL     1      -2.132   6.531   3.003  0.00  0.00    +0.000 C 
ENDROOT
BRANCH   3   4
ATOM      4  O   UNL     1      -3.112   7.228   3.576  0.00  0.00    +0.000 OA
ATOM      5  H   UNL     1      -3.902   6.696   3.365  0.00  0.00    +0.000 HD
ENDBRANCH   3   4
TORSDOF 1
ENDMDL
MODEL 9
REMARK VINA RESULT:      -2.1     10.690     11.078
REMARK  Name = CadmiumAcetate.pdbqt.pdb
REMARK  1 active torsions:
REMARK  status: ('A' for Active; 'I' for Inactive)
REMARK    1  A    between atoms: C_3  and  O_4
REMARK                            x       y       z     vdW  Elec       q    Type
REMARK                         _______ _______ _______ _____ _____    ______ ____
ROOT
ATOM      1  O   UNL     1     -24.755  12.386  26.507  0.00  0.00    +0.000 OA
ATOM      2  C   UNL     1     -25.209  13.720  28.323  0.00  0.00    +0.000 C 
ATOM      3  C   UNL     1     -24.276  12.995  27.440  0.00  0.00    +0.000 C 
ENDROOT
BRANCH   3   4
ATOM      4  O   UNL     1     -22.984  13.081  27.755  0.00  0.00    +0.000 OA
ATOM      5  H   UNL     1     -22.547  12.741  26.953  0.00  0.00    +0.000 HD
ENDBRANCH   3   4
TORSDOF 1
ENDMDL
