MODEL 1
REMARK VINA RESULT:      -6.9      0.000      0.000
REMARK  Name = Calcitriol.pdbqt.pdb
REMARK  9 active torsions:
REMARK  status: ('A' for Active; 'I' for Inactive)
REMARK    1  A    between atoms: C_2  and  C_24
REMARK    2  A    between atoms: C_7  and  C_11
REMARK    3  A    between atoms: C_12  and  C_13
REMARK    4  A    between atoms: C_16  and  O_20
REMARK    5  A    between atoms: C_18  and  O_22
REMARK    6  A    between atoms: C_24  and  C_26
REMARK    7  A    between atoms: C_27  and  C_28
REMARK    8  A    between atoms: C_28  and  C_29
REMARK    9  A    between atoms: C_29  and  O_32
REMARK                            x       y       z     vdW  Elec       q    Type
REMARK                         _______ _______ _______ _____ _____    ______ ____
ROOT
ATOM      1  C   UNL     1     -15.551   4.053  -2.211  0.00  0.00    +0.000 C 
ATOM      2  C   UNL     1     -14.282   3.274  -1.876  0.00  0.00    +0.000 C 
ATOM      3  C   UNL     1     -14.997   5.561  -2.452  0.00  0.00    +0.000 C 
ATOM      4  C   UNL     1     -13.143   4.114  -2.047  0.00  0.00    +0.000 C 
ATOM      5  C   UNL     1     -13.568   5.506  -2.426  0.00  0.00    +0.000 C 
ATOM      6  C   UNL     1     -16.524   4.134  -1.111  0.00  0.00    +0.000 C 
ATOM      7  C   UNL     1     -15.719   6.722  -1.916  0.00  0.00    +0.000 C 
ATOM      8  C   UNL     1     -16.155   3.578  -3.563  0.00  0.00    +0.000 C 
ATOM      9  C   UNL     1     -17.299   5.174  -0.320  0.00  0.00    +0.000 C 
ATOM     10  C   UNL     1     -16.716   6.422  -0.950  0.00  0.00    +0.000 C 
ENDROOT
BRANCH   7  11
ATOM     11  C   UNL     1     -15.408   7.956  -2.165  0.00  0.00    +0.000 C 
ATOM     12  C   UNL     1     -15.034   9.416  -2.446  0.00  0.00    +0.000 C 
BRANCH  12  13
ATOM     13  C   UNL     1     -14.710  10.652  -2.678  0.00  0.00    +0.000 A 
ATOM     14  C   UNL     1     -14.460  11.078  -4.023  0.00  0.00    +0.000 A 
ATOM     15  C   UNL     1     -14.499  11.729  -1.660  0.00  0.00    +0.000 A 
ATOM     16  C   UNL     1     -14.052  12.318  -4.591  0.00  0.00    +0.000 A 
ATOM     17  C   UNL     1     -13.882  13.239  -3.519  0.00  0.00    +0.000 A 
ATOM     18  C   UNL     1     -14.062  13.086  -2.114  0.00  0.00    +0.000 A 
ATOM     19  C   UNL     1     -14.699  11.520  -0.346  0.00  0.00    +0.000 C 
BRANCH  16  20
ATOM     20  O   UNL     1     -14.491  12.712  -5.822  0.00  0.00    +0.000 OA
ATOM     21  H   UNL     1     -13.750  12.837  -6.438  0.00  0.00    +0.000 HD
ENDBRANCH  16  20
BRANCH  18  22
ATOM     22  O   UNL     1     -13.860  14.117  -1.227  0.00  0.00    +0.000 OA
ATOM     23  H   UNL     1     -14.162  13.859  -0.335  0.00  0.00    +0.000 HD
ENDBRANCH  18  22
ENDBRANCH  12  13
ENDBRANCH   7  11
BRANCH   2  24
ATOM     24  C   UNL     1     -14.226   1.873  -1.598  0.00  0.00    +0.000 C 
ATOM     25  C   UNL     1     -15.176   0.875  -2.208  0.00  0.00    +0.000 C 
BRANCH  24  26
ATOM     26  C   UNL     1     -13.379   1.361  -0.577  0.00  0.00    +0.000 C 
ATOM     27  C   UNL     1     -12.462   0.824   0.529  0.00  0.00    +0.000 C 
BRANCH  27  28
ATOM     28  C   UNL     1     -11.540   0.299   1.637  0.00  0.00    +0.000 C 
BRANCH  28  29
ATOM     29  C   UNL     1     -10.658  -0.197   2.693  0.00  0.00    +0.000 C 
ATOM     30  C   UNL     1      -9.660  -1.247   2.190  0.00  0.00    +0.000 C 
ATOM     31  C   UNL     1      -9.932   0.921   3.449  0.00  0.00    +0.000 C 
BRANCH  29  32
ATOM     32  O   UNL     1     -11.436  -0.857   3.667  0.00  0.00    +0.000 OA
ATOM     33  H   UNL     1     -12.310  -0.706   3.278  0.00  0.00    +0.000 HD
ENDBRANCH  29  32
ENDBRANCH  28  29
ENDBRANCH  27  28
ENDBRANCH  24  26
ENDBRANCH   2  24
TORSDOF 9
ENDMDL
MODEL 2
REMARK VINA RESULT:      -6.7      5.876      7.764
REMARK  Name = Calcitriol.pdbqt.pdb
REMARK  9 active torsions:
REMARK  status: ('A' for Active; 'I' for Inactive)
REMARK    1  A    between atoms: C_2  and  C_24
REMARK    2  A    between atoms: C_7  and  C_11
REMARK    3  A    between atoms: C_12  and  C_13
REMARK    4  A    between atoms: C_16  and  O_20
REMARK    5  A    between atoms: C_18  and  O_22
REMARK    6  A    between atoms: C_24  and  C_26
REMARK    7  A    between atoms: C_27  and  C_28
REMARK    8  A    between atoms: C_28  and  C_29
REMARK    9  A    between atoms: C_29  and  O_32
REMARK                            x       y       z     vdW  Elec       q    Type
REMARK                         _______ _______ _______ _____ _____    ______ ____
ROOT
ATOM      1  C   UNL     1     -16.902   8.051  -0.690  0.00  0.00    +0.000 C 
ATOM      2  C   UNL     1     -16.581   8.452  -2.127  0.00  0.00    +0.000 C 
ATOM      3  C   UNL     1     -18.285   8.848  -0.391  0.00  0.00    +0.000 C 
ATOM      4  C   UNL     1     -17.658   9.217  -2.664  0.00  0.00    +0.000 C 
ATOM      5  C   UNL     1     -18.717   9.440  -1.619  0.00  0.00    +0.000 C 
ATOM      6  C   UNL     1     -15.924   8.520   0.306  0.00  0.00    +0.000 C 
ATOM      7  C   UNL     1     -18.500   9.528   0.892  0.00  0.00    +0.000 C 
ATOM      8  C   UNL     1     -17.230   6.534  -0.594  0.00  0.00    +0.000 C 
ATOM      9  C   UNL     1     -15.875   9.312   1.601  0.00  0.00    +0.000 C 
ATOM     10  C   UNL     1     -17.338   9.696   1.690  0.00  0.00    +0.000 C 
ENDROOT
BRANCH   7  11
ATOM     11  C   UNL     1     -19.617  10.080   1.250  0.00  0.00    +0.000 C 
ATOM     12  C   UNL     1     -20.940  10.723   1.682  0.00  0.00    +0.000 C 
BRANCH  12  13
ATOM     13  C   UNL     1     -22.062  11.261   2.055  0.00  0.00    +0.000 A 
ATOM     14  C   UNL     1     -23.258  10.474   2.062  0.00  0.00    +0.000 A 
ATOM     15  C   UNL     1     -22.283  12.689   2.447  0.00  0.00    +0.000 A 
ATOM     16  C   UNL     1     -24.618  10.771   2.364  0.00  0.00    +0.000 A 
ATOM     17  C   UNL     1     -24.683  12.151   2.709  0.00  0.00    +0.000 A 
ATOM     18  C   UNL     1     -23.667  13.146   2.786  0.00  0.00    +0.000 A 
ATOM     19  C   UNL     1     -21.275  13.578   2.512  0.00  0.00    +0.000 C 
BRANCH  16  20
ATOM     20  O   UNL     1     -25.435   9.841   2.941  0.00  0.00    +0.000 OA
ATOM     21  H   UNL     1     -25.320   8.968   2.530  0.00  0.00    +0.000 HD
ENDBRANCH  16  20
BRANCH  18  22
ATOM     22  O   UNL     1     -23.931  14.442   3.160  0.00  0.00    +0.000 OA
ATOM     23  H   UNL     1     -23.316  15.055   2.712  0.00  0.00    +0.000 HD
ENDBRANCH  18  22
ENDBRANCH  12  13
ENDBRANCH   7  11
BRANCH   2  24
ATOM     24  C   UNL     1     -15.455   7.993  -2.878  0.00  0.00    +0.000 C 
ATOM     25  C   UNL     1     -14.884   8.752  -4.048  0.00  0.00    +0.000 C 
BRANCH  24  26
ATOM     26  C   UNL     1     -14.920   6.691  -2.678  0.00  0.00    +0.000 C 
ATOM     27  C   UNL     1     -14.357   5.282  -2.456  0.00  0.00    +0.000 C 
BRANCH  27  28
ATOM     28  C   UNL     1     -13.806   3.869  -2.227  0.00  0.00    +0.000 C 
BRANCH  28  29
ATOM     29  C   UNL     1     -13.276   2.523  -2.009  0.00  0.00    +0.000 C 
ATOM     30  C   UNL     1     -13.599   1.563  -3.160  0.00  0.00    +0.000 C 
ATOM     31  C   UNL     1     -11.775   2.508  -1.699  0.00  0.00    +0.000 C 
BRANCH  29  32
ATOM     32  O   UNL     1     -13.894   1.966  -0.871  0.00  0.00    +0.000 OA
ATOM     33  H   UNL     1     -14.790   2.303  -1.015  0.00  0.00    +0.000 HD
ENDBRANCH  29  32
ENDBRANCH  28  29
ENDBRANCH  27  28
ENDBRANCH  24  26
ENDBRANCH   2  24
TORSDOF 9
ENDMDL
MODEL 3
REMARK VINA RESULT:      -6.6      6.184      9.070
REMARK  Name = Calcitriol.pdbqt.pdb
REMARK  9 active torsions:
REMARK  status: ('A' for Active; 'I' for Inactive)
REMARK    1  A    between atoms: C_2  and  C_24
REMARK    2  A    between atoms: C_7  and  C_11
REMARK    3  A    between atoms: C_12  and  C_13
REMARK    4  A    between atoms: C_16  and  O_20
REMARK    5  A    between atoms: C_18  and  O_22
REMARK    6  A    between atoms: C_24  and  C_26
REMARK    7  A    between atoms: C_27  and  C_28
REMARK    8  A    between atoms: C_28  and  C_29
REMARK    9  A    between atoms: C_29  and  O_32
REMARK                            x       y       z     vdW  Elec       q    Type
REMARK                         _______ _______ _______ _____ _____    ______ ____
ROOT
ATOM      1  C   UNL     1     -15.986   9.523  -1.766  0.00  0.00    +0.000 C 
ATOM      2  C   UNL     1     -16.383   9.817  -0.322  0.00  0.00    +0.000 C 
ATOM      3  C   UNL     1     -14.913  10.698  -2.094  0.00  0.00    +0.000 C 
ATOM      4  C   UNL     1     -15.575  10.874   0.192  0.00  0.00    +0.000 C 
ATOM      5  C   UNL     1     -14.655  11.400  -0.875  0.00  0.00    +0.000 C 
ATOM      6  C   UNL     1     -17.079   9.670  -2.740  0.00  0.00    +0.000 C 
ATOM      7  C   UNL     1     -14.940  11.404  -3.381  0.00  0.00    +0.000 C 
ATOM      8  C   UNL     1     -15.217   8.176  -1.870  0.00  0.00    +0.000 C 
ATOM      9  C   UNL     1     -17.392  10.403  -4.033  0.00  0.00    +0.000 C 
ATOM     10  C   UNL     1     -16.115  11.209  -4.154  0.00  0.00    +0.000 C 
ENDROOT
BRANCH   7  11
ATOM     11  C   UNL     1     -14.050  12.266  -3.763  0.00  0.00    +0.000 C 
ATOM     12  C   UNL     1     -12.996  13.290  -4.201  0.00  0.00    +0.000 C 
BRANCH  12  13
ATOM     13  C   UNL     1     -12.100  14.157  -4.563  0.00  0.00    +0.000 A 
ATOM     14  C   UNL     1     -12.288  15.542  -4.252  0.00  0.00    +0.000 A 
ATOM     15  C   UNL     1     -10.858  13.884  -5.354  0.00  0.00    +0.000 A 
ATOM     16  C   UNL     1     -11.535  16.717  -4.541  0.00  0.00    +0.000 A 
ATOM     17  C   UNL     1     -10.398  16.314  -5.296  0.00  0.00    +0.000 A 
ATOM     18  C   UNL     1      -9.971  15.028  -5.736  0.00  0.00    +0.000 A 
ATOM     19  C   UNL     1     -10.506  12.641  -5.727  0.00  0.00    +0.000 C 
BRANCH  16  20
ATOM     20  O   UNL     1     -11.490  17.762  -3.665  0.00  0.00    +0.000 OA
ATOM     21  H   UNL     1     -10.936  18.484  -4.006  0.00  0.00    +0.000 HD
ENDBRANCH  16  20
BRANCH  18  22
ATOM     22  O   UNL     1      -8.815  14.839  -6.454  0.00  0.00    +0.000 OA
ATOM     23  H   UNL     1      -9.022  14.710  -7.400  0.00  0.00    +0.000 HD
ENDBRANCH  18  22
ENDBRANCH  12  13
ENDBRANCH   7  11
BRANCH   2  24
ATOM     24  C   UNL     1     -17.301   9.045   0.452  0.00  0.00    +0.000 C 
ATOM     25  C   UNL     1     -17.108   7.577   0.733  0.00  0.00    +0.000 C 
BRANCH  24  26
ATOM     26  C   UNL     1     -18.557   9.579   0.850  0.00  0.00    +0.000 C 
ATOM     27  C   UNL     1     -19.904  10.168   1.287  0.00  0.00    +0.000 C 
BRANCH  27  28
ATOM     28  C   UNL     1     -21.245  10.767   1.731  0.00  0.00    +0.000 C 
BRANCH  28  29
ATOM     29  C   UNL     1     -22.521  11.342   2.156  0.00  0.00    +0.000 C 
ATOM     30  C   UNL     1     -23.235  10.491   3.213  0.00  0.00    +0.000 C 
ATOM     31  C   UNL     1     -22.402  12.797   2.625  0.00  0.00    +0.000 C 
BRANCH  29  32
ATOM     32  O   UNL     1     -23.397  11.381   1.052  0.00  0.00    +0.000 OA
ATOM     33  H   UNL     1     -22.918  12.026   0.512  0.00  0.00    +0.000 HD
ENDBRANCH  29  32
ENDBRANCH  28  29
ENDBRANCH  27  28
ENDBRANCH  24  26
ENDBRANCH   2  24
TORSDOF 9
ENDMDL
MODEL 4
REMARK VINA RESULT:      -6.6      2.610      4.537
REMARK  Name = Calcitriol.pdbqt.pdb
REMARK  9 active torsions:
REMARK  status: ('A' for Active; 'I' for Inactive)
REMARK    1  A    between atoms: C_2  and  C_24
REMARK    2  A    between atoms: C_7  and  C_11
REMARK    3  A    between atoms: C_12  and  C_13
REMARK    4  A    between atoms: C_16  and  O_20
REMARK    5  A    between atoms: C_18  and  O_22
REMARK    6  A    between atoms: C_24  and  C_26
REMARK    7  A    between atoms: C_27  and  C_28
REMARK    8  A    between atoms: C_28  and  C_29
REMARK    9  A    between atoms: C_29  and  O_32
REMARK                            x       y       z     vdW  Elec       q    Type
REMARK                         _______ _______ _______ _____ _____    ______ ____
ROOT
ATOM      1  C   UNL     1     -16.118   8.207  -1.674  0.00  0.00    +0.000 C 
ATOM      2  C   UNL     1     -15.467   6.989  -2.324  0.00  0.00    +0.000 C 
ATOM      3  C   UNL     1     -15.572   9.438  -2.581  0.00  0.00    +0.000 C 
ATOM      4  C   UNL     1     -14.786   7.386  -3.512  0.00  0.00    +0.000 C 
ATOM      5  C   UNL     1     -14.868   8.877  -3.693  0.00  0.00    +0.000 C 
ATOM      6  C   UNL     1     -15.672   8.472  -0.296  0.00  0.00    +0.000 C 
ATOM      7  C   UNL     1     -15.127  10.691  -1.961  0.00  0.00    +0.000 C 
ATOM      8  C   UNL     1     -17.662   8.173  -1.848  0.00  0.00    +0.000 C 
ATOM      9  C   UNL     1     -15.083   9.596   0.537  0.00  0.00    +0.000 C 
ATOM     10  C   UNL     1     -14.922  10.632  -0.557  0.00  0.00    +0.000 C 
ENDROOT
BRANCH   7  11
ATOM     11  C   UNL     1     -14.792  11.757  -2.619  0.00  0.00    +0.000 C 
ATOM     12  C   UNL     1     -14.410  13.018  -3.403  0.00  0.00    +0.000 C 
BRANCH  12  13
ATOM     13  C   UNL     1     -14.095  14.089  -4.067  0.00  0.00    +0.000 A 
ATOM     14  C   UNL     1     -12.848  14.742  -3.807  0.00  0.00    +0.000 A 
ATOM     15  C   UNL     1     -14.940  14.793  -5.083  0.00  0.00    +0.000 A 
ATOM     16  C   UNL     1     -12.244  15.927  -4.318  0.00  0.00    +0.000 A 
ATOM     17  C   UNL     1     -13.152  16.493  -5.257  0.00  0.00    +0.000 A 
ATOM     18  C   UNL     1     -14.434  16.059  -5.701  0.00  0.00    +0.000 A 
ATOM     19  C   UNL     1     -16.140  14.321  -5.467  0.00  0.00    +0.000 C 
BRANCH  16  20
ATOM     20  O   UNL     1     -10.891  16.025  -4.468  0.00  0.00    +0.000 OA
ATOM     21  H   UNL     1     -10.424  15.479  -3.814  0.00  0.00    +0.000 HD
ENDBRANCH  16  20
BRANCH  18  22
ATOM     22  O   UNL     1     -15.161  16.746  -6.644  0.00  0.00    +0.000 OA
ATOM     23  H   UNL     1     -14.968  16.399  -7.537  0.00  0.00    +0.000 HD
ENDBRANCH  18  22
ENDBRANCH  12  13
ENDBRANCH   7  11
BRANCH   2  24
ATOM     24  C   UNL     1     -15.650   5.635  -1.904  0.00  0.00    +0.000 C 
ATOM     25  C   UNL     1     -16.928   5.133  -1.284  0.00  0.00    +0.000 C 
BRANCH  24  26
ATOM     26  C   UNL     1     -14.561   4.722  -1.877  0.00  0.00    +0.000 C 
ATOM     27  C   UNL     1     -13.391   3.730  -1.833  0.00  0.00    +0.000 C 
BRANCH  27  28
ATOM     28  C   UNL     1     -12.225   2.736  -1.776  0.00  0.00    +0.000 C 
BRANCH  28  29
ATOM     29  C   UNL     1     -11.111   1.789  -1.718  0.00  0.00    +0.000 C 
ATOM     30  C   UNL     1     -11.564   0.329  -1.831  0.00  0.00    +0.000 C 
ATOM     31  C   UNL     1     -10.007   2.092  -2.737  0.00  0.00    +0.000 C 
BRANCH  29  32
ATOM     32  O   UNL     1     -10.488   1.892  -0.457  0.00  0.00    +0.000 OA
ATOM     33  H   UNL     1     -10.766   2.792  -0.233  0.00  0.00    +0.000 HD
ENDBRANCH  29  32
ENDBRANCH  28  29
ENDBRANCH  27  28
ENDBRANCH  24  26
ENDBRANCH   2  24
TORSDOF 9
ENDMDL
MODEL 5
REMARK VINA RESULT:      -6.4     12.668     17.211
REMARK  Name = Calcitriol.pdbqt.pdb
REMARK  9 active torsions:
REMARK  status: ('A' for Active; 'I' for Inactive)
REMARK    1  A    between atoms: C_2  and  C_24
REMARK    2  A    between atoms: C_7  and  C_11
REMARK    3  A    between atoms: C_12  and  C_13
REMARK    4  A    between atoms: C_16  and  O_20
REMARK    5  A    between atoms: C_18  and  O_22
REMARK    6  A    between atoms: C_24  and  C_26
REMARK    7  A    between atoms: C_27  and  C_28
REMARK    8  A    between atoms: C_28  and  C_29
REMARK    9  A    between atoms: C_29  and  O_32
REMARK                            x       y       z     vdW  Elec       q    Type
REMARK                         _______ _______ _______ _____ _____    ______ ____
ROOT
ATOM      1  C   UNL     1     -23.941  14.203   7.610  0.00  0.00    +0.000 C 
ATOM      2  C   UNL     1     -22.870  14.317   8.690  0.00  0.00    +0.000 C 
ATOM      3  C   UNL     1     -24.030  12.602   7.352  0.00  0.00    +0.000 C 
ATOM      4  C   UNL     1     -22.494  13.014   9.132  0.00  0.00    +0.000 C 
ATOM      5  C   UNL     1     -23.218  11.960   8.340  0.00  0.00    +0.000 C 
ATOM      6  C   UNL     1     -23.575  14.815   6.322  0.00  0.00    +0.000 C 
ATOM      7  C   UNL     1     -24.131  12.063   5.991  0.00  0.00    +0.000 C 
ATOM      8  C   UNL     1     -25.329  14.645   8.154  0.00  0.00    +0.000 C 
ATOM      9  C   UNL     1     -23.479  14.454   4.851  0.00  0.00    +0.000 C 
ATOM     10  C   UNL     1     -23.840  12.986   4.951  0.00  0.00    +0.000 C 
ENDROOT
BRANCH   7  11
ATOM     11  C   UNL     1     -24.324  10.812   5.710  0.00  0.00    +0.000 C 
ATOM     12  C   UNL     1     -24.540   9.333   5.370  0.00  0.00    +0.000 C 
BRANCH  12  13
ATOM     13  C   UNL     1     -24.715   8.079   5.079  0.00  0.00    +0.000 A 
ATOM     14  C   UNL     1     -24.446   7.079   6.068  0.00  0.00    +0.000 A 
ATOM     15  C   UNL     1     -25.129   7.517   3.755  0.00  0.00    +0.000 A 
ATOM     16  C   UNL     1     -24.493   5.655   6.051  0.00  0.00    +0.000 A 
ATOM     17  C   UNL     1     -24.890   5.261   4.741  0.00  0.00    +0.000 A 
ATOM     18  C   UNL     1     -25.216   6.032   3.588  0.00  0.00    +0.000 A 
ATOM     19  C   UNL     1     -25.436   8.303   2.708  0.00  0.00    +0.000 C 
BRANCH  16  20
ATOM     20  O   UNL     1     -24.849   4.945   7.160  0.00  0.00    +0.000 OA
ATOM     21  H   UNL     1     -25.553   4.306   6.959  0.00  0.00    +0.000 HD
ENDBRANCH  16  20
BRANCH  18  22
ATOM     22  O   UNL     1     -25.598   5.457   2.400  0.00  0.00    +0.000 OA
ATOM     23  H   UNL     1     -24.870   4.916   2.037  0.00  0.00    +0.000 HD
ENDBRANCH  18  22
ENDBRANCH  12  13
ENDBRANCH   7  11
BRANCH   2  24
ATOM     24  C   UNL     1     -22.430  15.537   9.289  0.00  0.00    +0.000 C 
ATOM     25  C   UNL     1     -22.592  15.837  10.757  0.00  0.00    +0.000 C 
BRANCH  24  26
ATOM     26  C   UNL     1     -21.977  16.624   8.493  0.00  0.00    +0.000 C 
ATOM     27  C   UNL     1     -21.490  17.808   7.647  0.00  0.00    +0.000 C 
BRANCH  27  28
ATOM     28  C   UNL     1     -21.006  19.000   6.812  0.00  0.00    +0.000 C 
BRANCH  28  29
ATOM     29  C   UNL     1     -20.549  20.137   6.014  0.00  0.00    +0.000 C 
ATOM     30  C   UNL     1     -21.544  20.533   4.917  0.00  0.00    +0.000 C 
ATOM     31  C   UNL     1     -20.167  21.355   6.862  0.00  0.00    +0.000 C 
BRANCH  29  32
ATOM     32  O   UNL     1     -19.367  19.775   5.335  0.00  0.00    +0.000 OA
ATOM     33  H   UNL     1     -18.987  19.193   6.010  0.00  0.00    +0.000 HD
ENDBRANCH  29  32
ENDBRANCH  28  29
ENDBRANCH  27  28
ENDBRANCH  24  26
ENDBRANCH   2  24
TORSDOF 9
ENDMDL
MODEL 6
REMARK VINA RESULT:      -6.3      2.754      4.015
REMARK  Name = Calcitriol.pdbqt.pdb
REMARK  9 active torsions:
REMARK  status: ('A' for Active; 'I' for Inactive)
REMARK    1  A    between atoms: C_2  and  C_24
REMARK    2  A    between atoms: C_7  and  C_11
REMARK    3  A    between atoms: C_12  and  C_13
REMARK    4  A    between atoms: C_16  and  O_20
REMARK    5  A    between atoms: C_18  and  O_22
REMARK    6  A    between atoms: C_24  and  C_26
REMARK    7  A    between atoms: C_27  and  C_28
REMARK    8  A    between atoms: C_28  and  C_29
REMARK    9  A    between atoms: C_29  and  O_32
REMARK                            x       y       z     vdW  Elec       q    Type
REMARK                         _______ _______ _______ _____ _____    ______ ____
ROOT
ATOM      1  C   UNL     1     -17.219   4.806  -1.366  0.00  0.00    +0.000 C 
ATOM      2  C   UNL     1     -18.449   4.450  -2.196  0.00  0.00    +0.000 C 
ATOM      3  C   UNL     1     -16.949   6.357  -1.766  0.00  0.00    +0.000 C 
ATOM      4  C   UNL     1     -18.941   5.617  -2.852  0.00  0.00    +0.000 C 
ATOM      5  C   UNL     1     -18.046   6.793  -2.573  0.00  0.00    +0.000 C 
ATOM      6  C   UNL     1     -16.003   4.061  -1.730  0.00  0.00    +0.000 C 
ATOM      7  C   UNL     1     -15.587   6.843  -2.017  0.00  0.00    +0.000 C 
ATOM      8  C   UNL     1     -17.548   4.788   0.153  0.00  0.00    +0.000 C 
ATOM      9  C   UNL     1     -14.562   4.318  -2.135  0.00  0.00    +0.000 C 
ATOM     10  C   UNL     1     -14.605   5.831  -2.186  0.00  0.00    +0.000 C 
ENDROOT
BRANCH   7  11
ATOM     11  C   UNL     1     -15.278   8.085  -2.223  0.00  0.00    +0.000 C 
ATOM     12  C   UNL     1     -14.926   9.556  -2.474  0.00  0.00    +0.000 C 
BRANCH  12  13
ATOM     13  C   UNL     1     -14.636  10.804  -2.688  0.00  0.00    +0.000 A 
ATOM     14  C   UNL     1     -14.417  11.261  -4.027  0.00  0.00    +0.000 A 
ATOM     15  C   UNL     1     -14.438  11.867  -1.652  0.00  0.00    +0.000 A 
ATOM     16  C   UNL     1     -14.048  12.522  -4.578  0.00  0.00    +0.000 A 
ATOM     17  C   UNL     1     -13.886  13.427  -3.491  0.00  0.00    +0.000 A 
ATOM     18  C   UNL     1     -14.041  13.243  -2.087  0.00  0.00    +0.000 A 
ATOM     19  C   UNL     1     -14.613  11.629  -0.340  0.00  0.00    +0.000 C 
BRANCH  16  20
ATOM     20  O   UNL     1     -14.515  12.927  -5.795  0.00  0.00    +0.000 OA
ATOM     21  H   UNL     1     -15.421  13.272  -5.728  0.00  0.00    +0.000 HD
ENDBRANCH  16  20
BRANCH  18  22
ATOM     22  O   UNL     1     -13.853  14.262  -1.184  0.00  0.00    +0.000 OA
ATOM     23  H   UNL     1     -14.636  14.353  -0.608  0.00  0.00    +0.000 HD
ENDBRANCH  18  22
ENDBRANCH  12  13
ENDBRANCH   7  11
BRANCH   2  24
ATOM     24  C   UNL     1     -19.110   3.183  -2.187  0.00  0.00    +0.000 C 
ATOM     25  C   UNL     1     -20.587   3.025  -2.441  0.00  0.00    +0.000 C 
BRANCH  24  26
ATOM     26  C   UNL     1     -18.439   2.008  -1.751  0.00  0.00    +0.000 C 
ATOM     27  C   UNL     1     -17.717   0.733  -1.296  0.00  0.00    +0.000 C 
BRANCH  27  28
ATOM     28  C   UNL     1     -16.998  -0.547  -0.853  0.00  0.00    +0.000 C 
BRANCH  28  29
ATOM     29  C   UNL     1     -16.314  -1.768  -0.427  0.00  0.00    +0.000 C 
ATOM     30  C   UNL     1     -15.618  -1.618   0.930  0.00  0.00    +0.000 C 
ATOM     31  C   UNL     1     -17.223  -3.002  -0.434  0.00  0.00    +0.000 C 
BRANCH  29  32
ATOM     32  O   UNL     1     -15.285  -2.062  -1.346  0.00  0.00    +0.000 OA
ATOM     33  H   UNL     1     -14.584  -2.274  -0.712  0.00  0.00    +0.000 HD
ENDBRANCH  29  32
ENDBRANCH  28  29
ENDBRANCH  27  28
ENDBRANCH  24  26
ENDBRANCH   2  24
TORSDOF 9
ENDMDL
MODEL 7
REMARK VINA RESULT:      -6.0      3.328      4.924
REMARK  Name = Calcitriol.pdbqt.pdb
REMARK  9 active torsions:
REMARK  status: ('A' for Active; 'I' for Inactive)
REMARK    1  A    between atoms: C_2  and  C_24
REMARK    2  A    between atoms: C_7  and  C_11
REMARK    3  A    between atoms: C_12  and  C_13
REMARK    4  A    between atoms: C_16  and  O_20
REMARK    5  A    between atoms: C_18  and  O_22
REMARK    6  A    between atoms: C_24  and  C_26
REMARK    7  A    between atoms: C_27  and  C_28
REMARK    8  A    between atoms: C_28  and  C_29
REMARK    9  A    between atoms: C_29  and  O_32
REMARK                            x       y       z     vdW  Elec       q    Type
REMARK                         _______ _______ _______ _____ _____    ______ ____
ROOT
ATOM      1  C   UNL     1     -16.676   7.886  -1.233  0.00  0.00    +0.000 C 
ATOM      2  C   UNL     1     -16.194   6.487  -1.607  0.00  0.00    +0.000 C 
ATOM      3  C   UNL     1     -15.862   8.838  -2.267  0.00  0.00    +0.000 C 
ATOM      4  C   UNL     1     -15.367   6.558  -2.768  0.00  0.00    +0.000 C 
ATOM      5  C   UNL     1     -15.181   7.988  -3.194  0.00  0.00    +0.000 C 
ATOM      6  C   UNL     1     -16.297   8.318   0.122  0.00  0.00    +0.000 C 
ATOM      7  C   UNL     1     -15.259  10.098  -1.814  0.00  0.00    +0.000 C 
ATOM      8  C   UNL     1     -18.186   8.060  -1.560  0.00  0.00    +0.000 C 
ATOM      9  C   UNL     1     -15.591   9.466   0.819  0.00  0.00    +0.000 C 
ATOM     10  C   UNL     1     -15.173  10.255  -0.405  0.00  0.00    +0.000 C 
ENDROOT
BRANCH   7  11
ATOM     11  C   UNL     1     -14.699  10.966  -2.597  0.00  0.00    +0.000 C 
ATOM     12  C   UNL     1     -14.044  12.003  -3.517  0.00  0.00    +0.000 C 
BRANCH  12  13
ATOM     13  C   UNL     1     -13.490  12.888  -4.289  0.00  0.00    +0.000 A 
ATOM     14  C   UNL     1     -13.395  14.249  -3.852  0.00  0.00    +0.000 A 
ATOM     15  C   UNL     1     -12.961  12.665  -5.671  0.00  0.00    +0.000 A 
ATOM     16  C   UNL     1     -12.900  15.436  -4.465  0.00  0.00    +0.000 A 
ATOM     17  C   UNL     1     -12.441  15.081  -5.765  0.00  0.00    +0.000 A 
ATOM     18  C   UNL     1     -12.413  13.827  -6.440  0.00  0.00    +0.000 A 
ATOM     19  C   UNL     1     -12.953  11.448  -6.247  0.00  0.00    +0.000 C 
BRANCH  16  20
ATOM     20  O   UNL     1     -12.301  16.417  -3.728  0.00  0.00    +0.000 OA
ATOM     21  H   UNL     1     -12.943  17.093  -3.454  0.00  0.00    +0.000 HD
ENDBRANCH  16  20
BRANCH  18  22
ATOM     22  O   UNL     1     -11.907  13.682  -7.709  0.00  0.00    +0.000 OA
ATOM     23  H   UNL     1     -11.231  12.977  -7.725  0.00  0.00    +0.000 HD
ENDBRANCH  18  22
ENDBRANCH  12  13
ENDBRANCH   7  11
BRANCH   2  24
ATOM     24  C   UNL     1     -16.635   5.273  -0.996  0.00  0.00    +0.000 C 
ATOM     25  C   UNL     1     -17.403   5.237   0.300  0.00  0.00    +0.000 C 
BRANCH  24  26
ATOM     26  C   UNL     1     -16.209   4.008  -1.485  0.00  0.00    +0.000 C 
ATOM     27  C   UNL     1     -15.756   2.635  -1.999  0.00  0.00    +0.000 C 
BRANCH  27  28
ATOM     28  C   UNL     1     -15.305   1.258  -2.500  0.00  0.00    +0.000 C 
BRANCH  28  29
ATOM     29  C   UNL     1     -14.871  -0.056  -2.976  0.00  0.00    +0.000 C 
ATOM     30  C   UNL     1     -15.523  -1.212  -2.209  0.00  0.00    +0.000 C 
ATOM     31  C   UNL     1     -15.051  -0.240  -4.487  0.00  0.00    +0.000 C 
BRANCH  29  32
ATOM     32  O   UNL     1     -13.485  -0.191  -2.750  0.00  0.00    +0.000 OA
ATOM     33  H   UNL     1     -13.204   0.682  -3.063  0.00  0.00    +0.000 HD
ENDBRANCH  29  32
ENDBRANCH  28  29
ENDBRANCH  27  28
ENDBRANCH  24  26
ENDBRANCH   2  24
TORSDOF 9
ENDMDL
MODEL 8
REMARK VINA RESULT:      -6.0      4.590      6.530
REMARK  Name = Calcitriol.pdbqt.pdb
REMARK  9 active torsions:
REMARK  status: ('A' for Active; 'I' for Inactive)
REMARK    1  A    between atoms: C_2  and  C_24
REMARK    2  A    between atoms: C_7  and  C_11
REMARK    3  A    between atoms: C_12  and  C_13
REMARK    4  A    between atoms: C_16  and  O_20
REMARK    5  A    between atoms: C_18  and  O_22
REMARK    6  A    between atoms: C_24  and  C_26
REMARK    7  A    between atoms: C_27  and  C_28
REMARK    8  A    between atoms: C_28  and  C_29
REMARK    9  A    between atoms: C_29  and  O_32
REMARK                            x       y       z     vdW  Elec       q    Type
REMARK                         _______ _______ _______ _____ _____    ______ ____
ROOT
ATOM      1  C   UNL     1     -15.896   9.003  -1.861  0.00  0.00    +0.000 C 
ATOM      2  C   UNL     1     -16.162   9.139  -0.365  0.00  0.00    +0.000 C 
ATOM      3  C   UNL     1     -14.994  10.313  -2.190  0.00  0.00    +0.000 C 
ATOM      4  C   UNL     1     -15.417  10.237   0.158  0.00  0.00    +0.000 C 
ATOM      5  C   UNL     1     -14.678  10.944  -0.946  0.00  0.00    +0.000 C 
ATOM      6  C   UNL     1     -17.099   9.101  -2.704  0.00  0.00    +0.000 C 
ATOM      7  C   UNL     1     -15.233  11.108  -3.400  0.00  0.00    +0.000 C 
ATOM      8  C   UNL     1     -15.008   7.762  -2.159  0.00  0.00    +0.000 C 
ATOM      9  C   UNL     1     -17.625   9.890  -3.890  0.00  0.00    +0.000 C 
ATOM     10  C   UNL     1     -16.459  10.842  -4.066  0.00  0.00    +0.000 C 
ENDROOT
BRANCH   7  11
ATOM     11  C   UNL     1     -14.484  12.090  -3.792  0.00  0.00    +0.000 C 
ATOM     12  C   UNL     1     -13.604  13.252  -4.268  0.00  0.00    +0.000 C 
BRANCH  12  13
ATOM     13  C   UNL     1     -12.865  14.238  -4.678  0.00  0.00    +0.000 A 
ATOM     14  C   UNL     1     -11.440  14.153  -4.560  0.00  0.00    +0.000 A 
ATOM     15  C   UNL     1     -13.342  15.542  -5.238  0.00  0.00    +0.000 A 
ATOM     16  C   UNL     1     -10.381  15.055  -4.865  0.00  0.00    +0.000 A 
ATOM     17  C   UNL     1     -10.975  16.245  -5.375  0.00  0.00    +0.000 A 
ATOM     18  C   UNL     1     -12.338  16.592  -5.598  0.00  0.00    +0.000 A 
ATOM     19  C   UNL     1     -14.647  15.802  -5.436  0.00  0.00    +0.000 C 
BRANCH  16  20
ATOM     20  O   UNL     1      -9.170  14.604  -5.302  0.00  0.00    +0.000 OA
ATOM     21  H   UNL     1      -9.132  13.633  -5.296  0.00  0.00    +0.000 HD
ENDBRANCH  16  20
BRANCH  18  22
ATOM     22  O   UNL     1     -12.714  17.805  -6.123  0.00  0.00    +0.000 OA
ATOM     23  H   UNL     1     -12.761  18.479  -5.417  0.00  0.00    +0.000 HD
ENDBRANCH  18  22
ENDBRANCH  12  13
ENDBRANCH   7  11
BRANCH   2  24
ATOM     24  C   UNL     1     -16.906   8.211   0.427  0.00  0.00    +0.000 C 
ATOM     25  C   UNL     1     -17.207   8.433   1.887  0.00  0.00    +0.000 C 
BRANCH  24  26
ATOM     26  C   UNL     1     -17.249   6.926  -0.075  0.00  0.00    +0.000 C 
ATOM     27  C   UNL     1     -17.615   5.545  -0.632  0.00  0.00    +0.000 C 
BRANCH  27  28
ATOM     28  C   UNL     1     -17.979   4.168  -1.203  0.00  0.00    +0.000 C 
BRANCH  28  29
ATOM     29  C   UNL     1     -18.324   2.856  -1.750  0.00  0.00    +0.000 C 
ATOM     30  C   UNL     1     -17.548   2.522  -3.030  0.00  0.00    +0.000 C 
ATOM     31  C   UNL     1     -18.193   1.722  -0.728  0.00  0.00    +0.000 C 
BRANCH  29  32
ATOM     32  O   UNL     1     -19.683   2.860  -2.126  0.00  0.00    +0.000 OA
ATOM     33  H   UNL     1     -19.572   3.078  -3.063  0.00  0.00    +0.000 HD
ENDBRANCH  29  32
ENDBRANCH  28  29
ENDBRANCH  27  28
ENDBRANCH  24  26
ENDBRANCH   2  24
TORSDOF 9
ENDMDL
MODEL 9
REMARK VINA RESULT:      -5.9      4.144      6.636
REMARK  Name = Calcitriol.pdbqt.pdb
REMARK  9 active torsions:
REMARK  status: ('A' for Active; 'I' for Inactive)
REMARK    1  A    between atoms: C_2  and  C_24
REMARK    2  A    between atoms: C_7  and  C_11
REMARK    3  A    between atoms: C_12  and  C_13
REMARK    4  A    between atoms: C_16  and  O_20
REMARK    5  A    between atoms: C_18  and  O_22
REMARK    6  A    between atoms: C_24  and  C_26
REMARK    7  A    between atoms: C_27  and  C_28
REMARK    8  A    between atoms: C_28  and  C_29
REMARK    9  A    between atoms: C_29  and  O_32
REMARK                            x       y       z     vdW  Elec       q    Type
REMARK                         _______ _______ _______ _____ _____    ______ ____
ROOT
ATOM      1  C   UNL     1     -16.076   8.211  -1.998  0.00  0.00    +0.000 C 
ATOM      2  C   UNL     1     -15.425   7.024  -2.701  0.00  0.00    +0.000 C 
ATOM      3  C   UNL     1     -15.537   9.481  -2.855  0.00  0.00    +0.000 C 
ATOM      4  C   UNL     1     -14.749   7.472  -3.875  0.00  0.00    +0.000 C 
ATOM      5  C   UNL     1     -14.836   8.969  -3.992  0.00  0.00    +0.000 C 
ATOM      6  C   UNL     1     -15.626   8.419  -0.612  0.00  0.00    +0.000 C 
ATOM      7  C   UNL     1     -15.093  10.708  -2.184  0.00  0.00    +0.000 C 
ATOM      8  C   UNL     1     -17.621   8.180  -2.169  0.00  0.00    +0.000 C 
ATOM      9  C   UNL     1     -15.037   9.509   0.266  0.00  0.00    +0.000 C 
ATOM     10  C   UNL     1     -14.882  10.590  -0.784  0.00  0.00    +0.000 C 
ENDROOT
BRANCH   7  11
ATOM     11  C   UNL     1     -14.764  11.801  -2.798  0.00  0.00    +0.000 C 
ATOM     12  C   UNL     1     -14.388  13.096  -3.529  0.00  0.00    +0.000 C 
BRANCH  12  13
ATOM     13  C   UNL     1     -14.078  14.194  -4.148  0.00  0.00    +0.000 A 
ATOM     14  C   UNL     1     -12.840  14.850  -3.851  0.00  0.00    +0.000 A 
ATOM     15  C   UNL     1     -14.921  14.929  -5.144  0.00  0.00    +0.000 A 
ATOM     16  C   UNL     1     -12.244  16.060  -4.310  0.00  0.00    +0.000 A 
ATOM     17  C   UNL     1     -13.149  16.652  -5.236  0.00  0.00    +0.000 A 
ATOM     18  C   UNL     1     -14.423  16.222  -5.708  0.00  0.00    +0.000 A 
ATOM     19  C   UNL     1     -16.112  14.460  -5.558  0.00  0.00    +0.000 C 
BRANCH  16  20
ATOM     20  O   UNL     1     -10.891  16.177  -4.444  0.00  0.00    +0.000 OA
ATOM     21  H   UNL     1     -10.424  15.616  -3.803  0.00  0.00    +0.000 HD
ENDBRANCH  16  20
BRANCH  18  22
ATOM     22  O   UNL     1     -15.148  16.938  -6.631  0.00  0.00    +0.000 OA
ATOM     23  H   UNL     1     -15.897  16.404  -6.959  0.00  0.00    +0.000 HD
ENDBRANCH  18  22
ENDBRANCH  12  13
ENDBRANCH   7  11
BRANCH   2  24
ATOM     24  C   UNL     1     -15.602   5.653  -2.339  0.00  0.00    +0.000 C 
ATOM     25  C   UNL     1     -14.472   4.775  -1.868  0.00  0.00    +0.000 C 
BRANCH  24  26
ATOM     26  C   UNL     1     -16.832   4.983  -2.581  0.00  0.00    +0.000 C 
ATOM     27  C   UNL     1     -18.167   4.270  -2.832  0.00  0.00    +0.000 C 
BRANCH  27  28
ATOM     28  C   UNL     1     -19.508   3.566  -3.074  0.00  0.00    +0.000 C 
BRANCH  28  29
ATOM     29  C   UNL     1     -20.786   2.891  -3.302  0.00  0.00    +0.000 C 
ATOM     30  C   UNL     1     -21.983   3.687  -2.770  0.00  0.00    +0.000 C 
ATOM     31  C   UNL     1     -21.007   2.496  -4.766  0.00  0.00    +0.000 C 
BRANCH  29  32
ATOM     32  O   UNL     1     -20.796   1.676  -2.586  0.00  0.00    +0.000 OA
ATOM     33  H   UNL     1     -21.156   2.006  -1.749  0.00  0.00    +0.000 HD
ENDBRANCH  29  32
ENDBRANCH  28  29
ENDBRANCH  27  28
ENDBRANCH  24  26
ENDBRANCH   2  24
TORSDOF 9
ENDMDL
