MODEL 1
REMARK VINA RESULT:      -7.0      0.000      0.000
REMARK  Name = 
REMARK  17 active torsions:
REMARK  status: ('A' for Active; 'I' for Inactive)
REMARK    1  A    between atoms: O_1  and  C_14
REMARK    2  A    between atoms: O_2  and  C_32
REMARK    3  A    between atoms: O_2  and  C_36
REMARK    4  A    between atoms: O_6  and  C_39
REMARK    5  A    between atoms: O_7  and  C_41
REMARK    6  A    between atoms: O_7  and  C_43
REMARK    7  A    between atoms: O_9  and  C_47
REMARK    8  A    between atoms: O_9  and  C_49
REMARK    9  A    between atoms: O_10  and  C_45
REMARK   10  A    between atoms: O_12  and  C_51
REMARK   11  A    between atoms: O_13  and  C_53
REMARK   12  A    between atoms: C_17  and  C_29
REMARK   13  A    between atoms: C_18  and  C_30
REMARK   14  A    between atoms: C_22  and  C_33
REMARK   15  A    between atoms: C_40  and  C_42
REMARK   16  A    between atoms: C_46  and  C_48
REMARK   17  A    between atoms: C_52  and  C_54
REMARK                            x       y       z     vdW  Elec       q    Type
REMARK                         _______ _______ _______ _____ _____    ______ ____
ROOT
ATOM      1  O   UNL     1      -4.512  21.301   1.545  0.00  0.00    +0.000 OA
ATOM      2  C   UNL     1      -5.471  21.027   2.563  0.00  0.00    +0.000 C 
ATOM      3  C   UNL     1      -6.910  21.166   2.059  0.00  0.00    +0.000 C 
ATOM      4  C   UNL     1      -6.957  21.323   0.546  0.00  0.00    +0.000 C 
ATOM      5  C   UNL     1      -4.593  20.379   0.451  0.00  0.00    +0.000 C 
ATOM      6  C   UNL     1      -5.993  20.386  -0.209  0.00  0.00    +0.000 C 
ATOM      7  C   UNL     1      -3.510  20.784  -0.547  0.00  0.00    +0.000 C 
ENDROOT
BRANCH   4   8
ATOM      8  O   UNL     1      -8.292  21.274   0.056  0.00  0.00    +0.000 OA
ATOM      9  H   UNL     1      -8.845  21.747   0.713  0.00  0.00    +0.000 HD
ENDBRANCH   4   8
BRANCH   2  10
ATOM     10  O   UNL     1      -5.256  21.819   3.731  0.00  0.00    +0.000 OA
BRANCH  10  29
ATOM     11  C   UNL     1      -4.930  18.142  10.581  0.00  0.00    +0.000 C 
ATOM     12  C   UNL     1      -4.999  18.931   9.245  0.00  0.00    +0.000 C 
ATOM     13  C   UNL     1      -3.696  19.704   8.916  0.00  0.00    +0.000 C 
ATOM     14  C   UNL     1      -3.657  17.261  10.738  0.00  0.00    +0.000 C 
ATOM     15  C   UNL     1      -3.769  20.503   7.550  0.00  0.00    +0.000 C 
ATOM     16  C   UNL     1      -5.075  21.363   7.502  0.00  0.00    +0.000 C 
ATOM     17  C   UNL     1      -2.485  18.755   9.013  0.00  0.00    +0.000 C 
ATOM     18  C   UNL     1      -2.392  18.079  10.382  0.00  0.00    +0.000 C 
ATOM     19  C   UNL     1      -3.719  16.905  12.258  0.00  0.00    +0.000 C 
ATOM     20  C   UNL     1      -6.208  19.877   9.215  0.00  0.00    +0.000 C 
ATOM     21  C   UNL     1      -4.929  19.016  11.847  0.00  0.00    +0.000 C 
ATOM     22  C   UNL     1      -6.336  20.559   7.863  0.00  0.00    +0.000 C 
ATOM     23  C   UNL     1      -4.198  18.210  12.927  0.00  0.00    +0.000 C 
ATOM     24  C   UNL     1      -3.718  19.558   6.317  0.00  0.00    +0.000 C 
ATOM     25  C   UNL     1      -5.284  22.054   6.138  0.00  0.00    +0.000 C 
ATOM     26  C   UNL     1      -3.712  15.990   9.867  0.00  0.00    +0.000 C 
ATOM     27  C   UNL     1      -2.544  21.460   7.493  0.00  0.00    +0.000 C 
ATOM     28  C   UNL     1      -3.931  20.275   4.984  0.00  0.00    +0.000 C 
ATOM     29  C   UNL     1      -5.229  21.080   4.957  0.00  0.00    +0.000 C 
BRANCH  19  32
ATOM     30  O   UNL     1      -0.540  16.155  14.085  0.00  0.00    +0.000 OA
ATOM     31  O   UNL     1      -0.039  13.988  13.515  0.00  0.00    +0.000 OA
ATOM     32  C   UNL     1      -2.493  16.278  12.865  0.00  0.00    +0.000 C 
ATOM     33  C   UNL     1      -1.603  17.052  13.766  0.00  0.00    +0.000 C 
ATOM     34  C   UNL     1      -1.983  15.061  12.670  0.00  0.00    +0.000 C 
ATOM     35  C   UNL     1      -0.752  14.973  13.452  0.00  0.00    +0.000 C 
ENDBRANCH  19  32
BRANCH  11  36
ATOM     36  O   UNL     1      -6.098  17.310  10.682  0.00  0.00    +0.000 OA
ATOM     37  H   UNL     1      -6.885  17.881  10.701  0.00  0.00    +0.000 HD
ENDBRANCH  11  36
ENDBRANCH  10  29
ENDBRANCH   2  10
BRANCH   6  38
ATOM     38  O   UNL     1      -6.415  19.076  -0.599  0.00  0.00    +0.000 OA
BRANCH  38  40
ATOM     39  O   UNL     1      -4.905  17.246  -0.627  0.00  0.00    +0.000 OA
ATOM     40  C   UNL     1      -6.010  17.864   0.019  0.00  0.00    +0.000 C 
ATOM     41  C   UNL     1      -7.124  16.861   0.305  0.00  0.00    +0.000 C 
ATOM     42  C   UNL     1      -6.640  15.416   0.235  0.00  0.00    +0.000 C 
ATOM     43  C   UNL     1      -4.243  16.317   0.253  0.00  0.00    +0.000 C 
ATOM     44  C   UNL     1      -5.196  15.189   0.726  0.00  0.00    +0.000 C 
ATOM     45  C   UNL     1      -3.058  15.747  -0.522  0.00  0.00    +0.000 C 
BRANCH  42  46
ATOM     46  O   UNL     1      -7.566  14.538   0.873  0.00  0.00    +0.000 OA
ATOM     47  H   UNL     1      -8.326  14.411   0.277  0.00  0.00    +0.000 HD
ENDBRANCH  42  46
BRANCH  44  48
ATOM     48  O   UNL     1      -5.001  14.875   2.110  0.00  0.00    +0.000 OA
BRANCH  48  50
ATOM     49  O   UNL     1      -2.749  14.566   2.701  0.00  0.00    +0.000 OA
ATOM     50  C   UNL     1      -3.879  15.427   2.788  0.00  0.00    +0.000 C 
ATOM     51  C   UNL     1      -4.283  15.574   4.259  0.00  0.00    +0.000 C 
ATOM     52  C   UNL     1      -3.086  15.472   5.202  0.00  0.00    +0.000 C 
ATOM     53  C   UNL     1      -1.550  15.161   3.230  0.00  0.00    +0.000 C 
ATOM     54  C   UNL     1      -1.805  15.960   4.522  0.00  0.00    +0.000 C 
ATOM     55  C   UNL     1      -0.579  14.011   3.473  0.00  0.00    +0.000 C 
BRANCH  52  56
ATOM     56  O   UNL     1      -3.340  16.278   6.359  0.00  0.00    +0.000 OA
ATOM     57  H   UNL     1      -2.949  17.155   6.195  0.00  0.00    +0.000 HD
ENDBRANCH  52  56
BRANCH  54  58
ATOM     58  O   UNL     1      -1.974  17.350   4.191  0.00  0.00    +0.000 OA
ATOM     59  H   UNL     1      -1.455  17.846   4.857  0.00  0.00    +0.000 HD
ENDBRANCH  54  58
ENDBRANCH  48  50
ENDBRANCH  44  48
ENDBRANCH  38  40
ENDBRANCH   6  38
TORSDOF 12
ENDMDL
MODEL 2
REMARK VINA RESULT:      -6.9      6.739     12.531
REMARK  Name = 
REMARK  17 active torsions:
REMARK  status: ('A' for Active; 'I' for Inactive)
REMARK    1  A    between atoms: O_1  and  C_14
REMARK    2  A    between atoms: O_2  and  C_32
REMARK    3  A    between atoms: O_2  and  C_36
REMARK    4  A    between atoms: O_6  and  C_39
REMARK    5  A    between atoms: O_7  and  C_41
REMARK    6  A    between atoms: O_7  and  C_43
REMARK    7  A    between atoms: O_9  and  C_47
REMARK    8  A    between atoms: O_9  and  C_49
REMARK    9  A    between atoms: O_10  and  C_45
REMARK   10  A    between atoms: O_12  and  C_51
REMARK   11  A    between atoms: O_13  and  C_53
REMARK   12  A    between atoms: C_17  and  C_29
REMARK   13  A    between atoms: C_18  and  C_30
REMARK   14  A    between atoms: C_22  and  C_33
REMARK   15  A    between atoms: C_40  and  C_42
REMARK   16  A    between atoms: C_46  and  C_48
REMARK   17  A    between atoms: C_52  and  C_54
REMARK                            x       y       z     vdW  Elec       q    Type
REMARK                         _______ _______ _______ _____ _____    ______ ____
ROOT
ATOM      1  O   UNL     1      -0.361   7.414  -2.302  0.00  0.00    +0.000 OA
ATOM      2  C   UNL     1      -1.517   8.229  -2.130  0.00  0.00    +0.000 C 
ATOM      3  C   UNL     1      -2.804   7.507  -2.539  0.00  0.00    +0.000 C 
ATOM      4  C   UNL     1      -2.556   6.028  -2.794  0.00  0.00    +0.000 C 
ATOM      5  C   UNL     1      -0.387   6.244  -1.475  0.00  0.00    +0.000 C 
ATOM      6  C   UNL     1      -1.628   5.363  -1.757  0.00  0.00    +0.000 C 
ATOM      7  C   UNL     1       0.907   5.480  -1.754  0.00  0.00    +0.000 C 
ENDROOT
BRANCH   4   8
ATOM      8  O   UNL     1      -3.773   5.320  -2.998  0.00  0.00    +0.000 OA
ATOM      9  H   UNL     1      -3.526   4.451  -3.381  0.00  0.00    +0.000 HD
ENDBRANCH   4   8
BRANCH   2  10
ATOM     10  O   UNL     1      -1.395   9.482  -2.803  0.00  0.00    +0.000 OA
BRANCH  10  29
ATOM     11  C   UNL     1      -6.013  15.301  -0.485  0.00  0.00    +0.000 C 
ATOM     12  C   UNL     1      -5.099  14.159  -1.008  0.00  0.00    +0.000 C 
ATOM     13  C   UNL     1      -3.714  14.651  -1.500  0.00  0.00    +0.000 C 
ATOM     14  C   UNL     1      -5.323  16.256   0.530  0.00  0.00    +0.000 C 
ATOM     15  C   UNL     1      -2.784  13.482  -2.027  0.00  0.00    +0.000 C 
ATOM     16  C   UNL     1      -3.568  12.593  -3.049  0.00  0.00    +0.000 C 
ATOM     17  C   UNL     1      -3.054  15.526  -0.415  0.00  0.00    +0.000 C 
ATOM     18  C   UNL     1      -3.941  16.702  -0.006  0.00  0.00    +0.000 C 
ATOM     19  C   UNL     1      -6.344  17.438   0.578  0.00  0.00    +0.000 C 
ATOM     20  C   UNL     1      -5.799  13.339  -2.102  0.00  0.00    +0.000 C 
ATOM     21  C   UNL     1      -6.548  16.248  -1.574  0.00  0.00    +0.000 C 
ATOM     22  C   UNL     1      -4.947  12.153  -2.526  0.00  0.00    +0.000 C 
ATOM     23  C   UNL     1      -6.802  17.595  -0.886  0.00  0.00    +0.000 C 
ATOM     24  C   UNL     1      -2.245  12.597  -0.869  0.00  0.00    +0.000 C 
ATOM     25  C   UNL     1      -2.771  11.349  -3.491  0.00  0.00    +0.000 C 
ATOM     26  C   UNL     1      -5.155  15.611   1.921  0.00  0.00    +0.000 C 
ATOM     27  C   UNL     1      -1.576  14.130  -2.760  0.00  0.00    +0.000 C 
ATOM     28  C   UNL     1      -1.462  11.373  -1.344  0.00  0.00    +0.000 C 
ATOM     29  C   UNL     1      -2.265  10.509  -2.314  0.00  0.00    +0.000 C 
BRANCH  19  32
ATOM     30  O   UNL     1      -5.614  20.971   1.573  0.00  0.00    +0.000 OA
ATOM     31  O   UNL     1      -4.282  20.788   3.434  0.00  0.00    +0.000 OA
ATOM     32  C   UNL     1      -5.895  18.705   1.256  0.00  0.00    +0.000 C 
ATOM     33  C   UNL     1      -6.258  20.036   0.709  0.00  0.00    +0.000 C 
ATOM     34  C   UNL     1      -5.105  18.858   2.319  0.00  0.00    +0.000 C 
ATOM     35  C   UNL     1      -4.934  20.293   2.533  0.00  0.00    +0.000 C 
ENDBRANCH  19  32
BRANCH  11  36
ATOM     36  O   UNL     1      -7.174  14.715   0.127  0.00  0.00    +0.000 OA
ATOM     37  H   UNL     1      -7.946  15.270  -0.079  0.00  0.00    +0.000 HD
ENDBRANCH  11  36
ENDBRANCH  10  29
ENDBRANCH   2  10
BRANCH   6  38
ATOM     38  O   UNL     1      -2.170   4.792  -0.562  0.00  0.00    +0.000 OA
BRANCH  38  40
ATOM     39  O   UNL     1      -1.592   3.984   1.593  0.00  0.00    +0.000 OA
ATOM     40  C   UNL     1      -1.772   5.122   0.761  0.00  0.00    +0.000 C 
ATOM     41  C   UNL     1      -2.601   6.199   1.454  0.00  0.00    +0.000 C 
ATOM     42  C   UNL     1      -2.670   5.999   2.965  0.00  0.00    +0.000 C 
ATOM     43  C   UNL     1      -0.769   4.300   2.733  0.00  0.00    +0.000 C 
ATOM     44  C   UNL     1      -1.391   5.420   3.603  0.00  0.00    +0.000 C 
ATOM     45  C   UNL     1      -0.609   3.007   3.530  0.00  0.00    +0.000 C 
BRANCH  42  46
ATOM     46  O   UNL     1      -3.101   7.193   3.616  0.00  0.00    +0.000 OA
ATOM     47  H   UNL     1      -3.145   7.020   4.573  0.00  0.00    +0.000 HD
ENDBRANCH  42  46
BRANCH  44  48
ATOM     48  O   UNL     1      -0.399   6.343   4.070  0.00  0.00    +0.000 OA
BRANCH  48  50
ATOM     49  O   UNL     1       1.880   6.846   4.333  0.00  0.00    +0.000 OA
ATOM     50  C   UNL     1       0.882   6.346   3.451  0.00  0.00    +0.000 C 
ATOM     51  C   UNL     1       0.779   7.272   2.234  0.00  0.00    +0.000 C 
ATOM     52  C   UNL     1       2.116   7.926   1.890  0.00  0.00    +0.000 C 
ATOM     53  C   UNL     1       3.212   6.711   3.805  0.00  0.00    +0.000 C 
ATOM     54  C   UNL     1       3.289   7.033   2.302  0.00  0.00    +0.000 C 
ATOM     55  C   UNL     1       4.088   7.656   4.620  0.00  0.00    +0.000 C 
BRANCH  52  56
ATOM     56  O   UNL     1       2.170   8.150   0.476  0.00  0.00    +0.000 OA
ATOM     57  H   UNL     1       1.259   8.311   0.171  0.00  0.00    +0.000 HD
ENDBRANCH  52  56
BRANCH  54  58
ATOM     58  O   UNL     1       3.205   5.808   1.552  0.00  0.00    +0.000 OA
ATOM     59  H   UNL     1       3.104   6.076   0.615  0.00  0.00    +0.000 HD
ENDBRANCH  54  58
ENDBRANCH  48  50
ENDBRANCH  44  48
ENDBRANCH  38  40
ENDBRANCH   6  38
TORSDOF 12
ENDMDL
MODEL 3
REMARK VINA RESULT:      -6.8      7.359     12.841
REMARK  Name = 
REMARK  17 active torsions:
REMARK  status: ('A' for Active; 'I' for Inactive)
REMARK    1  A    between atoms: O_1  and  C_14
REMARK    2  A    between atoms: O_2  and  C_32
REMARK    3  A    between atoms: O_2  and  C_36
REMARK    4  A    between atoms: O_6  and  C_39
REMARK    5  A    between atoms: O_7  and  C_41
REMARK    6  A    between atoms: O_7  and  C_43
REMARK    7  A    between atoms: O_9  and  C_47
REMARK    8  A    between atoms: O_9  and  C_49
REMARK    9  A    between atoms: O_10  and  C_45
REMARK   10  A    between atoms: O_12  and  C_51
REMARK   11  A    between atoms: O_13  and  C_53
REMARK   12  A    between atoms: C_17  and  C_29
REMARK   13  A    between atoms: C_18  and  C_30
REMARK   14  A    between atoms: C_22  and  C_33
REMARK   15  A    between atoms: C_40  and  C_42
REMARK   16  A    between atoms: C_46  and  C_48
REMARK   17  A    between atoms: C_52  and  C_54
REMARK                            x       y       z     vdW  Elec       q    Type
REMARK                         _______ _______ _______ _____ _____    ______ ____
ROOT
ATOM      1  O   UNL     1       1.887  13.558  -1.823  0.00  0.00    +0.000 OA
ATOM      2  C   UNL     1       1.715  12.612  -0.772  0.00  0.00    +0.000 C 
ATOM      3  C   UNL     1       2.414  13.044   0.520  0.00  0.00    +0.000 C 
ATOM      4  C   UNL     1       2.909  14.480   0.432  0.00  0.00    +0.000 C 
ATOM      5  C   UNL     1       1.305  14.831  -1.516  0.00  0.00    +0.000 C 
ATOM      6  C   UNL     1       1.905  15.446  -0.229  0.00  0.00    +0.000 C 
ATOM      7  C   UNL     1       1.554  15.731  -2.726  0.00  0.00    +0.000 C 
ENDROOT
BRANCH   4   8
ATOM      8  O   UNL     1       3.398  14.944   1.685  0.00  0.00    +0.000 OA
ATOM      9  H   UNL     1       3.710  14.151   2.170  0.00  0.00    +0.000 HD
ENDBRANCH   4   8
BRANCH   2  10
ATOM     10  O   UNL     1       2.118  11.298  -1.160  0.00  0.00    +0.000 OA
BRANCH  10  29
ATOM     11  C   UNL     1      -0.749   5.287   2.864  0.00  0.00    +0.000 C 
ATOM     12  C   UNL     1      -0.123   6.454   2.053  0.00  0.00    +0.000 C 
ATOM     13  C   UNL     1      -0.016   6.164   0.534  0.00  0.00    +0.000 C 
ATOM     14  C   UNL     1      -2.075   4.734   2.268  0.00  0.00    +0.000 C 
ATOM     15  C   UNL     1       0.618   7.358  -0.290  0.00  0.00    +0.000 C 
ATOM     16  C   UNL     1       1.949   7.828   0.385  0.00  0.00    +0.000 C 
ATOM     17  C   UNL     1      -1.383   5.696  -0.007  0.00  0.00    +0.000 C 
ATOM     18  C   UNL     1      -1.915   4.478   0.749  0.00  0.00    +0.000 C 
ATOM     19  C   UNL     1      -2.240   3.405   3.073  0.00  0.00    +0.000 C 
ATOM     20  C   UNL     1       1.246   6.859   2.620  0.00  0.00    +0.000 C 
ATOM     21  C   UNL     1       0.143   4.040   2.993  0.00  0.00    +0.000 C 
ATOM     22  C   UNL     1       1.799   8.076   1.897  0.00  0.00    +0.000 C 
ATOM     23  C   UNL     1      -0.805   2.848   3.172  0.00  0.00    +0.000 C 
ATOM     24  C   UNL     1      -0.357   8.562  -0.419  0.00  0.00    +0.000 C 
ATOM     25  C   UNL     1       2.544   9.085  -0.281  0.00  0.00    +0.000 C 
ATOM     26  C   UNL     1      -3.267   5.681   2.509  0.00  0.00    +0.000 C 
ATOM     27  C   UNL     1       0.945   6.832  -1.716  0.00  0.00    +0.000 C 
ATOM     28  C   UNL     1       0.266   9.791  -1.080  0.00  0.00    +0.000 C 
ATOM     29  C   UNL     1       1.546  10.243  -0.379  0.00  0.00    +0.000 C 
BRANCH  19  32
ATOM     30  O   UNL     1      -4.129   0.472   1.718  0.00  0.00    +0.000 OA
ATOM     31  O   UNL     1      -6.303   1.197   1.574  0.00  0.00    +0.000 OA
ATOM     32  C   UNL     1      -3.280   2.433   2.586  0.00  0.00    +0.000 C 
ATOM     33  C   UNL     1      -2.906   1.061   2.160  0.00  0.00    +0.000 C 
ATOM     34  C   UNL     1      -4.586   2.622   2.390  0.00  0.00    +0.000 C 
ATOM     35  C   UNL     1      -5.132   1.378   1.853  0.00  0.00    +0.000 C 
ENDBRANCH  19  32
BRANCH  11  36
ATOM     36  O   UNL     1      -0.985   5.738   4.209  0.00  0.00    +0.000 OA
ATOM     37  H   UNL     1      -1.368   6.631   4.173  0.00  0.00    +0.000 HD
ENDBRANCH  11  36
ENDBRANCH  10  29
ENDBRANCH   2  10
BRANCH   6  38
ATOM     38  O   UNL     1       0.919  16.117   0.561  0.00  0.00    +0.000 OA
BRANCH  38  40
ATOM     39  O   UNL     1      -1.381  16.701   0.594  0.00  0.00    +0.000 OA
ATOM     40  C   UNL     1      -0.415  15.672   0.762  0.00  0.00    +0.000 C 
ATOM     41  C   UNL     1      -0.662  14.874   2.039  0.00  0.00    +0.000 C 
ATOM     42  C   UNL     1      -2.074  15.069   2.584  0.00  0.00    +0.000 C 
ATOM     43  C   UNL     1      -2.688  16.149   0.345  0.00  0.00    +0.000 C 
ATOM     44  C   UNL     1      -3.167  15.247   1.511  0.00  0.00    +0.000 C 
ATOM     45  C   UNL     1      -3.632  17.332   0.141  0.00  0.00    +0.000 C 
BRANCH  42  46
ATOM     46  O   UNL     1      -2.403  14.044   3.520  0.00  0.00    +0.000 OA
ATOM     47  H   UNL     1      -2.104  14.327   4.401  0.00  0.00    +0.000 HD
ENDBRANCH  42  46
BRANCH  44  48
ATOM     48  O   UNL     1      -3.834  14.072   1.034  0.00  0.00    +0.000 OA
BRANCH  48  50
ATOM     49  O   UNL     1      -5.272  14.136  -0.821  0.00  0.00    +0.000 OA
ATOM     50  C   UNL     1      -3.950  13.870  -0.369  0.00  0.00    +0.000 C 
ATOM     51  C   UNL     1      -3.618  12.397  -0.630  0.00  0.00    +0.000 C 
ATOM     52  C   UNL     1      -4.332  11.852  -1.865  0.00  0.00    +0.000 C 
ATOM     53  C   UNL     1      -5.392  14.104  -2.255  0.00  0.00    +0.000 C 
ATOM     54  C   UNL     1      -4.581  12.960  -2.891  0.00  0.00    +0.000 C 
ATOM     55  C   UNL     1      -6.880  13.961  -2.553  0.00  0.00    +0.000 C 
BRANCH  52  56
ATOM     56  O   UNL     1      -3.515  10.836  -2.459  0.00  0.00    +0.000 OA
ATOM     57  H   UNL     1      -4.111  10.186  -2.872  0.00  0.00    +0.000 HD
ENDBRANCH  52  56
BRANCH  54  58
ATOM     58  O   UNL     1      -3.306  13.468  -3.322  0.00  0.00    +0.000 OA
ATOM     59  H   UNL     1      -2.702  12.696  -3.334  0.00  0.00    +0.000 HD
ENDBRANCH  54  58
ENDBRANCH  48  50
ENDBRANCH  44  48
ENDBRANCH  38  40
ENDBRANCH   6  38
TORSDOF 12
ENDMDL
MODEL 4
REMARK VINA RESULT:      -6.7     11.958     17.969
REMARK  Name = 
REMARK  17 active torsions:
REMARK  status: ('A' for Active; 'I' for Inactive)
REMARK    1  A    between atoms: O_1  and  C_14
REMARK    2  A    between atoms: O_2  and  C_32
REMARK    3  A    between atoms: O_2  and  C_36
REMARK    4  A    between atoms: O_6  and  C_39
REMARK    5  A    between atoms: O_7  and  C_41
REMARK    6  A    between atoms: O_7  and  C_43
REMARK    7  A    between atoms: O_9  and  C_47
REMARK    8  A    between atoms: O_9  and  C_49
REMARK    9  A    between atoms: O_10  and  C_45
REMARK   10  A    between atoms: O_12  and  C_51
REMARK   11  A    between atoms: O_13  and  C_53
REMARK   12  A    between atoms: C_17  and  C_29
REMARK   13  A    between atoms: C_18  and  C_30
REMARK   14  A    between atoms: C_22  and  C_33
REMARK   15  A    between atoms: C_40  and  C_42
REMARK   16  A    between atoms: C_46  and  C_48
REMARK   17  A    between atoms: C_52  and  C_54
REMARK                            x       y       z     vdW  Elec       q    Type
REMARK                         _______ _______ _______ _____ _____    ______ ____
ROOT
ATOM      1  O   UNL     1      -1.425   4.813  13.944  0.00  0.00    +0.000 OA
ATOM      2  C   UNL     1      -2.031   4.536  15.204  0.00  0.00    +0.000 C 
ATOM      3  C   UNL     1      -1.000   4.397  16.327  0.00  0.00    +0.000 C 
ATOM      4  C   UNL     1       0.385   4.827  15.868  0.00  0.00    +0.000 C 
ATOM      5  C   UNL     1      -0.723   6.062  13.935  0.00  0.00    +0.000 C 
ATOM      6  C   UNL     1       0.388   6.109  15.011  0.00  0.00    +0.000 C 
ATOM      7  C   UNL     1      -0.141   6.229  12.532  0.00  0.00    +0.000 C 
ENDROOT
BRANCH   4   8
ATOM      8  O   UNL     1       1.306   4.870  16.952  0.00  0.00    +0.000 OA
ATOM      9  H   UNL     1       1.103   5.687  17.454  0.00  0.00    +0.000 HD
ENDBRANCH   4   8
BRANCH   2  10
ATOM     10  O   UNL     1      -2.889   3.396  15.148  0.00  0.00    +0.000 OA
BRANCH  10  29
ATOM     11  C   UNL     1     -10.047   5.079  17.690  0.00  0.00    +0.000 C 
ATOM     12  C   UNL     1      -8.615   4.802  17.158  0.00  0.00    +0.000 C 
ATOM     13  C   UNL     1      -7.507   5.543  17.948  0.00  0.00    +0.000 C 
ATOM     14  C   UNL     1     -10.200   4.914  19.229  0.00  0.00    +0.000 C 
ATOM     15  C   UNL     1      -6.048   5.253  17.406  0.00  0.00    +0.000 C 
ATOM     16  C   UNL     1      -6.001   5.461  15.856  0.00  0.00    +0.000 C 
ATOM     17  C   UNL     1      -7.671   5.272  19.458  0.00  0.00    +0.000 C 
ATOM     18  C   UNL     1      -9.061   5.660  19.965  0.00  0.00    +0.000 C 
ATOM     19  C   UNL     1     -11.592   5.582  19.470  0.00  0.00    +0.000 C 
ATOM     20  C   UNL     1      -8.505   5.113  15.657  0.00  0.00    +0.000 C 
ATOM     21  C   UNL     1     -10.571   6.501  17.421  0.00  0.00    +0.000 C 
ATOM     22  C   UNL     1      -7.136   4.729  15.118  0.00  0.00    +0.000 C 
ATOM     23  C   UNL     1     -11.588   6.803  18.528  0.00  0.00    +0.000 C 
ATOM     24  C   UNL     1      -5.569   3.816  17.756  0.00  0.00    +0.000 C 
ATOM     25  C   UNL     1      -4.647   5.053  15.240  0.00  0.00    +0.000 C 
ATOM     26  C   UNL     1     -10.212   3.434  19.661  0.00  0.00    +0.000 C 
ATOM     27  C   UNL     1      -5.081   6.273  18.071  0.00  0.00    +0.000 C 
ATOM     28  C   UNL     1      -4.227   3.445  17.127  0.00  0.00    +0.000 C 
ATOM     29  C   UNL     1      -4.224   3.629  15.610  0.00  0.00    +0.000 C 
BRANCH  19  32
ATOM     30  O   UNL     1     -12.002   6.968  22.922  0.00  0.00    +0.000 OA
ATOM     31  O   UNL     1     -13.319   5.435  24.012  0.00  0.00    +0.000 OA
ATOM     32  C   UNL     1     -11.978   5.866  20.897  0.00  0.00    +0.000 C 
ATOM     33  C   UNL     1     -11.480   7.075  21.599  0.00  0.00    +0.000 C 
ATOM     34  C   UNL     1     -12.700   5.125  21.738  0.00  0.00    +0.000 C 
ATOM     35  C   UNL     1     -12.730   5.825  23.021  0.00  0.00    +0.000 C 
ENDBRANCH  19  32
BRANCH  11  36
ATOM     36  O   UNL     1     -10.964   4.194  17.023  0.00  0.00    +0.000 OA
ATOM     37  H   UNL     1     -11.870   4.508  17.184  0.00  0.00    +0.000 HD
ENDBRANCH  11  36
ENDBRANCH  10  29
ENDBRANCH   2  10
BRANCH   6  38
ATOM     38  O   UNL     1       0.487   7.394  15.632  0.00  0.00    +0.000 OA
BRANCH  38  40
ATOM     39  O   UNL     1      -0.394   9.581  15.900  0.00  0.00    +0.000 OA
ATOM     40  C   UNL     1      -0.610   8.186  16.063  0.00  0.00    +0.000 C 
ATOM     41  C   UNL     1      -1.158   7.861  17.449  0.00  0.00    +0.000 C 
ATOM     42  C   UNL     1      -1.734   9.089  18.150  0.00  0.00    +0.000 C 
ATOM     43  C   UNL     1      -1.641  10.302  15.897  0.00  0.00    +0.000 C 
ATOM     44  C   UNL     1      -2.426  10.104  17.219  0.00  0.00    +0.000 C 
ATOM     45  C   UNL     1      -1.297  11.773  15.677  0.00  0.00    +0.000 C 
BRANCH  42  46
ATOM     46  O   UNL     1      -2.570   8.705  19.241  0.00  0.00    +0.000 OA
ATOM     47  H   UNL     1      -2.150   7.956  19.699  0.00  0.00    +0.000 HD
ENDBRANCH  42  46
BRANCH  44  48
ATOM     48  O   UNL     1      -3.831   9.947  16.984  0.00  0.00    +0.000 OA
BRANCH  48  50
ATOM     49  O   UNL     1      -4.806  11.787  15.898  0.00  0.00    +0.000 OA
ATOM     50  C   UNL     1      -4.681  11.079  17.126  0.00  0.00    +0.000 C 
ATOM     51  C   UNL     1      -4.026  11.993  18.167  0.00  0.00    +0.000 C 
ATOM     52  C   UNL     1      -4.372  13.463  17.945  0.00  0.00    +0.000 C 
ATOM     53  C   UNL     1      -5.786  12.840  15.956  0.00  0.00    +0.000 C 
ATOM     54  C   UNL     1      -5.744  13.615  17.286  0.00  0.00    +0.000 C 
ATOM     55  C   UNL     1      -5.494  13.756  14.773  0.00  0.00    +0.000 C 
BRANCH  52  56
ATOM     56  O   UNL     1      -4.383  14.131  19.213  0.00  0.00    +0.000 OA
ATOM     57  H   UNL     1      -4.543  15.077  19.044  0.00  0.00    +0.000 HD
ENDBRANCH  52  56
BRANCH  54  58
ATOM     58  O   UNL     1      -6.733  13.072  18.179  0.00  0.00    +0.000 OA
ATOM     59  H   UNL     1      -7.596  13.405  17.855  0.00  0.00    +0.000 HD
ENDBRANCH  54  58
ENDBRANCH  48  50
ENDBRANCH  44  48
ENDBRANCH  38  40
ENDBRANCH   6  38
TORSDOF 12
ENDMDL
MODEL 5
REMARK VINA RESULT:      -6.7      6.654     11.610
REMARK  Name = 
REMARK  17 active torsions:
REMARK  status: ('A' for Active; 'I' for Inactive)
REMARK    1  A    between atoms: O_1  and  C_14
REMARK    2  A    between atoms: O_2  and  C_32
REMARK    3  A    between atoms: O_2  and  C_36
REMARK    4  A    between atoms: O_6  and  C_39
REMARK    5  A    between atoms: O_7  and  C_41
REMARK    6  A    between atoms: O_7  and  C_43
REMARK    7  A    between atoms: O_9  and  C_47
REMARK    8  A    between atoms: O_9  and  C_49
REMARK    9  A    between atoms: O_10  and  C_45
REMARK   10  A    between atoms: O_12  and  C_51
REMARK   11  A    between atoms: O_13  and  C_53
REMARK   12  A    between atoms: C_17  and  C_29
REMARK   13  A    between atoms: C_18  and  C_30
REMARK   14  A    between atoms: C_22  and  C_33
REMARK   15  A    between atoms: C_40  and  C_42
REMARK   16  A    between atoms: C_46  and  C_48
REMARK   17  A    between atoms: C_52  and  C_54
REMARK                            x       y       z     vdW  Elec       q    Type
REMARK                         _______ _______ _______ _____ _____    ______ ____
ROOT
ATOM      1  O   UNL     1       0.130   7.914  -1.972  0.00  0.00    +0.000 OA
ATOM      2  C   UNL     1      -0.840   8.861  -1.532  0.00  0.00    +0.000 C 
ATOM      3  C   UNL     1      -2.224   8.597  -2.130  0.00  0.00    +0.000 C 
ATOM      4  C   UNL     1      -2.274   7.256  -2.847  0.00  0.00    +0.000 C 
ATOM      5  C   UNL     1      -0.183   6.577  -1.560  0.00  0.00    +0.000 C 
ATOM      6  C   UNL     1      -1.562   6.117  -2.089  0.00  0.00    +0.000 C 
ATOM      7  C   UNL     1       0.938   5.681  -2.087  0.00  0.00    +0.000 C 
ENDROOT
BRANCH   4   8
ATOM      8  O   UNL     1      -3.599   6.925  -3.248  0.00  0.00    +0.000 OA
ATOM      9  H   UNL     1      -3.702   7.263  -4.163  0.00  0.00    +0.000 HD
ENDBRANCH   4   8
BRANCH   2  10
ATOM     10  O   UNL     1      -0.424  10.206  -1.772  0.00  0.00    +0.000 OA
BRANCH  10  29
ATOM     11  C   UNL     1      -4.590  15.845   1.602  0.00  0.00    +0.000 C 
ATOM     12  C   UNL     1      -3.782  14.737   0.873  0.00  0.00    +0.000 C 
ATOM     13  C   UNL     1      -2.592  15.284   0.043  0.00  0.00    +0.000 C 
ATOM     14  C   UNL     1      -3.715  16.850   2.405  0.00  0.00    +0.000 C 
ATOM     15  C   UNL     1      -1.769  14.150  -0.695  0.00  0.00    +0.000 C 
ATOM     16  C   UNL     1      -2.740  13.207  -1.480  0.00  0.00    +0.000 C 
ATOM     17  C   UNL     1      -1.724  16.209   0.920  0.00  0.00    +0.000 C 
ATOM     18  C   UNL     1      -2.536  17.349   1.534  0.00  0.00    +0.000 C 
ATOM     19  C   UNL     1      -4.748  17.984   2.702  0.00  0.00    +0.000 C 
ATOM     20  C   UNL     1      -4.694  13.866  -0.004  0.00  0.00    +0.000 C 
ATOM     21  C   UNL     1      -5.428  16.747   0.679  0.00  0.00    +0.000 C 
ATOM     22  C   UNL     1      -3.919  12.714  -0.623  0.00  0.00    +0.000 C 
ATOM     23  C   UNL     1      -5.567  18.093   1.400  0.00  0.00    +0.000 C 
ATOM     24  C   UNL     1      -0.911  13.313   0.295  0.00  0.00    +0.000 C 
ATOM     25  C   UNL     1      -2.019  11.994  -2.102  0.00  0.00    +0.000 C 
ATOM     26  C   UNL     1      -3.169  16.239   3.711  0.00  0.00    +0.000 C 
ATOM     27  C   UNL     1      -0.818  14.840  -1.714  0.00  0.00    +0.000 C 
ATOM     28  C   UNL     1      -0.214  12.118  -0.355  0.00  0.00    +0.000 C 
ATOM     29  C   UNL     1      -1.192  11.200  -1.086  0.00  0.00    +0.000 C 
BRANCH  19  32
ATOM     30  O   UNL     1      -3.547  20.833   4.811  0.00  0.00    +0.000 OA
ATOM     31  O   UNL     1      -3.104  22.518   3.315  0.00  0.00    +0.000 OA
ATOM     32  C   UNL     1      -4.205  19.282   3.237  0.00  0.00    +0.000 C 
ATOM     33  C   UNL     1      -4.010  19.489   4.694  0.00  0.00    +0.000 C 
ATOM     34  C   UNL     1      -3.902  20.403   2.581  0.00  0.00    +0.000 C 
ATOM     35  C   UNL     1      -3.471  21.386   3.573  0.00  0.00    +0.000 C 
ENDBRANCH  19  32
BRANCH  11  36
ATOM     36  O   UNL     1      -5.529  15.218   2.492  0.00  0.00    +0.000 OA
ATOM     37  H   UNL     1      -5.660  14.298   2.205  0.00  0.00    +0.000 HD
ENDBRANCH  11  36
ENDBRANCH  10  29
ENDBRANCH   2  10
BRANCH   6  38
ATOM     38  O   UNL     1      -2.275   5.330  -1.131  0.00  0.00    +0.000 OA
BRANCH  38  40
ATOM     39  O   UNL     1      -2.373   4.038   0.858  0.00  0.00    +0.000 OA
ATOM     40  C   UNL     1      -1.988   5.268   0.259  0.00  0.00    +0.000 C 
ATOM     41  C   UNL     1      -2.453   6.463   1.085  0.00  0.00    +0.000 C 
ATOM     42  C   UNL     1      -2.820   6.076   2.515  0.00  0.00    +0.000 C 
ATOM     43  C   UNL     1      -1.674   3.824   2.099  0.00  0.00    +0.000 C 
ATOM     44  C   UNL     1      -1.960   4.950   3.125  0.00  0.00    +0.000 C 
ATOM     45  C   UNL     1      -2.129   2.467   2.631  0.00  0.00    +0.000 C 
BRANCH  42  46
ATOM     46  O   UNL     1      -2.869   7.227   3.356  0.00  0.00    +0.000 OA
ATOM     47  H   UNL     1      -3.265   6.967   4.206  0.00  0.00    +0.000 HD
ENDBRANCH  42  46
BRANCH  44  48
ATOM     48  O   UNL     1      -0.779   5.324   3.845  0.00  0.00    +0.000 OA
BRANCH  48  50
ATOM     49  O   UNL     1       1.010   5.252   2.325  0.00  0.00    +0.000 OA
ATOM     50  C   UNL     1       0.224   6.079   3.175  0.00  0.00    +0.000 C 
ATOM     51  C   UNL     1       1.123   6.678   4.263  0.00  0.00    +0.000 C 
ATOM     52  C   UNL     1       2.553   6.897   3.775  0.00  0.00    +0.000 C 
ATOM     53  C   UNL     1       1.926   6.002   1.506  0.00  0.00    +0.000 C 
ATOM     54  C   UNL     1       2.588   7.164   2.269  0.00  0.00    +0.000 C 
ATOM     55  C   UNL     1       2.965   5.002   1.009  0.00  0.00    +0.000 C 
BRANCH  52  56
ATOM     56  O   UNL     1       3.108   8.024   4.465  0.00  0.00    +0.000 OA
ATOM     57  H   UNL     1       2.627   8.117   5.307  0.00  0.00    +0.000 HD
ENDBRANCH  52  56
BRANCH  54  58
ATOM     58  O   UNL     1       1.857   8.375   2.010  0.00  0.00    +0.000 OA
ATOM     59  H   UNL     1       1.085   8.109   1.468  0.00  0.00    +0.000 HD
ENDBRANCH  54  58
ENDBRANCH  48  50
ENDBRANCH  44  48
ENDBRANCH  38  40
ENDBRANCH   6  38
TORSDOF 12
ENDMDL
MODEL 6
REMARK VINA RESULT:      -6.6      9.670     16.799
REMARK  Name = 
REMARK  17 active torsions:
REMARK  status: ('A' for Active; 'I' for Inactive)
REMARK    1  A    between atoms: O_1  and  C_14
REMARK    2  A    between atoms: O_2  and  C_32
REMARK    3  A    between atoms: O_2  and  C_36
REMARK    4  A    between atoms: O_6  and  C_39
REMARK    5  A    between atoms: O_7  and  C_41
REMARK    6  A    between atoms: O_7  and  C_43
REMARK    7  A    between atoms: O_9  and  C_47
REMARK    8  A    between atoms: O_9  and  C_49
REMARK    9  A    between atoms: O_10  and  C_45
REMARK   10  A    between atoms: O_12  and  C_51
REMARK   11  A    between atoms: O_13  and  C_53
REMARK   12  A    between atoms: C_17  and  C_29
REMARK   13  A    between atoms: C_18  and  C_30
REMARK   14  A    between atoms: C_22  and  C_33
REMARK   15  A    between atoms: C_40  and  C_42
REMARK   16  A    between atoms: C_46  and  C_48
REMARK   17  A    between atoms: C_52  and  C_54
REMARK                            x       y       z     vdW  Elec       q    Type
REMARK                         _______ _______ _______ _____ _____    ______ ____
ROOT
ATOM      1  O   UNL     1      -4.244   5.649  18.354  0.00  0.00    +0.000 OA
ATOM      2  C   UNL     1      -5.019   6.761  17.913  0.00  0.00    +0.000 C 
ATOM      3  C   UNL     1      -5.208   6.773  16.394  0.00  0.00    +0.000 C 
ATOM      4  C   UNL     1      -4.731   5.473  15.764  0.00  0.00    +0.000 C 
ATOM      5  C   UNL     1      -4.873   4.394  18.068  0.00  0.00    +0.000 C 
ATOM      6  C   UNL     1      -5.136   4.212  16.554  0.00  0.00    +0.000 C 
ATOM      7  C   UNL     1      -3.943   3.305  18.602  0.00  0.00    +0.000 C 
ENDROOT
BRANCH   4   8
ATOM      8  O   UNL     1      -5.066   5.406  14.383  0.00  0.00    +0.000 OA
ATOM      9  H   UNL     1      -5.422   4.505  14.229  0.00  0.00    +0.000 HD
ENDBRANCH   4   8
BRANCH   2  10
ATOM     10  O   UNL     1      -4.487   8.003  18.375  0.00  0.00    +0.000 OA
BRANCH  10  29
ATOM     11  C   UNL     1       0.559  11.657  13.713  0.00  0.00    +0.000 C 
ATOM     12  C   UNL     1      -0.401  10.919  14.686  0.00  0.00    +0.000 C 
ATOM     13  C   UNL     1      -0.765  11.748  15.944  0.00  0.00    +0.000 C 
ATOM     14  C   UNL     1       0.123  13.109  13.366  0.00  0.00    +0.000 C 
ATOM     15  C   UNL     1      -1.748  10.993  16.929  0.00  0.00    +0.000 C 
ATOM     16  C   UNL     1      -1.212   9.553  17.223  0.00  0.00    +0.000 C 
ATOM     17  C   UNL     1      -1.263  13.146  15.523  0.00  0.00    +0.000 C 
ATOM     18  C   UNL     1      -0.243  13.883  14.655  0.00  0.00    +0.000 C 
ATOM     19  C   UNL     1       1.421  13.664  12.695  0.00  0.00    +0.000 C 
ATOM     20  C   UNL     1       0.158   9.546  15.089  0.00  0.00    +0.000 C 
ATOM     21  C   UNL     1       2.000  11.821  14.230  0.00  0.00    +0.000 C 
ATOM     22  C   UNL     1      -0.838   8.781  15.946  0.00  0.00    +0.000 C 
ATOM     23  C   UNL     1       2.563  13.073  13.546  0.00  0.00    +0.000 C 
ATOM     24  C   UNL     1      -3.193  10.908  16.362  0.00  0.00    +0.000 C 
ATOM     25  C   UNL     1      -2.195   8.709  18.059  0.00  0.00    +0.000 C 
ATOM     26  C   UNL     1      -1.067  13.146  12.386  0.00  0.00    +0.000 C 
ATOM     27  C   UNL     1      -1.787  11.789  18.265  0.00  0.00    +0.000 C 
ATOM     28  C   UNL     1      -4.139  10.062  17.214  0.00  0.00    +0.000 C 
ATOM     29  C   UNL     1      -3.602   8.653  17.456  0.00  0.00    +0.000 C 
BRANCH  19  32
ATOM     30  O   UNL     1       1.268  17.143  11.324  0.00  0.00    +0.000 OA
ATOM     31  O   UNL     1       2.258  18.447  12.934  0.00  0.00    +0.000 OA
ATOM     32  C   UNL     1       1.490  15.150  12.461  0.00  0.00    +0.000 C 
ATOM     33  C   UNL     1       0.980  15.751  11.203  0.00  0.00    +0.000 C 
ATOM     34  C   UNL     1       2.034  16.099  13.223  0.00  0.00    +0.000 C 
ATOM     35  C   UNL     1       1.884  17.368  12.513  0.00  0.00    +0.000 C 
ENDBRANCH  19  32
BRANCH  11  36
ATOM     36  O   UNL     1       0.664  10.890  12.502  0.00  0.00    +0.000 OA
ATOM     37  H   UNL     1       0.691  11.503  11.748  0.00  0.00    +0.000 HD
ENDBRANCH  11  36
ENDBRANCH  10  29
ENDBRANCH   2  10
BRANCH   6  38
ATOM     38  O   UNL     1      -6.387   3.567  16.295  0.00  0.00    +0.000 OA
BRANCH  38  40
ATOM     39  O   UNL     1      -8.509   3.119  17.258  0.00  0.00    +0.000 OA
ATOM     40  C   UNL     1      -7.664   4.082  16.643  0.00  0.00    +0.000 C 
ATOM     41  C   UNL     1      -8.393   4.845  15.541  0.00  0.00    +0.000 C 
ATOM     42  C   UNL     1      -9.910   4.713  15.646  0.00  0.00    +0.000 C 
ATOM     43  C   UNL     1      -9.570   3.755  17.996  0.00  0.00    +0.000 C 
ATOM     44  C   UNL     1     -10.458   4.640  17.085  0.00  0.00    +0.000 C 
ATOM     45  C   UNL     1     -10.385   2.639  18.644  0.00  0.00    +0.000 C 
BRANCH  42  46
ATOM     46  O   UNL     1     -10.562   5.721  14.875  0.00  0.00    +0.000 OA
ATOM     47  H   UNL     1     -10.976   5.295  14.104  0.00  0.00    +0.000 HD
ENDBRANCH  42  46
BRANCH  44  48
ATOM     48  O   UNL     1     -10.819   5.869  17.728  0.00  0.00    +0.000 OA
BRANCH  48  50
ATOM     49  O   UNL     1     -10.783   7.002  19.784  0.00  0.00    +0.000 OA
ATOM     50  C   UNL     1     -10.002   6.357  18.786  0.00  0.00    +0.000 C 
ATOM     51  C   UNL     1      -9.041   7.376  18.165  0.00  0.00    +0.000 C 
ATOM     52  C   UNL     1      -8.616   8.452  19.161  0.00  0.00    +0.000 C 
ATOM     53  C   UNL     1     -10.017   7.363  20.949  0.00  0.00    +0.000 C 
ATOM     54  C   UNL     1      -8.623   7.913  20.593  0.00  0.00    +0.000 C 
ATOM     55  C   UNL     1     -10.847   8.400  21.697  0.00  0.00    +0.000 C 
BRANCH  52  56
ATOM     56  O   UNL     1      -7.292   8.889  18.831  0.00  0.00    +0.000 OA
ATOM     57  H   UNL     1      -7.009   8.394  18.041  0.00  0.00    +0.000 HD
ENDBRANCH  52  56
BRANCH  54  58
ATOM     58  O   UNL     1      -7.661   6.846  20.676  0.00  0.00    +0.000 OA
ATOM     59  H   UNL     1      -7.954   6.281  21.421  0.00  0.00    +0.000 HD
ENDBRANCH  54  58
ENDBRANCH  48  50
ENDBRANCH  44  48
ENDBRANCH  38  40
ENDBRANCH   6  38
TORSDOF 12
ENDMDL
MODEL 7
REMARK VINA RESULT:      -6.5     18.990     25.667
REMARK  Name = 
REMARK  17 active torsions:
REMARK  status: ('A' for Active; 'I' for Inactive)
REMARK    1  A    between atoms: O_1  and  C_14
REMARK    2  A    between atoms: O_2  and  C_32
REMARK    3  A    between atoms: O_2  and  C_36
REMARK    4  A    between atoms: O_6  and  C_39
REMARK    5  A    between atoms: O_7  and  C_41
REMARK    6  A    between atoms: O_7  and  C_43
REMARK    7  A    between atoms: O_9  and  C_47
REMARK    8  A    between atoms: O_9  and  C_49
REMARK    9  A    between atoms: O_10  and  C_45
REMARK   10  A    between atoms: O_12  and  C_51
REMARK   11  A    between atoms: O_13  and  C_53
REMARK   12  A    between atoms: C_17  and  C_29
REMARK   13  A    between atoms: C_18  and  C_30
REMARK   14  A    between atoms: C_22  and  C_33
REMARK   15  A    between atoms: C_40  and  C_42
REMARK   16  A    between atoms: C_46  and  C_48
REMARK   17  A    between atoms: C_52  and  C_54
REMARK                            x       y       z     vdW  Elec       q    Type
REMARK                         _______ _______ _______ _____ _____    ______ ____
ROOT
ATOM      1  O   UNL     1     -14.395   3.128  24.349  0.00  0.00    +0.000 OA
ATOM      2  C   UNL     1     -14.742   3.980  23.261  0.00  0.00    +0.000 C 
ATOM      3  C   UNL     1     -16.057   4.727  23.503  0.00  0.00    +0.000 C 
ATOM      4  C   UNL     1     -16.536   4.559  24.936  0.00  0.00    +0.000 C 
ATOM      5  C   UNL     1     -14.170   3.854  25.564  0.00  0.00    +0.000 C 
ATOM      6  C   UNL     1     -15.413   4.673  25.987  0.00  0.00    +0.000 C 
ATOM      7  C   UNL     1     -13.799   2.823  26.629  0.00  0.00    +0.000 C 
ENDROOT
BRANCH   4   8
ATOM      8  O   UNL     1     -17.657   5.391  25.215  0.00  0.00    +0.000 OA
ATOM      9  H   UNL     1     -18.149   5.482  24.372  0.00  0.00    +0.000 HD
ENDBRANCH   4   8
BRANCH   2  10
ATOM     10  O   UNL     1     -14.770   3.279  22.017  0.00  0.00    +0.000 OA
BRANCH  10  29
ATOM     11  C   UNL     1      -8.811   5.155  17.378  0.00  0.00    +0.000 C 
ATOM     12  C   UNL     1      -9.961   4.742  18.337  0.00  0.00    +0.000 C 
ATOM     13  C   UNL     1      -9.832   5.351  19.756  0.00  0.00    +0.000 C 
ATOM     14  C   UNL     1      -8.522   6.683  17.349  0.00  0.00    +0.000 C 
ATOM     15  C   UNL     1     -11.010   4.932  20.728  0.00  0.00    +0.000 C 
ATOM     16  C   UNL     1     -11.207   3.380  20.693  0.00  0.00    +0.000 C 
ATOM     17  C   UNL     1      -9.626   6.876  19.655  0.00  0.00    +0.000 C 
ATOM     18  C   UNL     1      -8.419   7.238  18.790  0.00  0.00    +0.000 C 
ATOM     19  C   UNL     1      -7.148   6.718  16.605  0.00  0.00    +0.000 C 
ATOM     20  C   UNL     1     -10.102   3.215  18.417  0.00  0.00    +0.000 C 
ATOM     21  C   UNL     1      -7.443   4.530  17.705  0.00  0.00    +0.000 C 
ATOM     22  C   UNL     1     -11.302   2.820  19.263  0.00  0.00    +0.000 C 
ATOM     23  C   UNL     1      -6.385   5.504  17.173  0.00  0.00    +0.000 C 
ATOM     24  C   UNL     1     -12.346   5.638  20.366  0.00  0.00    +0.000 C 
ATOM     25  C   UNL     1     -12.434   2.916  21.504  0.00  0.00    +0.000 C 
ATOM     26  C   UNL     1      -9.595   7.468  16.569  0.00  0.00    +0.000 C 
ATOM     27  C   UNL     1     -10.606   5.346  22.172  0.00  0.00    +0.000 C 
ATOM     28  C   UNL     1     -13.541   5.152  21.186  0.00  0.00    +0.000 C 
ATOM     29  C   UNL     1     -13.725   3.638  21.106  0.00  0.00    +0.000 C 
BRANCH  19  32
ATOM     30  O   UNL     1      -4.714   9.508  17.153  0.00  0.00    +0.000 OA
ATOM     31  O   UNL     1      -5.692  11.335  16.163  0.00  0.00    +0.000 OA
ATOM     32  C   UNL     1      -6.394   8.021  16.620  0.00  0.00    +0.000 C 
ATOM     33  C   UNL     1      -5.079   8.137  17.300  0.00  0.00    +0.000 C 
ATOM     34  C   UNL     1      -6.758   9.212  16.145  0.00  0.00    +0.000 C 
ATOM     35  C   UNL     1      -5.691  10.157  16.467  0.00  0.00    +0.000 C 
ENDBRANCH  19  32
BRANCH  11  36
ATOM     36  O   UNL     1      -9.137   4.707  16.051  0.00  0.00    +0.000 OA
ATOM     37  H   UNL     1      -8.350   4.808  15.488  0.00  0.00    +0.000 HD
ENDBRANCH  11  36
ENDBRANCH  10  29
ENDBRANCH   2  10
BRANCH   6  38
ATOM     38  O   UNL     1     -15.062   5.947  26.535  0.00  0.00    +0.000 OA
BRANCH  38  40
ATOM     39  O   UNL     1     -14.645   7.517  28.266  0.00  0.00    +0.000 OA
ATOM     40  C   UNL     1     -15.429   6.416  27.825  0.00  0.00    +0.000 C 
ATOM     41  C   UNL     1     -15.554   5.348  28.907  0.00  0.00    +0.000 C 
ATOM     42  C   UNL     1     -15.199   5.878  30.293  0.00  0.00    +0.000 C 
ATOM     43  C   UNL     1     -15.315   8.242  29.315  0.00  0.00    +0.000 C 
ATOM     44  C   UNL     1     -15.595   7.347  30.549  0.00  0.00    +0.000 C 
ATOM     45  C   UNL     1     -14.411   9.417  29.682  0.00  0.00    +0.000 C 
BRANCH  42  46
ATOM     46  O   UNL     1     -15.688   5.007  31.312  0.00  0.00    +0.000 OA
ATOM     47  H   UNL     1     -15.708   4.102  30.955  0.00  0.00    +0.000 HD
ENDBRANCH  42  46
BRANCH  44  48
ATOM     48  O   UNL     1     -16.889   7.604  31.108  0.00  0.00    +0.000 OA
BRANCH  48  50
ATOM     49  O   UNL     1     -18.259   9.501  31.300  0.00  0.00    +0.000 OA
ATOM     50  C   UNL     1     -17.768   8.491  30.427  0.00  0.00    +0.000 C 
ATOM     51  C   UNL     1     -18.944   7.645  29.927  0.00  0.00    +0.000 C 
ATOM     52  C   UNL     1     -20.234   8.455  29.819  0.00  0.00    +0.000 C 
ATOM     53  C   UNL     1     -19.019  10.513  30.615  0.00  0.00    +0.000 C 
ATOM     54  C   UNL     1     -19.938   9.928  29.527  0.00  0.00    +0.000 C 
ATOM     55  C   UNL     1     -19.822  11.239  31.688  0.00  0.00    +0.000 C 
BRANCH  52  56
ATOM     56  O   UNL     1     -21.029   7.916  28.756  0.00  0.00    +0.000 OA
ATOM     57  H   UNL     1     -21.878   7.631  29.141  0.00  0.00    +0.000 HD
ENDBRANCH  52  56
BRANCH  54  58
ATOM     58  O   UNL     1     -19.273  10.008  28.254  0.00  0.00    +0.000 OA
ATOM     59  H   UNL     1     -18.323  10.131  28.457  0.00  0.00    +0.000 HD
ENDBRANCH  54  58
ENDBRANCH  48  50
ENDBRANCH  44  48
ENDBRANCH  38  40
ENDBRANCH   6  38
TORSDOF 12
ENDMDL
MODEL 8
REMARK VINA RESULT:      -6.5     20.542     23.075
REMARK  Name = 
REMARK  17 active torsions:
REMARK  status: ('A' for Active; 'I' for Inactive)
REMARK    1  A    between atoms: O_1  and  C_14
REMARK    2  A    between atoms: O_2  and  C_32
REMARK    3  A    between atoms: O_2  and  C_36
REMARK    4  A    between atoms: O_6  and  C_39
REMARK    5  A    between atoms: O_7  and  C_41
REMARK    6  A    between atoms: O_7  and  C_43
REMARK    7  A    between atoms: O_9  and  C_47
REMARK    8  A    between atoms: O_9  and  C_49
REMARK    9  A    between atoms: O_10  and  C_45
REMARK   10  A    between atoms: O_12  and  C_51
REMARK   11  A    between atoms: O_13  and  C_53
REMARK   12  A    between atoms: C_17  and  C_29
REMARK   13  A    between atoms: C_18  and  C_30
REMARK   14  A    between atoms: C_22  and  C_33
REMARK   15  A    between atoms: C_40  and  C_42
REMARK   16  A    between atoms: C_46  and  C_48
REMARK   17  A    between atoms: C_52  and  C_54
REMARK                            x       y       z     vdW  Elec       q    Type
REMARK                         _______ _______ _______ _____ _____    ______ ____
ROOT
ATOM      1  O   UNL     1     -27.315  17.883   8.576  0.00  0.00    +0.000 OA
ATOM      2  C   UNL     1     -27.756  17.691   9.917  0.00  0.00    +0.000 C 
ATOM      3  C   UNL     1     -28.854  16.629  10.023  0.00  0.00    +0.000 C 
ATOM      4  C   UNL     1     -29.029  15.877   8.712  0.00  0.00    +0.000 C 
ATOM      5  C   UNL     1     -26.721  16.704   8.019  0.00  0.00    +0.000 C 
ATOM      6  C   UNL     1     -27.699  15.505   8.024  0.00  0.00    +0.000 C 
ATOM      7  C   UNL     1     -26.290  17.058   6.596  0.00  0.00    +0.000 C 
ENDROOT
BRANCH   4   8
ATOM      8  O   UNL     1     -29.919  14.776   8.854  0.00  0.00    +0.000 OA
ATOM      9  H   UNL     1     -30.324  14.862   9.743  0.00  0.00    +0.000 HD
ENDBRANCH   4   8
BRANCH   2  10
ATOM     10  O   UNL     1     -28.162  18.915  10.530  0.00  0.00    +0.000 OA
BRANCH  10  29
ATOM     11  C   UNL     1     -25.329  20.228  17.657  0.00  0.00    +0.000 C 
ATOM     12  C   UNL     1     -25.939  19.928  16.260  0.00  0.00    +0.000 C 
ATOM     13  C   UNL     1     -27.304  20.622  16.019  0.00  0.00    +0.000 C 
ATOM     14  C   UNL     1     -25.306  21.737  18.033  0.00  0.00    +0.000 C 
ATOM     15  C   UNL     1     -27.919  20.318  14.592  0.00  0.00    +0.000 C 
ATOM     16  C   UNL     1     -27.907  18.776  14.321  0.00  0.00    +0.000 C 
ATOM     17  C   UNL     1     -27.189  22.127  16.335  0.00  0.00    +0.000 C 
ATOM     18  C   UNL     1     -26.688  22.380  17.757  0.00  0.00    +0.000 C 
ATOM     19  C   UNL     1     -24.985  21.666  19.560  0.00  0.00    +0.000 C 
ATOM     20  C   UNL     1     -26.052  18.416  16.012  0.00  0.00    +0.000 C 
ATOM     21  C   UNL     1     -26.064  19.568  18.837  0.00  0.00    +0.000 C 
ATOM     22  C   UNL     1     -26.539  18.129  14.601  0.00  0.00    +0.000 C 
ATOM     23  C   UNL     1     -25.807  20.459  20.058  0.00  0.00    +0.000 C 
ATOM     24  C   UNL     1     -27.155  21.055  13.457  0.00  0.00    +0.000 C 
ATOM     25  C   UNL     1     -28.356  18.419  12.889  0.00  0.00    +0.000 C 
ATOM     26  C   UNL     1     -24.214  22.515  17.272  0.00  0.00    +0.000 C 
ATOM     27  C   UNL     1     -29.395  20.808  14.595  0.00  0.00    +0.000 C 
ATOM     28  C   UNL     1     -27.624  20.675  12.053  0.00  0.00    +0.000 C 
ATOM     29  C   UNL     1     -27.570  19.168  11.809  0.00  0.00    +0.000 C 
BRANCH  19  32
ATOM     30  O   UNL     1     -26.002  24.347  21.965  0.00  0.00    +0.000 OA
ATOM     31  O   UNL     1     -24.843  26.209  21.284  0.00  0.00    +0.000 OA
ATOM     32  C   UNL     1     -25.149  22.933  20.355  0.00  0.00    +0.000 C 
ATOM     33  C   UNL     1     -26.073  22.995  21.516  0.00  0.00    +0.000 C 
ATOM     34  C   UNL     1     -24.613  24.135  20.146  0.00  0.00    +0.000 C 
ATOM     35  C   UNL     1     -25.139  25.034  21.171  0.00  0.00    +0.000 C 
ENDBRANCH  19  32
BRANCH  11  36
ATOM     36  O   UNL     1     -23.989  19.709  17.693  0.00  0.00    +0.000 OA
ATOM     37  H   UNL     1     -23.702  19.529  16.782  0.00  0.00    +0.000 HD
ENDBRANCH  11  36
ENDBRANCH  10  29
ENDBRANCH   2  10
BRANCH   6  38
ATOM     38  O   UNL     1     -27.045  14.272   8.336  0.00  0.00    +0.000 OA
BRANCH  38  40
ATOM     39  O   UNL     1     -24.964  13.397   7.602  0.00  0.00    +0.000 OA
ATOM     40  C   UNL     1     -25.659  14.123   8.608  0.00  0.00    +0.000 C 
ATOM     41  C   UNL     1     -25.307  13.622  10.005  0.00  0.00    +0.000 C 
ATOM     42  C   UNL     1     -24.025  12.795  10.023  0.00  0.00    +0.000 C 
ATOM     43  C   UNL     1     -23.548  13.658   7.659  0.00  0.00    +0.000 C 
ATOM     44  C   UNL     1     -22.941  13.256   9.027  0.00  0.00    +0.000 C 
ATOM     45  C   UNL     1     -22.911  12.866   6.520  0.00  0.00    +0.000 C 
BRANCH  42  46
ATOM     46  O   UNL     1     -23.516  12.675  11.350  0.00  0.00    +0.000 OA
ATOM     47  H   UNL     1     -23.037  13.493  11.569  0.00  0.00    +0.000 HD
ENDBRANCH  42  46
BRANCH  44  48
ATOM     48  O   UNL     1     -21.977  14.214   9.482  0.00  0.00    +0.000 OA
BRANCH  48  50
ATOM     49  O   UNL     1     -21.895  16.400   8.628  0.00  0.00    +0.000 OA
ATOM     50  C   UNL     1     -22.386  15.564   9.669  0.00  0.00    +0.000 C 
ATOM     51  C   UNL     1     -21.789  16.023  11.004  0.00  0.00    +0.000 C 
ATOM     52  C   UNL     1     -21.524  17.526  11.032  0.00  0.00    +0.000 C 
ATOM     53  C   UNL     1     -22.422  17.738   8.689  0.00  0.00    +0.000 C 
ATOM     54  C   UNL     1     -22.504  18.277  10.129  0.00  0.00    +0.000 C 
ATOM     55  C   UNL     1     -21.501  18.596   7.828  0.00  0.00    +0.000 C 
BRANCH  52  56
ATOM     56  O   UNL     1     -21.672  17.995  12.378  0.00  0.00    +0.000 OA
ATOM     57  H   UNL     1     -20.942  17.618  12.902  0.00  0.00    +0.000 HD
ENDBRANCH  52  56
BRANCH  54  58
ATOM     58  O   UNL     1     -23.834  18.066  10.636  0.00  0.00    +0.000 OA
ATOM     59  H   UNL     1     -24.306  17.561   9.943  0.00  0.00    +0.000 HD
ENDBRANCH  54  58
ENDBRANCH  48  50
ENDBRANCH  44  48
ENDBRANCH  38  40
ENDBRANCH   6  38
TORSDOF 12
ENDMDL
MODEL 9
REMARK VINA RESULT:      -6.4      1.865      2.953
REMARK  Name = 
REMARK  17 active torsions:
REMARK  status: ('A' for Active; 'I' for Inactive)
REMARK    1  A    between atoms: O_1  and  C_14
REMARK    2  A    between atoms: O_2  and  C_32
REMARK    3  A    between atoms: O_2  and  C_36
REMARK    4  A    between atoms: O_6  and  C_39
REMARK    5  A    between atoms: O_7  and  C_41
REMARK    6  A    between atoms: O_7  and  C_43
REMARK    7  A    between atoms: O_9  and  C_47
REMARK    8  A    between atoms: O_9  and  C_49
REMARK    9  A    between atoms: O_10  and  C_45
REMARK   10  A    between atoms: O_12  and  C_51
REMARK   11  A    between atoms: O_13  and  C_53
REMARK   12  A    between atoms: C_17  and  C_29
REMARK   13  A    between atoms: C_18  and  C_30
REMARK   14  A    between atoms: C_22  and  C_33
REMARK   15  A    between atoms: C_40  and  C_42
REMARK   16  A    between atoms: C_46  and  C_48
REMARK   17  A    between atoms: C_52  and  C_54
REMARK                            x       y       z     vdW  Elec       q    Type
REMARK                         _______ _______ _______ _____ _____    ______ ____
ROOT
ATOM      1  O   UNL     1      -4.611  21.423   0.932  0.00  0.00    +0.000 OA
ATOM      2  C   UNL     1      -5.529  21.435   2.022  0.00  0.00    +0.000 C 
ATOM      3  C   UNL     1      -6.981  21.586   1.559  0.00  0.00    +0.000 C 
ATOM      4  C   UNL     1      -7.101  21.442   0.049  0.00  0.00    +0.000 C 
ATOM      5  C   UNL     1      -4.818  20.311   0.052  0.00  0.00    +0.000 C 
ATOM      6  C   UNL     1      -6.248  20.300  -0.539  0.00  0.00    +0.000 C 
ATOM      7  C   UNL     1      -3.766  20.421  -1.051  0.00  0.00    +0.000 C 
ENDROOT
BRANCH   4   8
ATOM      8  O   UNL     1      -8.461  21.404  -0.367  0.00  0.00    +0.000 OA
ATOM      9  H   UNL     1      -9.000  21.549   0.439  0.00  0.00    +0.000 HD
ENDBRANCH   4   8
BRANCH   2  10
ATOM     10  O   UNL     1      -5.194  22.424   2.996  0.00  0.00    +0.000 OA
BRANCH  10  29
ATOM     11  C   UNL     1      -3.881  19.303  10.002  0.00  0.00    +0.000 C 
ATOM     12  C   UNL     1      -4.161  19.869   8.583  0.00  0.00    +0.000 C 
ATOM     13  C   UNL     1      -5.671  19.984   8.250  0.00  0.00    +0.000 C 
ATOM     14  C   UNL     1      -4.691  19.994  11.136  0.00  0.00    +0.000 C 
ATOM     15  C   UNL     1      -5.952  20.566   6.804  0.00  0.00    +0.000 C 
ATOM     16  C   UNL     1      -5.101  19.795   5.741  0.00  0.00    +0.000 C 
ATOM     17  C   UNL     1      -6.398  20.747   9.376  0.00  0.00    +0.000 C 
ATOM     18  C   UNL     1      -6.185  20.096  10.743  0.00  0.00    +0.000 C 
ATOM     19  C   UNL     1      -4.461  19.002  12.321  0.00  0.00    +0.000 C 
ATOM     20  C   UNL     1      -3.433  19.055   7.502  0.00  0.00    +0.000 C 
ATOM     21  C   UNL     1      -4.206  17.809  10.177  0.00  0.00    +0.000 C 
ATOM     22  C   UNL     1      -3.616  19.683   6.129  0.00  0.00    +0.000 C 
ATOM     23  C   UNL     1      -4.531  17.610  11.662  0.00  0.00    +0.000 C 
ATOM     24  C   UNL     1      -5.645  22.088   6.717  0.00  0.00    +0.000 C 
ATOM     25  C   UNL     1      -5.214  20.406   4.330  0.00  0.00    +0.000 C 
ATOM     26  C   UNL     1      -4.149  21.398  11.473  0.00  0.00    +0.000 C 
ATOM     27  C   UNL     1      -7.458  20.346   6.487  0.00  0.00    +0.000 C 
ATOM     28  C   UNL     1      -5.764  22.659   5.304  0.00  0.00    +0.000 C 
ATOM     29  C   UNL     1      -4.898  21.905   4.297  0.00  0.00    +0.000 C 
BRANCH  19  32
ATOM     30  O   UNL     1      -5.954  20.003  15.604  0.00  0.00    +0.000 OA
ATOM     31  O   UNL     1      -7.814  18.676  15.825  0.00  0.00    +0.000 OA
ATOM     32  C   UNL     1      -5.320  19.184  13.544  0.00  0.00    +0.000 C 
ATOM     33  C   UNL     1      -4.950  20.157  14.602  0.00  0.00    +0.000 C 
ATOM     34  C   UNL     1      -6.419  18.523  13.908  0.00  0.00    +0.000 C 
ATOM     35  C   UNL     1      -6.834  19.047  15.207  0.00  0.00    +0.000 C 
ENDBRANCH  19  32
BRANCH  11  36
ATOM     36  O   UNL     1      -2.475  19.430  10.276  0.00  0.00    +0.000 OA
ATOM     37  H   UNL     1      -1.991  18.807   9.709  0.00  0.00    +0.000 HD
ENDBRANCH  11  36
ENDBRANCH  10  29
ENDBRANCH   2  10
BRANCH   6  38
ATOM     38  O   UNL     1      -6.783  18.976  -0.638  0.00  0.00    +0.000 OA
BRANCH  38  40
ATOM     39  O   UNL     1      -5.086  17.320  -0.534  0.00  0.00    +0.000 OA
ATOM     40  C   UNL     1      -6.281  17.834   0.039  0.00  0.00    +0.000 C 
ATOM     41  C   UNL     1      -7.294  16.725   0.310  0.00  0.00    +0.000 C 
ATOM     42  C   UNL     1      -6.655  15.340   0.312  0.00  0.00    +0.000 C 
ATOM     43  C   UNL     1      -4.372  16.495   0.406  0.00  0.00    +0.000 C 
ATOM     44  C   UNL     1      -5.220  15.286   0.875  0.00  0.00    +0.000 C 
ATOM     45  C   UNL     1      -3.096  16.034  -0.295  0.00  0.00    +0.000 C 
BRANCH  42  46
ATOM     46  O   UNL     1      -7.512  14.386   0.939  0.00  0.00    +0.000 OA
ATOM     47  H   UNL     1      -7.771  14.735   1.809  0.00  0.00    +0.000 HD
ENDBRANCH  42  46
BRANCH  44  48
ATOM     48  O   UNL     1      -5.060  15.036   2.277  0.00  0.00    +0.000 OA
BRANCH  48  50
ATOM     49  O   UNL     1      -2.800  14.624   2.767  0.00  0.00    +0.000 OA
ATOM     50  C   UNL     1      -3.893  15.520   2.931  0.00  0.00    +0.000 C 
ATOM     51  C   UNL     1      -4.236  15.622   4.422  0.00  0.00    +0.000 C 
ATOM     52  C   UNL     1      -3.009  15.440   5.312  0.00  0.00    +0.000 C 
ATOM     53  C   UNL     1      -1.561  15.154   3.271  0.00  0.00    +0.000 C 
ATOM     54  C   UNL     1      -1.737  15.909   4.602  0.00  0.00    +0.000 C 
ATOM     55  C   UNL     1      -0.625  13.961   3.431  0.00  0.00    +0.000 C 
BRANCH  52  56
ATOM     56  O   UNL     1      -3.189  16.208   6.508  0.00  0.00    +0.000 OA
ATOM     57  H   UNL     1      -4.147  16.322   6.641  0.00  0.00    +0.000 HD
ENDBRANCH  52  56
BRANCH  54  58
ATOM     58  O   UNL     1      -1.866  17.316   4.332  0.00  0.00    +0.000 OA
ATOM     59  H   UNL     1      -1.135  17.748   4.820  0.00  0.00    +0.000 HD
ENDBRANCH  54  58
ENDBRANCH  48  50
ENDBRANCH  44  48
ENDBRANCH  38  40
ENDBRANCH   6  38
TORSDOF 12
ENDMDL
