MODEL 1
REMARK VINA RESULT:      -6.1      0.000      0.000
REMARK  Name = Cdk12_Inhibitor.pdbqt.pdb
REMARK  6 active torsions:
REMARK  status: ('A' for Active; 'I' for Inactive)
REMARK    1  A    between atoms: N_1  and  C_23
REMARK    2  A    between atoms: N_9  and  C_11
REMARK    3  A    between atoms: C_14  and  S_17
REMARK    4  A    between atoms: S_17  and  N_20
REMARK    5  A    between atoms: C_23  and  N_25
REMARK    6  A    between atoms: N_25  and  C_27
REMARK                            x       y       z     vdW  Elec       q    Type
REMARK                         _______ _______ _______ _____ _____    ______ ____
ROOT
ATOM      1  N   UNL     1     -11.925   4.229  20.126  0.00  0.00    +0.000 N 
ATOM      2  N   UNL     1     -11.355   5.331  20.679  0.00  0.00    +0.000 NA
ATOM      3  N   UNL     1     -13.389   4.966  21.614  0.00  0.00    +0.000 NA
ATOM      4  N   UNL     1     -14.110   3.142  20.296  0.00  0.00    +0.000 N 
ATOM      5  C   UNL     1     -12.249   5.715  21.585  0.00  0.00    +0.000 A 
ATOM      6  C   UNL     1     -13.201   4.074  20.676  0.00  0.00    +0.000 A 
ATOM      7  H   UNL     1     -14.270   3.046  19.292  0.00  0.00    +0.000 HD
ATOM      8  H   UNL     1     -15.010   3.263  20.762  0.00  0.00    +0.000 HD
ATOM      9  N   UNL     1     -12.185   6.740  22.453  0.00  0.00    +0.000 N 
ATOM     10  H   UNL     1     -12.989   6.848  23.058  0.00  0.00    +0.000 HD
ENDROOT
BRANCH   9  11
ATOM     11  C   UNL     1     -11.162   7.678  22.677  0.00  0.00    +0.000 A 
ATOM     12  C   UNL     1     -10.152   7.376  23.600  0.00  0.00    +0.000 A 
ATOM     13  C   UNL     1      -9.126   8.278  23.868  0.00  0.00    +0.000 A 
ATOM     14  C   UNL     1      -9.119   9.504  23.216  0.00  0.00    +0.000 A 
ATOM     15  C   UNL     1     -10.093   9.829  22.280  0.00  0.00    +0.000 A 
ATOM     16  C   UNL     1     -11.113   8.917  22.026  0.00  0.00    +0.000 A 
BRANCH  14  17
ATOM     17  S   UNL     1      -7.803  10.618  23.496  0.00  0.00    +0.000 S 
ATOM     18  O   UNL     1      -6.659   9.889  23.993  0.00  0.00    +0.000 OA
ATOM     19  O   UNL     1      -7.705  11.535  22.386  0.00  0.00    +0.000 OA
BRANCH  17  20
ATOM     20  N   UNL     1      -8.365  11.519  24.797  0.00  0.00    +0.000 NA
ATOM     21  H   UNL     1      -8.019  12.476  24.728  0.00  0.00    +0.000 HD
ATOM     22  H   UNL     1      -9.382  11.451  24.847  0.00  0.00    +0.000 HD
ENDBRANCH  17  20
ENDBRANCH  14  17
ENDBRANCH   9  11
BRANCH   1  23
ATOM     23  C   UNL     1     -11.217   3.445  19.169  0.00  0.00    +0.000 C 
ATOM     24  S   UNL     1     -10.612   1.896  19.453  0.00  0.00    +0.000 S 
BRANCH  23  25
ATOM     25  N   UNL     1     -11.220   4.100  17.932  0.00  0.00    +0.000 N 
ATOM     26  H   UNL     1     -11.928   3.784  17.260  0.00  0.00    +0.000 HD
BRANCH  25  27
ATOM     27  C   UNL     1     -10.246   4.960  17.360  0.00  0.00    +0.000 A 
ATOM     28  C   UNL     1     -10.488   6.337  17.433  0.00  0.00    +0.000 A 
ATOM     29  F   UNL     1     -11.615   6.775  18.017  0.00  0.00    +0.000 F 
ATOM     30  C   UNL     1      -9.595   7.269  16.911  0.00  0.00    +0.000 A 
ATOM     31  C   UNL     1      -8.417   6.829  16.319  0.00  0.00    +0.000 A 
ATOM     32  C   UNL     1      -8.121   5.469  16.293  0.00  0.00    +0.000 A 
ATOM     33  C   UNL     1      -9.027   4.546  16.817  0.00  0.00    +0.000 A 
ATOM     34  F   UNL     1      -8.619   3.275  16.930  0.00  0.00    +0.000 F 
ENDBRANCH  25  27
ENDBRANCH  23  25
ENDBRANCH   1  23
TORSDOF 6
ENDMDL
MODEL 2
REMARK VINA RESULT:      -6.1     19.904     22.755
REMARK  Name = Cdk12_Inhibitor.pdbqt.pdb
REMARK  6 active torsions:
REMARK  status: ('A' for Active; 'I' for Inactive)
REMARK    1  A    between atoms: N_1  and  C_23
REMARK    2  A    between atoms: N_9  and  C_11
REMARK    3  A    between atoms: C_14  and  S_17
REMARK    4  A    between atoms: S_17  and  N_20
REMARK    5  A    between atoms: C_23  and  N_25
REMARK    6  A    between atoms: N_25  and  C_27
REMARK                            x       y       z     vdW  Elec       q    Type
REMARK                         _______ _______ _______ _____ _____    ______ ____
ROOT
ATOM      1  N   UNL     1     -15.290   4.504  -2.385  0.00  0.00    +0.000 N 
ATOM      2  N   UNL     1     -14.422   3.762  -1.649  0.00  0.00    +0.000 NA
ATOM      3  N   UNL     1     -14.446   3.017  -3.792  0.00  0.00    +0.000 NA
ATOM      4  N   UNL     1     -16.156   4.392  -4.671  0.00  0.00    +0.000 N 
ATOM      5  C   UNL     1     -13.918   2.911  -2.538  0.00  0.00    +0.000 A 
ATOM      6  C   UNL     1     -15.328   3.977  -3.679  0.00  0.00    +0.000 A 
ATOM      7  H   UNL     1     -17.142   4.496  -4.426  0.00  0.00    +0.000 HD
ATOM      8  H   UNL     1     -16.084   3.811  -5.507  0.00  0.00    +0.000 HD
ATOM      9  N   UNL     1     -12.981   1.964  -2.363  0.00  0.00    +0.000 N 
ATOM     10  H   UNL     1     -12.746   1.427  -3.188  0.00  0.00    +0.000 HD
ENDROOT
BRANCH   9  11
ATOM     11  C   UNL     1     -12.248   1.613  -1.216  0.00  0.00    +0.000 A 
ATOM     12  C   UNL     1     -12.916   1.018  -0.137  0.00  0.00    +0.000 A 
ATOM     13  C   UNL     1     -12.238   0.665   1.027  0.00  0.00    +0.000 A 
ATOM     14  C   UNL     1     -10.877   0.925   1.118  0.00  0.00    +0.000 A 
ATOM     15  C   UNL     1     -10.178   1.495   0.061  0.00  0.00    +0.000 A 
ATOM     16  C   UNL     1     -10.872   1.844  -1.094  0.00  0.00    +0.000 A 
BRANCH  14  17
ATOM     17  S   UNL     1     -10.002   0.429   2.547  0.00  0.00    +0.000 S 
ATOM     18  O   UNL     1     -10.930  -0.130   3.504  0.00  0.00    +0.000 OA
ATOM     19  O   UNL     1      -8.795  -0.258   2.157  0.00  0.00    +0.000 OA
BRANCH  17  20
ATOM     20  N   UNL     1      -9.514   1.899   3.197  0.00  0.00    +0.000 NA
ATOM     21  H   UNL     1      -9.988   2.056   4.087  0.00  0.00    +0.000 HD
ATOM     22  H   UNL     1      -8.495   1.923   3.263  0.00  0.00    +0.000 HD
ENDBRANCH  17  20
ENDBRANCH  14  17
ENDBRANCH   9  11
BRANCH   1  23
ATOM     23  C   UNL     1     -15.965   5.620  -1.809  0.00  0.00    +0.000 C 
ATOM     24  S   UNL     1     -17.597   5.644  -1.385  0.00  0.00    +0.000 S 
BRANCH  23  25
ATOM     25  N   UNL     1     -15.039   6.633  -1.531  0.00  0.00    +0.000 N 
ATOM     26  H   UNL     1     -14.341   6.417  -0.812  0.00  0.00    +0.000 HD
BRANCH  25  27
ATOM     27  C   UNL     1     -15.058   8.004  -1.902  0.00  0.00    +0.000 A 
ATOM     28  C   UNL     1     -15.157   8.944  -0.869  0.00  0.00    +0.000 A 
ATOM     29  F   UNL     1     -15.243   8.517   0.401  0.00  0.00    +0.000 F 
ATOM     30  C   UNL     1     -15.177  10.313  -1.121  0.00  0.00    +0.000 A 
ATOM     31  C   UNL     1     -15.073  10.768  -2.430  0.00  0.00    +0.000 A 
ATOM     32  C   UNL     1     -14.907   9.857  -3.469  0.00  0.00    +0.000 A 
ATOM     33  C   UNL     1     -14.892   8.488  -3.202  0.00  0.00    +0.000 A 
ATOM     34  F   UNL     1     -14.551   7.666  -4.205  0.00  0.00    +0.000 F 
ENDBRANCH  25  27
ENDBRANCH  23  25
ENDBRANCH   1  23
TORSDOF 6
ENDMDL
MODEL 3
REMARK VINA RESULT:      -5.9     21.403     23.692
REMARK  Name = Cdk12_Inhibitor.pdbqt.pdb
REMARK  6 active torsions:
REMARK  status: ('A' for Active; 'I' for Inactive)
REMARK    1  A    between atoms: N_1  and  C_23
REMARK    2  A    between atoms: N_9  and  C_11
REMARK    3  A    between atoms: C_14  and  S_17
REMARK    4  A    between atoms: S_17  and  N_20
REMARK    5  A    between atoms: C_23  and  N_25
REMARK    6  A    between atoms: N_25  and  C_27
REMARK                            x       y       z     vdW  Elec       q    Type
REMARK                         _______ _______ _______ _____ _____    ______ ____
ROOT
ATOM      1  N   UNL     1     -21.143   8.154  -2.103  0.00  0.00    +0.000 N 
ATOM      2  N   UNL     1     -21.896   7.812  -1.025  0.00  0.00    +0.000 NA
ATOM      3  N   UNL     1     -22.836   6.982  -2.916  0.00  0.00    +0.000 NA
ATOM      4  N   UNL     1     -21.383   7.921  -4.526  0.00  0.00    +0.000 N 
ATOM      5  C   UNL     1     -22.876   7.085  -1.556  0.00  0.00    +0.000 A 
ATOM      6  C   UNL     1     -21.785   7.684  -3.252  0.00  0.00    +0.000 A 
ATOM      7  H   UNL     1     -21.156   8.889  -4.758  0.00  0.00    +0.000 HD
ATOM      8  H   UNL     1     -22.046   7.565  -5.216  0.00  0.00    +0.000 HD
ATOM      9  N   UNL     1     -23.893   6.460  -0.939  0.00  0.00    +0.000 N 
ATOM     10  H   UNL     1     -24.528   5.958  -1.546  0.00  0.00    +0.000 HD
ENDROOT
BRANCH   9  11
ATOM     11  C   UNL     1     -24.207   6.368   0.429  0.00  0.00    +0.000 A 
ATOM     12  C   UNL     1     -23.936   5.173   1.110  0.00  0.00    +0.000 A 
ATOM     13  C   UNL     1     -24.242   5.026   2.460  0.00  0.00    +0.000 A 
ATOM     14  C   UNL     1     -24.841   6.083   3.134  0.00  0.00    +0.000 A 
ATOM     15  C   UNL     1     -25.105   7.288   2.496  0.00  0.00    +0.000 A 
ATOM     16  C   UNL     1     -24.795   7.417   1.145  0.00  0.00    +0.000 A 
BRANCH  14  17
ATOM     17  S   UNL     1     -25.171   5.934   4.843  0.00  0.00    +0.000 S 
ATOM     18  O   UNL     1     -25.104   7.240   5.457  0.00  0.00    +0.000 OA
ATOM     19  O   UNL     1     -26.293   5.049   5.040  0.00  0.00    +0.000 OA
BRANCH  17  20
ATOM     20  N   UNL     1     -23.819   5.104   5.398  0.00  0.00    +0.000 NA
ATOM     21  H   UNL     1     -23.847   5.045   6.416  0.00  0.00    +0.000 HD
ATOM     22  H   UNL     1     -23.759   4.197   4.934  0.00  0.00    +0.000 HD
ENDBRANCH  17  20
ENDBRANCH  14  17
ENDBRANCH   9  11
BRANCH   1  23
ATOM     23  C   UNL     1     -19.914   8.857  -1.938  0.00  0.00    +0.000 C 
ATOM     24  S   UNL     1     -19.528  10.312  -2.698  0.00  0.00    +0.000 S 
BRANCH  23  25
ATOM     25  N   UNL     1     -19.142   8.226  -0.955  0.00  0.00    +0.000 N 
ATOM     26  H   UNL     1     -19.634   7.542  -0.370  0.00  0.00    +0.000 HD
BRANCH  25  27
ATOM     27  C   UNL     1     -17.848   8.555  -0.470  0.00  0.00    +0.000 A 
ATOM     28  C   UNL     1     -17.765   9.064   0.832  0.00  0.00    +0.000 A 
ATOM     29  F   UNL     1     -18.891   9.229   1.544  0.00  0.00    +0.000 F 
ATOM     30  C   UNL     1     -16.547   9.412   1.408  0.00  0.00    +0.000 A 
ATOM     31  C   UNL     1     -15.373   9.230   0.686  0.00  0.00    +0.000 A 
ATOM     32  C   UNL     1     -15.421   8.664  -0.584  0.00  0.00    +0.000 A 
ATOM     33  C   UNL     1     -16.650   8.322  -1.151  0.00  0.00    +0.000 A 
ATOM     34  F   UNL     1     -16.632   7.619  -2.292  0.00  0.00    +0.000 F 
ENDBRANCH  25  27
ENDBRANCH  23  25
ENDBRANCH   1  23
TORSDOF 6
ENDMDL
MODEL 4
REMARK VINA RESULT:      -5.8     20.627     22.660
REMARK  Name = Cdk12_Inhibitor.pdbqt.pdb
REMARK  6 active torsions:
REMARK  status: ('A' for Active; 'I' for Inactive)
REMARK    1  A    between atoms: N_1  and  C_23
REMARK    2  A    between atoms: N_9  and  C_11
REMARK    3  A    between atoms: C_14  and  S_17
REMARK    4  A    between atoms: S_17  and  N_20
REMARK    5  A    between atoms: C_23  and  N_25
REMARK    6  A    between atoms: N_25  and  C_27
REMARK                            x       y       z     vdW  Elec       q    Type
REMARK                         _______ _______ _______ _____ _____    ______ ____
ROOT
ATOM      1  N   UNL     1     -15.632   4.571  -2.423  0.00  0.00    +0.000 N 
ATOM      2  N   UNL     1     -14.602   3.893  -1.853  0.00  0.00    +0.000 NA
ATOM      3  N   UNL     1     -16.393   2.520  -2.082  0.00  0.00    +0.000 NA
ATOM      4  N   UNL     1     -17.978   4.068  -2.906  0.00  0.00    +0.000 N 
ATOM      5  C   UNL     1     -15.092   2.667  -1.699  0.00  0.00    +0.000 A 
ATOM      6  C   UNL     1     -16.736   3.715  -2.488  0.00  0.00    +0.000 A 
ATOM      7  H   UNL     1     -18.363   4.926  -2.509  0.00  0.00    +0.000 HD
ATOM      8  H   UNL     1     -18.657   3.316  -2.786  0.00  0.00    +0.000 HD
ATOM      9  N   UNL     1     -14.486   1.571  -1.210  0.00  0.00    +0.000 N 
ATOM     10  H   UNL     1     -15.054   0.734  -1.186  0.00  0.00    +0.000 HD
ENDROOT
BRANCH   9  11
ATOM     11  C   UNL     1     -13.171   1.391  -0.746  0.00  0.00    +0.000 A 
ATOM     12  C   UNL     1     -12.105   1.881  -1.513  0.00  0.00    +0.000 A 
ATOM     13  C   UNL     1     -10.785   1.714  -1.104  0.00  0.00    +0.000 A 
ATOM     14  C   UNL     1     -10.526   1.034   0.078  0.00  0.00    +0.000 A 
ATOM     15  C   UNL     1     -11.558   0.553   0.874  0.00  0.00    +0.000 A 
ATOM     16  C   UNL     1     -12.873   0.726   0.450  0.00  0.00    +0.000 A 
BRANCH  14  17
ATOM     17  S   UNL     1      -8.878   0.875   0.634  0.00  0.00    +0.000 S 
ATOM     18  O   UNL     1      -8.025   0.558  -0.488  0.00  0.00    +0.000 OA
ATOM     19  O   UNL     1      -8.574   1.948   1.550  0.00  0.00    +0.000 OA
BRANCH  17  20
ATOM     20  N   UNL     1      -8.945  -0.525   1.560  0.00  0.00    +0.000 NA
ATOM     21  H   UNL     1      -7.999  -0.833   1.786  0.00  0.00    +0.000 HD
ATOM     22  H   UNL     1      -9.534  -0.366   2.379  0.00  0.00    +0.000 HD
ENDBRANCH  17  20
ENDBRANCH  14  17
ENDBRANCH   9  11
BRANCH   1  23
ATOM     23  C   UNL     1     -15.467   5.919  -2.855  0.00  0.00    +0.000 C 
ATOM     24  S   UNL     1     -14.403   6.419  -4.065  0.00  0.00    +0.000 S 
BRANCH  23  25
ATOM     25  N   UNL     1     -16.412   6.733  -2.218  0.00  0.00    +0.000 N 
ATOM     26  H   UNL     1     -17.312   6.834  -2.699  0.00  0.00    +0.000 HD
BRANCH  25  27
ATOM     27  C   UNL     1     -16.244   7.644  -1.141  0.00  0.00    +0.000 A 
ATOM     28  C   UNL     1     -16.905   7.346   0.056  0.00  0.00    +0.000 A 
ATOM     29  F   UNL     1     -17.666   6.242   0.127  0.00  0.00    +0.000 F 
ATOM     30  C   UNL     1     -16.804   8.166   1.176  0.00  0.00    +0.000 A 
ATOM     31  C   UNL     1     -16.005   9.303   1.119  0.00  0.00    +0.000 A 
ATOM     32  C   UNL     1     -15.284   9.586  -0.037  0.00  0.00    +0.000 A 
ATOM     33  C   UNL     1     -15.399   8.757  -1.153  0.00  0.00    +0.000 A 
ATOM     34  F   UNL     1     -14.553   8.968  -2.171  0.00  0.00    +0.000 F 
ENDBRANCH  25  27
ENDBRANCH  23  25
ENDBRANCH   1  23
TORSDOF 6
ENDMDL
MODEL 5
REMARK VINA RESULT:      -5.8     22.116     24.240
REMARK  Name = Cdk12_Inhibitor.pdbqt.pdb
REMARK  6 active torsions:
REMARK  status: ('A' for Active; 'I' for Inactive)
REMARK    1  A    between atoms: N_1  and  C_23
REMARK    2  A    between atoms: N_9  and  C_11
REMARK    3  A    between atoms: C_14  and  S_17
REMARK    4  A    between atoms: S_17  and  N_20
REMARK    5  A    between atoms: C_23  and  N_25
REMARK    6  A    between atoms: N_25  and  C_27
REMARK                            x       y       z     vdW  Elec       q    Type
REMARK                         _______ _______ _______ _____ _____    ______ ____
ROOT
ATOM      1  N   UNL     1     -17.799   7.732  -2.789  0.00  0.00    +0.000 N 
ATOM      2  N   UNL     1     -16.633   7.060  -2.977  0.00  0.00    +0.000 NA
ATOM      3  N   UNL     1     -18.218   5.644  -2.184  0.00  0.00    +0.000 NA
ATOM      4  N   UNL     1     -19.977   7.180  -1.821  0.00  0.00    +0.000 N 
ATOM      5  C   UNL     1     -16.942   5.813  -2.636  0.00  0.00    +0.000 A 
ATOM      6  C   UNL     1     -18.730   6.846  -2.239  0.00  0.00    +0.000 A 
ATOM      7  H   UNL     1     -20.050   8.005  -1.224  0.00  0.00    +0.000 HD
ATOM      8  H   UNL     1     -20.457   6.402  -1.367  0.00  0.00    +0.000 HD
ATOM      9  N   UNL     1     -16.168   4.714  -2.664  0.00  0.00    +0.000 N 
ATOM     10  H   UNL     1     -16.615   3.859  -2.358  0.00  0.00    +0.000 HD
ENDROOT
BRANCH   9  11
ATOM     11  C   UNL     1     -14.834   4.553  -3.078  0.00  0.00    +0.000 A 
ATOM     12  C   UNL     1     -13.851   4.280  -2.117  0.00  0.00    +0.000 A 
ATOM     13  C   UNL     1     -12.514   4.126  -2.475  0.00  0.00    +0.000 A 
ATOM     14  C   UNL     1     -12.154   4.264  -3.808  0.00  0.00    +0.000 A 
ATOM     15  C   UNL     1     -13.104   4.515  -4.790  0.00  0.00    +0.000 A 
ATOM     16  C   UNL     1     -14.436   4.668  -4.415  0.00  0.00    +0.000 A 
BRANCH  14  17
ATOM     17  S   UNL     1     -10.490   4.010  -4.278  0.00  0.00    +0.000 S 
ATOM     18  O   UNL     1     -10.452   3.418  -5.596  0.00  0.00    +0.000 OA
ATOM     19  O   UNL     1      -9.712   5.177  -3.939  0.00  0.00    +0.000 OA
BRANCH  17  20
ATOM     20  N   UNL     1     -10.000   2.799  -3.223  0.00  0.00    +0.000 NA
ATOM     21  H   UNL     1      -9.514   3.212  -2.427  0.00  0.00    +0.000 HD
ATOM     22  H   UNL     1     -10.804   2.225  -2.963  0.00  0.00    +0.000 HD
ENDBRANCH  17  20
ENDBRANCH  14  17
ENDBRANCH   9  11
BRANCH   1  23
ATOM     23  C   UNL     1     -17.916   9.105  -3.155  0.00  0.00    +0.000 C 
ATOM     24  S   UNL     1     -18.211   9.662  -4.720  0.00  0.00    +0.000 S 
BRANCH  23  25
ATOM     25  N   UNL     1     -17.883   9.901  -2.004  0.00  0.00    +0.000 N 
ATOM     26  H   UNL     1     -18.211  10.866  -2.118  0.00  0.00    +0.000 HD
BRANCH  25  27
ATOM     27  C   UNL     1     -17.237   9.668  -0.761  0.00  0.00    +0.000 A 
ATOM     28  C   UNL     1     -15.875   9.981  -0.680  0.00  0.00    +0.000 A 
ATOM     29  F   UNL     1     -15.248  10.464  -1.764  0.00  0.00    +0.000 F 
ATOM     30  C   UNL     1     -15.147   9.799   0.493  0.00  0.00    +0.000 A 
ATOM     31  C   UNL     1     -15.790   9.315   1.627  0.00  0.00    +0.000 A 
ATOM     32  C   UNL     1     -17.158   9.059   1.592  0.00  0.00    +0.000 A 
ATOM     33  C   UNL     1     -17.873   9.244   0.409  0.00  0.00    +0.000 A 
ATOM     34  F   UNL     1     -19.210   9.158   0.474  0.00  0.00    +0.000 F 
ENDBRANCH  25  27
ENDBRANCH  23  25
ENDBRANCH   1  23
TORSDOF 6
ENDMDL
MODEL 6
REMARK VINA RESULT:      -5.8     22.434     24.793
REMARK  Name = Cdk12_Inhibitor.pdbqt.pdb
REMARK  6 active torsions:
REMARK  status: ('A' for Active; 'I' for Inactive)
REMARK    1  A    between atoms: N_1  and  C_23
REMARK    2  A    between atoms: N_9  and  C_11
REMARK    3  A    between atoms: C_14  and  S_17
REMARK    4  A    between atoms: S_17  and  N_20
REMARK    5  A    between atoms: C_23  and  N_25
REMARK    6  A    between atoms: N_25  and  C_27
REMARK                            x       y       z     vdW  Elec       q    Type
REMARK                         _______ _______ _______ _____ _____    ______ ____
ROOT
ATOM      1  N   UNL     1     -15.336   5.224  -2.082  0.00  0.00    +0.000 N 
ATOM      2  N   UNL     1     -14.208   5.326  -2.832  0.00  0.00    +0.000 NA
ATOM      3  N   UNL     1     -14.726   3.141  -2.516  0.00  0.00    +0.000 NA
ATOM      4  N   UNL     1     -16.573   3.377  -1.060  0.00  0.00    +0.000 N 
ATOM      5  C   UNL     1     -13.901   4.059  -3.095  0.00  0.00    +0.000 A 
ATOM      6  C   UNL     1     -15.587   3.868  -1.853  0.00  0.00    +0.000 A 
ATOM      7  H   UNL     1     -16.662   3.797  -0.134  0.00  0.00    +0.000 HD
ATOM      8  H   UNL     1     -16.521   2.363  -0.958  0.00  0.00    +0.000 HD
ATOM      9  N   UNL     1     -12.889   3.572  -3.835  0.00  0.00    +0.000 N 
ATOM     10  H   UNL     1     -12.847   2.563  -3.902  0.00  0.00    +0.000 HD
ENDROOT
BRANCH   9  11
ATOM     11  C   UNL     1     -11.887   4.243  -4.558  0.00  0.00    +0.000 A 
ATOM     12  C   UNL     1     -12.164   4.677  -5.861  0.00  0.00    +0.000 A 
ATOM     13  C   UNL     1     -11.200   5.332  -6.624  0.00  0.00    +0.000 A 
ATOM     14  C   UNL     1      -9.940   5.541  -6.081  0.00  0.00    +0.000 A 
ATOM     15  C   UNL     1      -9.637   5.142  -4.785  0.00  0.00    +0.000 A 
ATOM     16  C   UNL     1     -10.610   4.486  -4.038  0.00  0.00    +0.000 A 
BRANCH  14  17
ATOM     17  S   UNL     1      -8.743   6.418  -7.004  0.00  0.00    +0.000 S 
ATOM     18  O   UNL     1      -8.677   5.874  -8.340  0.00  0.00    +0.000 OA
ATOM     19  O   UNL     1      -8.889   7.833  -6.758  0.00  0.00    +0.000 OA
BRANCH  17  20
ATOM     20  N   UNL     1      -7.309   5.961  -6.258  0.00  0.00    +0.000 NA
ATOM     21  H   UNL     1      -7.476   5.793  -5.266  0.00  0.00    +0.000 HD
ATOM     22  H   UNL     1      -6.907   5.161  -6.749  0.00  0.00    +0.000 HD
ENDBRANCH  17  20
ENDBRANCH  14  17
ENDBRANCH   9  11
BRANCH   1  23
ATOM     23  C   UNL     1     -16.054   6.389  -1.684  0.00  0.00    +0.000 C 
ATOM     24  S   UNL     1     -17.719   6.601  -1.857  0.00  0.00    +0.000 S 
BRANCH  23  25
ATOM     25  N   UNL     1     -15.191   7.264  -1.012  0.00  0.00    +0.000 N 
ATOM     26  H   UNL     1     -14.704   6.874  -0.198  0.00  0.00    +0.000 HD
BRANCH  25  27
ATOM     27  C   UNL     1     -15.065   8.674  -1.121  0.00  0.00    +0.000 A 
ATOM     28  C   UNL     1     -14.921   9.205  -2.408  0.00  0.00    +0.000 A 
ATOM     29  F   UNL     1     -14.893   8.372  -3.461  0.00  0.00    +0.000 F 
ATOM     30  C   UNL     1     -14.797  10.574  -2.629  0.00  0.00    +0.000 A 
ATOM     31  C   UNL     1     -14.841  11.446  -1.548  0.00  0.00    +0.000 A 
ATOM     32  C   UNL     1     -15.051  10.950  -0.265  0.00  0.00    +0.000 A 
ATOM     33  C   UNL     1     -15.170   9.575  -0.058  0.00  0.00    +0.000 A 
ATOM     34  F   UNL     1     -15.548   9.163   1.160  0.00  0.00    +0.000 F 
ENDBRANCH  25  27
ENDBRANCH  23  25
ENDBRANCH   1  23
TORSDOF 6
ENDMDL
MODEL 7
REMARK VINA RESULT:      -5.7     18.864     20.060
REMARK  Name = Cdk12_Inhibitor.pdbqt.pdb
REMARK  6 active torsions:
REMARK  status: ('A' for Active; 'I' for Inactive)
REMARK    1  A    between atoms: N_1  and  C_23
REMARK    2  A    between atoms: N_9  and  C_11
REMARK    3  A    between atoms: C_14  and  S_17
REMARK    4  A    between atoms: S_17  and  N_20
REMARK    5  A    between atoms: C_23  and  N_25
REMARK    6  A    between atoms: N_25  and  C_27
REMARK                            x       y       z     vdW  Elec       q    Type
REMARK                         _______ _______ _______ _____ _____    ______ ____
ROOT
ATOM      1  N   UNL     1     -23.945  10.737   6.056  0.00  0.00    +0.000 N 
ATOM      2  N   UNL     1     -23.699  11.755   6.922  0.00  0.00    +0.000 NA
ATOM      3  N   UNL     1     -23.067   9.786   7.852  0.00  0.00    +0.000 NA
ATOM      4  N   UNL     1     -23.806   8.297   6.171  0.00  0.00    +0.000 N 
ATOM      5  C   UNL     1     -23.145  11.143   7.964  0.00  0.00    +0.000 A 
ATOM      6  C   UNL     1     -23.605   9.536   6.687  0.00  0.00    +0.000 A 
ATOM      7  H   UNL     1     -24.732   8.111   5.784  0.00  0.00    +0.000 HD
ATOM      8  H   UNL     1     -23.571   7.558   6.835  0.00  0.00    +0.000 HD
ATOM      9  N   UNL     1     -22.670  11.677   9.102  0.00  0.00    +0.000 N 
ATOM     10  H   UNL     1     -22.286  11.017   9.765  0.00  0.00    +0.000 HD
ENDROOT
BRANCH   9  11
ATOM     11  C   UNL     1     -22.597  13.020   9.514  0.00  0.00    +0.000 A 
ATOM     12  C   UNL     1     -23.425  13.458  10.557  0.00  0.00    +0.000 A 
ATOM     13  C   UNL     1     -23.400  14.780  10.992  0.00  0.00    +0.000 A 
ATOM     14  C   UNL     1     -22.548  15.680  10.364  0.00  0.00    +0.000 A 
ATOM     15  C   UNL     1     -21.700  15.276   9.341  0.00  0.00    +0.000 A 
ATOM     16  C   UNL     1     -21.739  13.951   8.917  0.00  0.00    +0.000 A 
BRANCH  14  17
ATOM     17  S   UNL     1     -22.462  17.326  10.943  0.00  0.00    +0.000 S 
ATOM     18  O   UNL     1     -21.916  18.169   9.903  0.00  0.00    +0.000 OA
ATOM     19  O   UNL     1     -23.683  17.656  11.636  0.00  0.00    +0.000 OA
BRANCH  17  20
ATOM     20  N   UNL     1     -21.268  17.230  12.120  0.00  0.00    +0.000 NA
ATOM     21  H   UNL     1     -21.200  16.272  12.463  0.00  0.00    +0.000 HD
ATOM     22  H   UNL     1     -20.391  17.598  11.750  0.00  0.00    +0.000 HD
ENDBRANCH  17  20
ENDBRANCH  14  17
ENDBRANCH   9  11
BRANCH   1  23
ATOM     23  C   UNL     1     -24.446  10.998   4.747  0.00  0.00    +0.000 C 
ATOM     24  S   UNL     1     -26.081  11.065   4.338  0.00  0.00    +0.000 S 
BRANCH  23  25
ATOM     25  N   UNL     1     -23.383  11.319   3.895  0.00  0.00    +0.000 N 
ATOM     26  H   UNL     1     -22.569  10.696   3.939  0.00  0.00    +0.000 HD
BRANCH  25  27
ATOM     27  C   UNL     1     -23.141  12.509   3.157  0.00  0.00    +0.000 A 
ATOM     28  C   UNL     1     -23.463  12.492   1.795  0.00  0.00    +0.000 A 
ATOM     29  F   UNL     1     -23.964  11.370   1.253  0.00  0.00    +0.000 F 
ATOM     30  C   UNL     1     -23.273  13.605   0.981  0.00  0.00    +0.000 A 
ATOM     31  C   UNL     1     -22.771  14.778   1.534  0.00  0.00    +0.000 A 
ATOM     32  C   UNL     1     -22.505  14.842   2.899  0.00  0.00    +0.000 A 
ATOM     33  C   UNL     1     -22.697  13.716   3.702  0.00  0.00    +0.000 A 
ATOM     34  F   UNL     1     -22.600  13.880   5.029  0.00  0.00    +0.000 F 
ENDBRANCH  25  27
ENDBRANCH  23  25
ENDBRANCH   1  23
TORSDOF 6
ENDMDL
MODEL 8
REMARK VINA RESULT:      -5.7      4.574      7.355
REMARK  Name = Cdk12_Inhibitor.pdbqt.pdb
REMARK  6 active torsions:
REMARK  status: ('A' for Active; 'I' for Inactive)
REMARK    1  A    between atoms: N_1  and  C_23
REMARK    2  A    between atoms: N_9  and  C_11
REMARK    3  A    between atoms: C_14  and  S_17
REMARK    4  A    between atoms: S_17  and  N_20
REMARK    5  A    between atoms: C_23  and  N_25
REMARK    6  A    between atoms: N_25  and  C_27
REMARK                            x       y       z     vdW  Elec       q    Type
REMARK                         _______ _______ _______ _____ _____    ______ ____
ROOT
ATOM      1  N   UNL     1     -11.045   6.046  21.356  0.00  0.00    +0.000 N 
ATOM      2  N   UNL     1     -11.281   4.719  21.183  0.00  0.00    +0.000 NA
ATOM      3  N   UNL     1     -12.720   5.562  22.720  0.00  0.00    +0.000 NA
ATOM      4  N   UNL     1     -11.890   7.770  22.872  0.00  0.00    +0.000 N 
ATOM      5  C   UNL     1     -12.310   4.484  21.991  0.00  0.00    +0.000 A 
ATOM      6  C   UNL     1     -11.903   6.516  22.355  0.00  0.00    +0.000 A 
ATOM      7  H   UNL     1     -10.979   8.139  23.147  0.00  0.00    +0.000 HD
ATOM      8  H   UNL     1     -12.537   7.875  23.655  0.00  0.00    +0.000 HD
ATOM      9  N   UNL     1     -12.981   3.337  22.192  0.00  0.00    +0.000 N 
ATOM     10  H   UNL     1     -13.740   3.388  22.860  0.00  0.00    +0.000 HD
ENDROOT
BRANCH   9  11
ATOM     11  C   UNL     1     -12.815   2.072  21.601  0.00  0.00    +0.000 A 
ATOM     12  C   UNL     1     -13.383   1.829  20.343  0.00  0.00    +0.000 A 
ATOM     13  C   UNL     1     -13.260   0.588  19.723  0.00  0.00    +0.000 A 
ATOM     14  C   UNL     1     -12.574  -0.426  20.377  0.00  0.00    +0.000 A 
ATOM     15  C   UNL     1     -11.981  -0.215  21.615  0.00  0.00    +0.000 A 
ATOM     16  C   UNL     1     -12.116   1.030  22.223  0.00  0.00    +0.000 A 
BRANCH  14  17
ATOM     17  S   UNL     1     -12.357  -1.967  19.581  0.00  0.00    +0.000 S 
ATOM     18  O   UNL     1     -11.126  -1.944  18.825  0.00  0.00    +0.000 OA
ATOM     19  O   UNL     1     -12.671  -3.031  20.503  0.00  0.00    +0.000 OA
BRANCH  17  20
ATOM     20  N   UNL     1     -13.589  -1.958  18.440  0.00  0.00    +0.000 NA
ATOM     21  H   UNL     1     -13.679  -2.884  18.023  0.00  0.00    +0.000 HD
ATOM     22  H   UNL     1     -14.450  -1.613  18.868  0.00  0.00    +0.000 HD
ENDBRANCH  17  20
ENDBRANCH  14  17
ENDBRANCH   9  11
BRANCH   1  23
ATOM     23  C   UNL     1     -10.069   6.721  20.567  0.00  0.00    +0.000 C 
ATOM     24  S   UNL     1      -8.485   7.035  21.056  0.00  0.00    +0.000 S 
BRANCH  23  25
ATOM     25  N   UNL     1     -10.585   6.960  19.288  0.00  0.00    +0.000 N 
ATOM     26  H   UNL     1     -11.509   7.404  19.254  0.00  0.00    +0.000 HD
BRANCH  25  27
ATOM     27  C   UNL     1     -10.152   6.465  18.029  0.00  0.00    +0.000 A 
ATOM     28  C   UNL     1     -10.805   5.332  17.530  0.00  0.00    +0.000 A 
ATOM     29  F   UNL     1     -11.782   4.765  18.255  0.00  0.00    +0.000 F 
ATOM     30  C   UNL     1     -10.465   4.768  16.303  0.00  0.00    +0.000 A 
ATOM     31  C   UNL     1      -9.465   5.356  15.536  0.00  0.00    +0.000 A 
ATOM     32  C   UNL     1      -8.847   6.521  15.978  0.00  0.00    +0.000 A 
ATOM     33  C   UNL     1      -9.196   7.073  17.211  0.00  0.00    +0.000 A 
ATOM     34  F   UNL     1      -8.707   8.285  17.508  0.00  0.00    +0.000 F 
ENDBRANCH  25  27
ENDBRANCH  23  25
ENDBRANCH   1  23
TORSDOF 6
ENDMDL
MODEL 9
REMARK VINA RESULT:      -5.6      7.383     10.197
REMARK  Name = Cdk12_Inhibitor.pdbqt.pdb
REMARK  6 active torsions:
REMARK  status: ('A' for Active; 'I' for Inactive)
REMARK    1  A    between atoms: N_1  and  C_23
REMARK    2  A    between atoms: N_9  and  C_11
REMARK    3  A    between atoms: C_14  and  S_17
REMARK    4  A    between atoms: S_17  and  N_20
REMARK    5  A    between atoms: C_23  and  N_25
REMARK    6  A    between atoms: N_25  and  C_27
REMARK                            x       y       z     vdW  Elec       q    Type
REMARK                         _______ _______ _______ _____ _____    ______ ____
ROOT
ATOM      1  N   UNL     1      -3.939  -0.377  15.168  0.00  0.00    +0.000 N 
ATOM      2  N   UNL     1      -4.903   0.544  15.427  0.00  0.00    +0.000 NA
ATOM      3  N   UNL     1      -2.864   1.408  15.915  0.00  0.00    +0.000 NA
ATOM      4  N   UNL     1      -1.521  -0.497  15.522  0.00  0.00    +0.000 N 
ATOM      5  C   UNL     1      -4.211   1.603  15.838  0.00  0.00    +0.000 A 
ATOM      6  C   UNL     1      -2.705   0.165  15.541  0.00  0.00    +0.000 A 
ATOM      7  H   UNL     1      -1.513  -1.425  15.947  0.00  0.00    +0.000 HD
ATOM      8  H   UNL     1      -0.761   0.055  15.922  0.00  0.00    +0.000 HD
ATOM      9  N   UNL     1      -4.661   2.818  16.195  0.00  0.00    +0.000 N 
ATOM     10  H   UNL     1      -3.949   3.480  16.475  0.00  0.00    +0.000 HD
ENDROOT
BRANCH   9  11
ATOM     11  C   UNL     1      -5.970   3.332  16.218  0.00  0.00    +0.000 A 
ATOM     12  C   UNL     1      -6.825   2.971  17.268  0.00  0.00    +0.000 A 
ATOM     13  C   UNL     1      -8.134   3.442  17.328  0.00  0.00    +0.000 A 
ATOM     14  C   UNL     1      -8.599   4.270  16.316  0.00  0.00    +0.000 A 
ATOM     15  C   UNL     1      -7.773   4.664  15.270  0.00  0.00    +0.000 A 
ATOM     16  C   UNL     1      -6.468   4.183  15.224  0.00  0.00    +0.000 A 
BRANCH  14  17
ATOM     17  S   UNL     1     -10.218   4.919  16.413  0.00  0.00    +0.000 S 
ATOM     18  O   UNL     1     -10.171   6.230  17.016  0.00  0.00    +0.000 OA
ATOM     19  O   UNL     1     -10.910   4.669  15.172  0.00  0.00    +0.000 OA
BRANCH  17  20
ATOM     20  N   UNL     1     -10.936   3.920  17.557  0.00  0.00    +0.000 NA
ATOM     21  H   UNL     1     -10.608   4.174  18.489  0.00  0.00    +0.000 HD
ATOM     22  H   UNL     1     -11.951   3.954  17.453  0.00  0.00    +0.000 HD
ENDBRANCH  17  20
ENDBRANCH  14  17
ENDBRANCH   9  11
BRANCH   1  23
ATOM     23  C   UNL     1      -4.271  -1.637  14.591  0.00  0.00    +0.000 C 
ATOM     24  S   UNL     1      -4.098  -3.126  15.365  0.00  0.00    +0.000 S 
BRANCH  23  25
ATOM     25  N   UNL     1      -4.882  -1.436  13.347  0.00  0.00    +0.000 N 
ATOM     26  H   UNL     1      -4.546  -0.630  12.809  0.00  0.00    +0.000 HD
BRANCH  25  27
ATOM     27  C   UNL     1      -6.063  -2.017  12.813  0.00  0.00    +0.000 A 
ATOM     28  C   UNL     1      -5.999  -2.506  11.503  0.00  0.00    +0.000 A 
ATOM     29  F   UNL     1      -4.850  -2.394  10.817  0.00  0.00    +0.000 F 
ATOM     30  C   UNL     1      -7.095  -3.101  10.886  0.00  0.00    +0.000 A 
ATOM     31  C   UNL     1      -8.285  -3.237  11.592  0.00  0.00    +0.000 A 
ATOM     32  C   UNL     1      -8.356  -2.819  12.918  0.00  0.00    +0.000 A 
ATOM     33  C   UNL     1      -7.249  -2.222  13.522  0.00  0.00    +0.000 A 
ATOM     34  F   UNL     1      -7.309  -2.003  14.844  0.00  0.00    +0.000 F 
ENDBRANCH  25  27
ENDBRANCH  23  25
ENDBRANCH   1  23
TORSDOF 6
ENDMDL
