MODEL 1
REMARK VINA RESULT:      -6.6      0.000      0.000
REMARK  Name = CHEMBL35349.pdbqt.pdb
REMARK  2 active torsions:
REMARK  status: ('A' for Active; 'I' for Inactive)
REMARK    1  A    between atoms: C_2  and  C_11
REMARK    2  A    between atoms: C_5  and  O_21
REMARK                            x       y       z     vdW  Elec       q    Type
REMARK                         _______ _______ _______ _____ _____    ______ ____
ROOT
ATOM      1  N   UNL     1     -17.881   6.718  -0.226  0.00  0.00    +0.000 N 
ATOM      2  C   UNL     1     -16.195   6.881  -1.680  0.00  0.00    +0.000 A 
ATOM      3  C   UNL     1     -15.991   7.819  -0.610  0.00  0.00    +0.000 A 
ATOM      4  C   UNL     1     -17.059   7.692   0.277  0.00  0.00    +0.000 A 
ATOM      5  C   UNL     1     -17.381   6.219  -1.399  0.00  0.00    +0.000 A 
ATOM      6  C   UNL     1     -14.993   8.769  -0.315  0.00  0.00    +0.000 A 
ATOM      7  C   UNL     1     -17.186   8.459   1.440  0.00  0.00    +0.000 A 
ATOM      8  C   UNL     1     -15.098   9.545   0.841  0.00  0.00    +0.000 A 
ATOM      9  C   UNL     1     -16.179   9.389   1.701  0.00  0.00    +0.000 A 
ATOM     10  H   UNL     1     -18.741   6.401   0.198  0.00  0.00    +0.000 HD
ENDROOT
BRANCH   2  11
ATOM     11  C   UNL     1     -15.334   6.668  -2.822  0.00  0.00    +0.000 C 
ATOM     12  N   UNL     1     -15.277   7.508  -3.824  0.00  0.00    +0.000 NA
ATOM     13  C   UNL     1     -14.343   6.977  -4.736  0.00  0.00    +0.000 A 
ATOM     14  C   UNL     1     -13.777   5.772  -4.329  0.00  0.00    +0.000 A 
ATOM     15  C   UNL     1     -13.963   7.532  -5.943  0.00  0.00    +0.000 A 
ATOM     16  C   UNL     1     -14.390   5.491  -3.046  0.00  0.00    +0.000 C 
ATOM     17  C   UNL     1     -12.841   5.070  -5.056  0.00  0.00    +0.000 A 
ATOM     18  O   UNL     1     -14.218   4.553  -2.303  0.00  0.00    +0.000 OA
ATOM     19  C   UNL     1     -12.462   5.633  -6.273  0.00  0.00    +0.000 A 
ATOM     20  C   UNL     1     -13.015   6.849  -6.712  0.00  0.00    +0.000 A 
ENDBRANCH   2  11
BRANCH   5  21
ATOM     21  O   UNL     1     -18.076   5.262  -2.004  0.00  0.00    +0.000 OA
ATOM     22  H   UNL     1     -18.351   5.559  -2.902  0.00  0.00    +0.000 HD
ENDBRANCH   5  21
TORSDOF 2
ENDMDL
MODEL 2
REMARK VINA RESULT:      -5.5     19.637     22.102
REMARK  Name = CHEMBL35349.pdbqt.pdb
REMARK  2 active torsions:
REMARK  status: ('A' for Active; 'I' for Inactive)
REMARK    1  A    between atoms: C_2  and  C_11
REMARK    2  A    between atoms: C_5  and  O_21
REMARK                            x       y       z     vdW  Elec       q    Type
REMARK                         _______ _______ _______ _____ _____    ______ ____
ROOT
ATOM      1  N   UNL     1      -7.769   4.790  15.145  0.00  0.00    +0.000 N 
ATOM      2  C   UNL     1      -9.035   4.317  16.923  0.00  0.00    +0.000 A 
ATOM      3  C   UNL     1      -8.028   3.301  16.773  0.00  0.00    +0.000 A 
ATOM      4  C   UNL     1      -7.259   3.626  15.657  0.00  0.00    +0.000 A 
ATOM      5  C   UNL     1      -8.835   5.221  15.889  0.00  0.00    +0.000 A 
ATOM      6  C   UNL     1      -7.702   2.130  17.486  0.00  0.00    +0.000 A 
ATOM      7  C   UNL     1      -6.182   2.849  15.215  0.00  0.00    +0.000 A 
ATOM      8  C   UNL     1      -6.631   1.340  17.063  0.00  0.00    +0.000 A 
ATOM      9  C   UNL     1      -5.887   1.698  15.945  0.00  0.00    +0.000 A 
ATOM     10  H   UNL     1      -7.419   5.275  14.332  0.00  0.00    +0.000 HD
ENDROOT
BRANCH   2  11
ATOM     11  C   UNL     1     -10.053   4.383  17.947  0.00  0.00    +0.000 C 
ATOM     12  N   UNL     1     -10.768   3.345  18.293  0.00  0.00    +0.000 NA
ATOM     13  C   UNL     1     -11.644   3.784  19.306  0.00  0.00    +0.000 A 
ATOM     14  C   UNL     1     -11.503   5.131  19.631  0.00  0.00    +0.000 A 
ATOM     15  C   UNL     1     -12.586   3.020  19.970  0.00  0.00    +0.000 A 
ATOM     16  C   UNL     1     -10.450   5.612  18.761  0.00  0.00    +0.000 C 
ATOM     17  C   UNL     1     -12.250   5.780  20.590  0.00  0.00    +0.000 A 
ATOM     18  O   UNL     1      -9.973   6.719  18.672  0.00  0.00    +0.000 OA
ATOM     19  C   UNL     1     -13.198   5.005  21.256  0.00  0.00    +0.000 A 
ATOM     20  C   UNL     1     -13.365   3.643  20.951  0.00  0.00    +0.000 A 
ENDBRANCH   2  11
BRANCH   5  21
ATOM     21  O   UNL     1      -9.434   6.344  15.510  0.00  0.00    +0.000 OA
ATOM     22  H   UNL     1      -9.505   6.375  14.529  0.00  0.00    +0.000 HD
ENDBRANCH   5  21
TORSDOF 2
ENDMDL
MODEL 3
REMARK VINA RESULT:      -5.1      1.854      2.512
REMARK  Name = CHEMBL35349.pdbqt.pdb
REMARK  2 active torsions:
REMARK  status: ('A' for Active; 'I' for Inactive)
REMARK    1  A    between atoms: C_2  and  C_11
REMARK    2  A    between atoms: C_5  and  O_21
REMARK                            x       y       z     vdW  Elec       q    Type
REMARK                         _______ _______ _______ _____ _____    ______ ____
ROOT
ATOM      1  N   UNL     1     -17.029   4.664  -1.307  0.00  0.00    +0.000 N 
ATOM      2  C   UNL     1     -15.080   5.072  -2.318  0.00  0.00    +0.000 A 
ATOM      3  C   UNL     1     -15.514   6.257  -1.629  0.00  0.00    +0.000 A 
ATOM      4  C   UNL     1     -16.730   5.969  -1.012  0.00  0.00    +0.000 A 
ATOM      5  C   UNL     1     -16.052   4.108  -2.090  0.00  0.00    +0.000 A 
ATOM      6  C   UNL     1     -14.982   7.553  -1.475  0.00  0.00    +0.000 A 
ATOM      7  C   UNL     1     -17.444   6.900  -0.250  0.00  0.00    +0.000 A 
ATOM      8  C   UNL     1     -15.677   8.499  -0.719  0.00  0.00    +0.000 A 
ATOM      9  C   UNL     1     -16.888   8.173  -0.118  0.00  0.00    +0.000 A 
ATOM     10  H   UNL     1     -17.852   4.168  -0.999  0.00  0.00    +0.000 HD
ENDROOT
BRANCH   2  11
ATOM     11  C   UNL     1     -13.870   4.915  -3.093  0.00  0.00    +0.000 C 
ATOM     12  N   UNL     1     -13.742   5.403  -4.300  0.00  0.00    +0.000 NA
ATOM     13  C   UNL     1     -12.446   5.057  -4.734  0.00  0.00    +0.000 A 
ATOM     14  C   UNL     1     -11.711   4.332  -3.800  0.00  0.00    +0.000 A 
ATOM     15  C   UNL     1     -11.876   5.367  -5.955  0.00  0.00    +0.000 A 
ATOM     16  C   UNL     1     -12.597   4.191  -2.663  0.00  0.00    +0.000 C 
ATOM     17  C   UNL     1     -10.424   3.886  -4.004  0.00  0.00    +0.000 A 
ATOM     18  O   UNL     1     -12.406   3.637  -1.605  0.00  0.00    +0.000 OA
ATOM     19  C   UNL     1      -9.854   4.201  -5.236  0.00  0.00    +0.000 A 
ATOM     20  C   UNL     1     -10.570   4.932  -6.200  0.00  0.00    +0.000 A 
ENDBRANCH   2  11
BRANCH   5  21
ATOM     21  O   UNL     1     -16.207   2.842  -2.457  0.00  0.00    +0.000 OA
ATOM     22  H   UNL     1     -17.085   2.509  -2.163  0.00  0.00    +0.000 HD
ENDBRANCH   5  21
TORSDOF 2
ENDMDL
MODEL 4
REMARK VINA RESULT:      -5.0     20.682     22.163
REMARK  Name = CHEMBL35349.pdbqt.pdb
REMARK  2 active torsions:
REMARK  status: ('A' for Active; 'I' for Inactive)
REMARK    1  A    between atoms: C_2  and  C_11
REMARK    2  A    between atoms: C_5  and  O_21
REMARK                            x       y       z     vdW  Elec       q    Type
REMARK                         _______ _______ _______ _____ _____    ______ ____
ROOT
ATOM      1  N   UNL     1      -0.965   7.498  15.786  0.00  0.00    +0.000 N 
ATOM      2  C   UNL     1      -2.005   5.606  15.215  0.00  0.00    +0.000 A 
ATOM      3  C   UNL     1      -1.096   5.983  14.166  0.00  0.00    +0.000 A 
ATOM      4  C   UNL     1      -0.466   7.164  14.554  0.00  0.00    +0.000 A 
ATOM      5  C   UNL     1      -1.890   6.577  16.200  0.00  0.00    +0.000 A 
ATOM      6  C   UNL     1      -0.752   5.425  12.919  0.00  0.00    +0.000 A 
ATOM      7  C   UNL     1       0.487   7.819  13.766  0.00  0.00    +0.000 A 
ATOM      8  C   UNL     1       0.198   6.061  12.117  0.00  0.00    +0.000 A 
ATOM      9  C   UNL     1       0.805   7.239  12.538  0.00  0.00    +0.000 A 
ATOM     10  H   UNL     1      -0.698   8.308  16.325  0.00  0.00    +0.000 HD
ENDROOT
BRANCH   2  11
ATOM     11  C   UNL     1      -2.867   4.446  15.238  0.00  0.00    +0.000 C 
ATOM     12  N   UNL     1      -2.432   3.254  15.556  0.00  0.00    +0.000 NA
ATOM     13  C   UNL     1      -3.541   2.389  15.470  0.00  0.00    +0.000 A 
ATOM     14  C   UNL     1      -4.723   3.020  15.091  0.00  0.00    +0.000 A 
ATOM     15  C   UNL     1      -3.546   1.029  15.721  0.00  0.00    +0.000 A 
ATOM     16  C   UNL     1      -4.358   4.411  14.914  0.00  0.00    +0.000 C 
ATOM     17  C   UNL     1      -5.932   2.376  14.942  0.00  0.00    +0.000 A 
ATOM     18  O   UNL     1      -5.047   5.349  14.587  0.00  0.00    +0.000 OA
ATOM     19  C   UNL     1      -5.932   1.006  15.195  0.00  0.00    +0.000 A 
ATOM     20  C   UNL     1      -4.755   0.340  15.580  0.00  0.00    +0.000 A 
ENDBRANCH   2  11
BRANCH   5  21
ATOM     21  O   UNL     1      -2.461   6.770  17.383  0.00  0.00    +0.000 OA
ATOM     22  H   UNL     1      -2.353   7.708  17.662  0.00  0.00    +0.000 HD
ENDBRANCH   5  21
TORSDOF 2
ENDMDL
MODEL 5
REMARK VINA RESULT:      -4.6     20.155     22.487
REMARK  Name = CHEMBL35349.pdbqt.pdb
REMARK  2 active torsions:
REMARK  status: ('A' for Active; 'I' for Inactive)
REMARK    1  A    between atoms: C_2  and  C_11
REMARK    2  A    between atoms: C_5  and  O_21
REMARK                            x       y       z     vdW  Elec       q    Type
REMARK                         _______ _______ _______ _____ _____    ______ ____
ROOT
ATOM      1  N   UNL     1      -6.831   3.071  15.250  0.00  0.00    +0.000 N 
ATOM      2  C   UNL     1      -8.104   3.445  17.047  0.00  0.00    +0.000 A 
ATOM      3  C   UNL     1      -7.487   2.151  17.163  0.00  0.00    +0.000 A 
ATOM      4  C   UNL     1      -6.704   1.950  16.028  0.00  0.00    +0.000 A 
ATOM      5  C   UNL     1      -7.667   3.980  15.843  0.00  0.00    +0.000 A 
ATOM      6  C   UNL     1      -7.527   1.129  18.132  0.00  0.00    +0.000 A 
ATOM      7  C   UNL     1      -5.957   0.787  15.807  0.00  0.00    +0.000 A 
ATOM      8  C   UNL     1      -6.789  -0.039  17.934  0.00  0.00    +0.000 A 
ATOM      9  C   UNL     1      -6.019  -0.203  16.788  0.00  0.00    +0.000 A 
ATOM     10  H   UNL     1      -6.379   3.221  14.360  0.00  0.00    +0.000 HD
ENDROOT
BRANCH   2  11
ATOM     11  C   UNL     1      -8.999   4.067  17.996  0.00  0.00    +0.000 C 
ATOM     12  N   UNL     1      -8.808   5.277  18.453  0.00  0.00    +0.000 NA
ATOM     13  C   UNL     1      -9.868   5.539  19.344  0.00  0.00    +0.000 A 
ATOM     14  C   UNL     1     -10.770   4.486  19.475  0.00  0.00    +0.000 A 
ATOM     15  C   UNL     1     -10.073   6.703  20.062  0.00  0.00    +0.000 A 
ATOM     16  C   UNL     1     -10.259   3.452  18.600  0.00  0.00    +0.000 C 
ATOM     17  C   UNL     1     -11.881   4.514  20.288  0.00  0.00    +0.000 A 
ATOM     18  O   UNL     1     -10.700   2.348  18.376  0.00  0.00    +0.000 OA
ATOM     19  C   UNL     1     -12.083   5.689  21.010  0.00  0.00    +0.000 A 
ATOM     20  C   UNL     1     -11.191   6.770  20.900  0.00  0.00    +0.000 A 
ENDBRANCH   2  11
BRANCH   5  21
ATOM     21  O   UNL     1      -7.887   5.121  15.201  0.00  0.00    +0.000 OA
ATOM     22  H   UNL     1      -7.715   5.885  15.798  0.00  0.00    +0.000 HD
ENDBRANCH   5  21
TORSDOF 2
ENDMDL
MODEL 6
REMARK VINA RESULT:      -4.6     20.410     22.566
REMARK  Name = CHEMBL35349.pdbqt.pdb
REMARK  2 active torsions:
REMARK  status: ('A' for Active; 'I' for Inactive)
REMARK    1  A    between atoms: C_2  and  C_11
REMARK    2  A    between atoms: C_5  and  O_21
REMARK                            x       y       z     vdW  Elec       q    Type
REMARK                         _______ _______ _______ _____ _____    ______ ____
ROOT
ATOM      1  N   UNL     1      -6.925   5.842  15.824  0.00  0.00    +0.000 N 
ATOM      2  C   UNL     1      -8.338   5.396  17.495  0.00  0.00    +0.000 A 
ATOM      3  C   UNL     1      -7.749   4.169  17.030  0.00  0.00    +0.000 A 
ATOM      4  C   UNL     1      -6.876   4.483  15.990  0.00  0.00    +0.000 A 
ATOM      5  C   UNL     1      -7.796   6.409  16.716  0.00  0.00    +0.000 A 
ATOM      6  C   UNL     1      -7.882   2.816  17.400  0.00  0.00    +0.000 A 
ATOM      7  C   UNL     1      -6.128   3.523  15.300  0.00  0.00    +0.000 A 
ATOM      8  C   UNL     1      -7.145   1.840  16.726  0.00  0.00    +0.000 A 
ATOM      9  C   UNL     1      -6.283   2.193  15.694  0.00  0.00    +0.000 A 
ATOM     10  H   UNL     1      -6.398   6.368  15.142  0.00  0.00    +0.000 HD
ENDROOT
BRANCH   2  11
ATOM     11  C   UNL     1      -9.303   5.545  18.561  0.00  0.00    +0.000 C 
ATOM     12  N   UNL     1      -9.109   6.348  19.575  0.00  0.00    +0.000 NA
ATOM     13  C   UNL     1     -10.246   6.231  20.400  0.00  0.00    +0.000 A 
ATOM     14  C   UNL     1     -11.201   5.338  19.921  0.00  0.00    +0.000 A 
ATOM     15  C   UNL     1     -10.475   6.900  21.587  0.00  0.00    +0.000 A 
ATOM     16  C   UNL     1     -10.645   4.830  18.684  0.00  0.00    +0.000 C 
ATOM     17  C   UNL     1     -12.391   5.061  20.558  0.00  0.00    +0.000 A 
ATOM     18  O   UNL     1     -11.108   4.028  17.907  0.00  0.00    +0.000 OA
ATOM     19  C   UNL     1     -12.618   5.738  21.755  0.00  0.00    +0.000 A 
ATOM     20  C   UNL     1     -11.673   6.645  22.264  0.00  0.00    +0.000 A 
ENDBRANCH   2  11
BRANCH   5  21
ATOM     21  O   UNL     1      -7.948   7.727  16.672  0.00  0.00    +0.000 OA
ATOM     22  H   UNL     1      -8.707   7.963  16.092  0.00  0.00    +0.000 HD
ENDBRANCH   5  21
TORSDOF 2
ENDMDL
MODEL 7
REMARK VINA RESULT:      -4.6     19.642     22.172
REMARK  Name = CHEMBL35349.pdbqt.pdb
REMARK  2 active torsions:
REMARK  status: ('A' for Active; 'I' for Inactive)
REMARK    1  A    between atoms: C_2  and  C_11
REMARK    2  A    between atoms: C_5  and  O_21
REMARK                            x       y       z     vdW  Elec       q    Type
REMARK                         _______ _______ _______ _____ _____    ______ ____
ROOT
ATOM      1  N   UNL     1      -1.723   6.265  17.966  0.00  0.00    +0.000 N 
ATOM      2  C   UNL     1      -3.678   6.071  16.905  0.00  0.00    +0.000 A 
ATOM      3  C   UNL     1      -2.606   5.866  15.968  0.00  0.00    +0.000 A 
ATOM      4  C   UNL     1      -1.405   5.994  16.661  0.00  0.00    +0.000 A 
ATOM      5  C   UNL     1      -3.081   6.316  18.133  0.00  0.00    +0.000 A 
ATOM      6  C   UNL     1      -2.551   5.584  14.588  0.00  0.00    +0.000 A 
ATOM      7  C   UNL     1      -0.151   5.856  16.056  0.00  0.00    +0.000 A 
ATOM      8  C   UNL     1      -1.311   5.440  13.963  0.00  0.00    +0.000 A 
ATOM      9  C   UNL     1      -0.133   5.575  14.689  0.00  0.00    +0.000 A 
ATOM     10  H   UNL     1      -1.059   6.410  18.713  0.00  0.00    +0.000 HD
ENDROOT
BRANCH   2  11
ATOM     11  C   UNL     1      -5.095   6.030  16.623  0.00  0.00    +0.000 C 
ATOM     12  N   UNL     1      -5.900   7.014  16.930  0.00  0.00    +0.000 NA
ATOM     13  C   UNL     1      -7.187   6.622  16.509  0.00  0.00    +0.000 A 
ATOM     14  C   UNL     1      -7.230   5.362  15.918  0.00  0.00    +0.000 A 
ATOM     15  C   UNL     1      -8.353   7.355  16.631  0.00  0.00    +0.000 A 
ATOM     16  C   UNL     1      -5.860   4.892  15.954  0.00  0.00    +0.000 C 
ATOM     17  C   UNL     1      -8.376   4.772  15.432  0.00  0.00    +0.000 A 
ATOM     18  O   UNL     1      -5.397   3.848  15.557  0.00  0.00    +0.000 OA
ATOM     19  C   UNL     1      -9.548   5.514  15.558  0.00  0.00    +0.000 A 
ATOM     20  C   UNL     1      -9.539   6.789  16.150  0.00  0.00    +0.000 A 
ENDBRANCH   2  11
BRANCH   5  21
ATOM     21  O   UNL     1      -3.540   6.571  19.353  0.00  0.00    +0.000 OA
ATOM     22  H   UNL     1      -3.707   5.729  19.835  0.00  0.00    +0.000 HD
ENDBRANCH   5  21
TORSDOF 2
ENDMDL
MODEL 8
REMARK VINA RESULT:      -4.5     13.472     15.230
REMARK  Name = CHEMBL35349.pdbqt.pdb
REMARK  2 active torsions:
REMARK  status: ('A' for Active; 'I' for Inactive)
REMARK    1  A    between atoms: C_2  and  C_11
REMARK    2  A    between atoms: C_5  and  O_21
REMARK                            x       y       z     vdW  Elec       q    Type
REMARK                         _______ _______ _______ _____ _____    ______ ____
ROOT
ATOM      1  N   UNL     1     -19.465  -1.979   6.388  0.00  0.00    +0.000 N 
ATOM      2  C   UNL     1     -17.690  -3.250   6.858  0.00  0.00    +0.000 A 
ATOM      3  C   UNL     1     -18.049  -3.427   5.477  0.00  0.00    +0.000 A 
ATOM      4  C   UNL     1     -19.157  -2.623   5.218  0.00  0.00    +0.000 A 
ATOM      5  C   UNL     1     -18.598  -2.342   7.384  0.00  0.00    +0.000 A 
ATOM      6  C   UNL     1     -17.530  -4.202   4.421  0.00  0.00    +0.000 A 
ATOM      7  C   UNL     1     -19.776  -2.549   3.965  0.00  0.00    +0.000 A 
ATOM      8  C   UNL     1     -18.130  -4.144   3.161  0.00  0.00    +0.000 A 
ATOM      9  C   UNL     1     -19.235  -3.329   2.942  0.00  0.00    +0.000 A 
ATOM     10  H   UNL     1     -20.225  -1.326   6.514  0.00  0.00    +0.000 HD
ENDROOT
BRANCH   2  11
ATOM     11  C   UNL     1     -16.600  -3.890   7.559  0.00  0.00    +0.000 C 
ATOM     12  N   UNL     1     -16.777  -4.559   8.669  0.00  0.00    +0.000 NA
ATOM     13  C   UNL     1     -15.507  -5.033   9.055  0.00  0.00    +0.000 A 
ATOM     14  C   UNL     1     -14.480  -4.670   8.188  0.00  0.00    +0.000 A 
ATOM     15  C   UNL     1     -15.216  -5.793  10.173  0.00  0.00    +0.000 A 
ATOM     16  C   UNL     1     -15.130  -3.896   7.150  0.00  0.00    +0.000 C 
ATOM     17  C   UNL     1     -13.159  -5.019   8.362  0.00  0.00    +0.000 A 
ATOM     18  O   UNL     1     -14.652  -3.366   6.175  0.00  0.00    +0.000 OA
ATOM     19  C   UNL     1     -12.870  -5.784   9.490  0.00  0.00    +0.000 A 
ATOM     20  C   UNL     1     -13.884  -6.167  10.385  0.00  0.00    +0.000 A 
ENDBRANCH   2  11
BRANCH   5  21
ATOM     21  O   UNL     1     -18.775  -1.794   8.581  0.00  0.00    +0.000 OA
ATOM     22  H   UNL     1     -18.427  -0.873   8.587  0.00  0.00    +0.000 HD
ENDBRANCH   5  21
TORSDOF 2
ENDMDL
MODEL 9
REMARK VINA RESULT:      -4.3     22.849     25.046
REMARK  Name = CHEMBL35349.pdbqt.pdb
REMARK  2 active torsions:
REMARK  status: ('A' for Active; 'I' for Inactive)
REMARK    1  A    between atoms: C_2  and  C_11
REMARK    2  A    between atoms: C_5  and  O_21
REMARK                            x       y       z     vdW  Elec       q    Type
REMARK                         _______ _______ _______ _____ _____    ______ ____
ROOT
ATOM      1  N   UNL     1     -28.760  17.293  18.385  0.00  0.00    +0.000 N 
ATOM      2  C   UNL     1     -27.210  18.266  17.106  0.00  0.00    +0.000 A 
ATOM      3  C   UNL     1     -28.460  18.234  16.395  0.00  0.00    +0.000 A 
ATOM      4  C   UNL     1     -29.402  17.621  17.219  0.00  0.00    +0.000 A 
ATOM      5  C   UNL     1     -27.445  17.671  18.337  0.00  0.00    +0.000 A 
ATOM      6  C   UNL     1     -28.875  18.670  15.122  0.00  0.00    +0.000 A 
ATOM      7  C   UNL     1     -30.735  17.421  16.844  0.00  0.00    +0.000 A 
ATOM      8  C   UNL     1     -30.201  18.481  14.726  0.00  0.00    +0.000 A 
ATOM      9  C   UNL     1     -31.112  17.866  15.577  0.00  0.00    +0.000 A 
ATOM     10  H   UNL     1     -29.185  16.835  19.178  0.00  0.00    +0.000 HD
ENDROOT
BRANCH   2  11
ATOM     11  C   UNL     1     -25.958  18.811  16.632  0.00  0.00    +0.000 C 
ATOM     12  N   UNL     1     -25.293  19.722  17.295  0.00  0.00    +0.000 NA
ATOM     13  C   UNL     1     -24.139  20.005  16.537  0.00  0.00    +0.000 A 
ATOM     14  C   UNL     1     -24.043  19.270  15.358  0.00  0.00    +0.000 A 
ATOM     15  C   UNL     1     -23.144  20.910  16.856  0.00  0.00    +0.000 A 
ATOM     16  C   UNL     1     -25.230  18.439  15.344  0.00  0.00    +0.000 C 
ATOM     17  C   UNL     1     -23.005  19.378  14.459  0.00  0.00    +0.000 A 
ATOM     18  O   UNL     1     -25.590  17.630  14.520  0.00  0.00    +0.000 OA
ATOM     19  C   UNL     1     -22.005  20.292  14.785  0.00  0.00    +0.000 A 
ATOM     20  C   UNL     1     -22.072  21.049  15.968  0.00  0.00    +0.000 A 
ENDBRANCH   2  11
BRANCH   5  21
ATOM     21  O   UNL     1     -26.694  17.415  19.403  0.00  0.00    +0.000 OA
ATOM     22  H   UNL     1     -26.228  18.232  19.692  0.00  0.00    +0.000 HD
ENDBRANCH   5  21
TORSDOF 2
ENDMDL
