MODEL 1
REMARK VINA RESULT:      -6.8      0.000      0.000
REMARK  Name = Chlortetracycline.pdbqt.pdb
REMARK  7 active torsions:
REMARK  status: ('A' for Active; 'I' for Inactive)
REMARK    1  A    between atoms: C_7  and  O_30
REMARK    2  A    between atoms: C_8  and  N_32
REMARK    3  A    between atoms: C_9  and  O_37
REMARK    4  A    between atoms: C_12  and  O_28
REMARK    5  A    between atoms: C_15  and  O_35
REMARK    6  A    between atoms: C_16  and  C_23
REMARK    7  A    between atoms: C_20  and  O_39
REMARK                            x       y       z     vdW  Elec       q    Type
REMARK                         _______ _______ _______ _____ _____    ______ ____
ROOT
ATOM      1 CL   UNL     1     -22.734   1.732  24.557  0.00  0.00    +0.000 Cl
ATOM      2  O   UNL     1     -18.848   5.720  19.053  0.00  0.00    +0.000 OA
ATOM      3  O   UNL     1     -24.842   7.022  18.450  0.00  0.00    +0.000 OA
ATOM      4  C   UNL     1     -22.322   4.693  18.158  0.00  0.00    +0.000 C 
ATOM      5  C   UNL     1     -21.658   3.972  20.608  0.00  0.00    +0.000 C 
ATOM      6  C   UNL     1     -22.392   4.041  19.406  0.00  0.00    +0.000 C 
ATOM      7  C   UNL     1     -21.069   5.520  17.997  0.00  0.00    +0.000 C 
ATOM      8  C   UNL     1     -23.531   5.247  17.574  0.00  0.00    +0.000 C 
ATOM      9  C   UNL     1     -21.894   3.048  21.770  0.00  0.00    +0.000 C 
ATOM     10  C   UNL     1     -20.450   4.767  20.541  0.00  0.00    +0.000 C 
ATOM     11  C   UNL     1     -20.023   5.355  19.200  0.00  0.00    +0.000 C 
ATOM     12  C   UNL     1     -21.351   7.017  17.843  0.00  0.00    +0.000 C 
ATOM     13  C   UNL     1     -21.187   3.481  23.045  0.00  0.00    +0.000 A 
ATOM     14  C   UNL     1     -23.782   6.664  17.959  0.00  0.00    +0.000 C 
ATOM     15  C   UNL     1     -19.695   4.956  21.639  0.00  0.00    +0.000 C 
ATOM     16  C   UNL     1     -22.590   7.564  17.847  0.00  0.00    +0.000 C 
ATOM     17  C   UNL     1     -20.131   4.441  22.974  0.00  0.00    +0.000 A 
ATOM     18  C   UNL     1     -21.480   1.624  21.347  0.00  0.00    +0.000 C 
ATOM     19  C   UNL     1     -21.535   2.953  24.311  0.00  0.00    +0.000 A 
ATOM     20  C   UNL     1     -19.536   4.872  24.181  0.00  0.00    +0.000 A 
ATOM     21  C   UNL     1     -20.900   3.380  25.474  0.00  0.00    +0.000 A 
ATOM     22  C   UNL     1     -19.915   4.347  25.413  0.00  0.00    +0.000 A 
ENDROOT
BRANCH  16  23
ATOM     23  C   UNL     1     -22.831   9.020  17.642  0.00  0.00    +0.000 C 
ATOM     24  O   UNL     1     -22.332   9.870  18.368  0.00  0.00    +0.000 OA
ATOM     25  N   UNL     1     -23.650   9.373  16.615  0.00  0.00    +0.000 N 
ATOM     26  H   UNL     1     -24.275   8.687  16.204  0.00  0.00    +0.000 HD
ATOM     27  H   UNL     1     -23.907  10.348  16.550  0.00  0.00    +0.000 HD
ENDBRANCH  16  23
BRANCH   8  28
ATOM     28  N   UNL     1     -24.065   4.753  16.333  0.00  0.00    +0.000 NA
ATOM     29  C   UNL     1     -23.963   5.694  15.227  0.00  0.00    +0.000 C 
ATOM     30  C   UNL     1     -23.485   3.496  15.906  0.00  0.00    +0.000 C 
ENDBRANCH   8  28
BRANCH  12  31
ATOM     31  O   UNL     1     -20.225   7.813  17.613  0.00  0.00    +0.000 OA
ATOM     32  H   UNL     1     -19.949   8.213  18.470  0.00  0.00    +0.000 HD
ENDBRANCH  12  31
BRANCH   7  33
ATOM     33  O   UNL     1     -20.442   5.142  16.771  0.00  0.00    +0.000 OA
ATOM     34  H   UNL     1     -19.944   5.910  16.436  0.00  0.00    +0.000 HD
ENDBRANCH   7  33
BRANCH  15  35
ATOM     35  O   UNL     1     -18.481   5.608  21.612  0.00  0.00    +0.000 OA
ATOM     36  H   UNL     1     -17.960   5.326  20.831  0.00  0.00    +0.000 HD
ENDBRANCH  15  35
BRANCH   9  37
ATOM     37  O   UNL     1     -23.294   3.018  21.965  0.00  0.00    +0.000 OA
ATOM     38  H   UNL     1     -23.592   2.600  21.136  0.00  0.00    +0.000 HD
ENDBRANCH   9  37
BRANCH  20  39
ATOM     39  O   UNL     1     -18.592   5.862  24.199  0.00  0.00    +0.000 OA
ATOM     40  H   UNL     1     -17.751   5.502  24.529  0.00  0.00    +0.000 HD
ENDBRANCH  20  39
TORSDOF 7
ENDMDL
MODEL 2
REMARK VINA RESULT:      -6.3     22.382     24.886
REMARK  Name = Chlortetracycline.pdbqt.pdb
REMARK  7 active torsions:
REMARK  status: ('A' for Active; 'I' for Inactive)
REMARK    1  A    between atoms: C_7  and  O_30
REMARK    2  A    between atoms: C_8  and  N_32
REMARK    3  A    between atoms: C_9  and  O_37
REMARK    4  A    between atoms: C_12  and  O_28
REMARK    5  A    between atoms: C_15  and  O_35
REMARK    6  A    between atoms: C_16  and  C_23
REMARK    7  A    between atoms: C_20  and  O_39
REMARK                            x       y       z     vdW  Elec       q    Type
REMARK                         _______ _______ _______ _____ _____    ______ ____
ROOT
ATOM      1 CL   UNL     1     -14.470  12.171  -4.220  0.00  0.00    +0.000 Cl
ATOM      2  O   UNL     1     -16.592   5.266  -1.198  0.00  0.00    +0.000 OA
ATOM      3  O   UNL     1     -11.516   4.369  -4.577  0.00  0.00    +0.000 OA
ATOM      4  C   UNL     1     -14.875   5.125  -4.509  0.00  0.00    +0.000 C 
ATOM      5  C   UNL     1     -15.086   7.589  -3.587  0.00  0.00    +0.000 C 
ATOM      6  C   UNL     1     -14.848   6.535  -4.493  0.00  0.00    +0.000 C 
ATOM      7  C   UNL     1     -15.363   4.534  -3.208  0.00  0.00    +0.000 C 
ATOM      8  C   UNL     1     -13.811   4.400  -5.181  0.00  0.00    +0.000 C 
ATOM      9  C   UNL     1     -15.123   9.061  -3.889  0.00  0.00    +0.000 C 
ATOM     10  C   UNL     1     -15.532   7.097  -2.301  0.00  0.00    +0.000 C 
ATOM     11  C   UNL     1     -15.890   5.621  -2.156  0.00  0.00    +0.000 C 
ATOM     12  C   UNL     1     -14.301   3.690  -2.495  0.00  0.00    +0.000 C 
ATOM     13  C   UNL     1     -15.020   9.940  -2.652  0.00  0.00    +0.000 A 
ATOM     14  C   UNL     1     -12.665   4.065  -4.291  0.00  0.00    +0.000 C 
ATOM     15  C   UNL     1     -15.661   7.935  -1.256  0.00  0.00    +0.000 C 
ATOM     16  C   UNL     1     -13.049   3.484  -2.965  0.00  0.00    +0.000 C 
ATOM     17  C   UNL     1     -15.254   9.371  -1.363  0.00  0.00    +0.000 A 
ATOM     18  C   UNL     1     -16.407   9.358  -4.690  0.00  0.00    +0.000 C 
ATOM     19  C   UNL     1     -14.706  11.317  -2.735  0.00  0.00    +0.000 A 
ATOM     20  C   UNL     1     -15.088  10.194  -0.228  0.00  0.00    +0.000 A 
ATOM     21  C   UNL     1     -14.584  12.103  -1.593  0.00  0.00    +0.000 A 
ATOM     22  C   UNL     1     -14.759  11.543  -0.342  0.00  0.00    +0.000 A 
ENDROOT
BRANCH  16  23
ATOM     23  C   UNL     1     -12.058   2.614  -2.271  0.00  0.00    +0.000 C 
ATOM     24  O   UNL     1     -11.908   2.641  -1.056  0.00  0.00    +0.000 OA
ATOM     25  N   UNL     1     -11.304   1.792  -3.049  0.00  0.00    +0.000 N 
ATOM     26  H   UNL     1     -11.223   1.967  -4.045  0.00  0.00    +0.000 HD
ATOM     27  H   UNL     1     -10.553   1.292  -2.592  0.00  0.00    +0.000 HD
ENDBRANCH  16  23
BRANCH   8  28
ATOM     28  N   UNL     1     -14.072   3.573  -6.329  0.00  0.00    +0.000 NA
ATOM     29  C   UNL     1     -14.004   2.144  -6.059  0.00  0.00    +0.000 C 
ATOM     30  C   UNL     1     -15.340   3.847  -6.973  0.00  0.00    +0.000 C 
ENDBRANCH   8  28
BRANCH  12  31
ATOM     31  O   UNL     1     -14.732   3.058  -1.325  0.00  0.00    +0.000 OA
ATOM     32  H   UNL     1     -13.946   2.674  -0.873  0.00  0.00    +0.000 HD
ENDBRANCH  12  31
BRANCH   7  33
ATOM     33  O   UNL     1     -16.415   3.614  -3.505  0.00  0.00    +0.000 OA
ATOM     34  H   UNL     1     -16.082   2.712  -3.345  0.00  0.00    +0.000 HD
ENDBRANCH   7  33
BRANCH  15  35
ATOM     35  O   UNL     1     -16.186   7.546  -0.042  0.00  0.00    +0.000 OA
ATOM     36  H   UNL     1     -15.753   8.034   0.689  0.00  0.00    +0.000 HD
ENDBRANCH  15  35
BRANCH   9  37
ATOM     37  O   UNL     1     -14.040   9.307  -4.764  0.00  0.00    +0.000 OA
ATOM     38  H   UNL     1     -13.281   9.186  -4.165  0.00  0.00    +0.000 HD
ENDBRANCH   9  37
BRANCH  20  39
ATOM     39  O   UNL     1     -15.195   9.694   1.042  0.00  0.00    +0.000 OA
ATOM     40  H   UNL     1     -16.033   9.989   1.437  0.00  0.00    +0.000 HD
ENDBRANCH  20  39
TORSDOF 7
ENDMDL
MODEL 3
REMARK VINA RESULT:      -5.7     21.926     23.861
REMARK  Name = Chlortetracycline.pdbqt.pdb
REMARK  7 active torsions:
REMARK  status: ('A' for Active; 'I' for Inactive)
REMARK    1  A    between atoms: C_7  and  O_30
REMARK    2  A    between atoms: C_8  and  N_32
REMARK    3  A    between atoms: C_9  and  O_37
REMARK    4  A    between atoms: C_12  and  O_28
REMARK    5  A    between atoms: C_15  and  O_35
REMARK    6  A    between atoms: C_16  and  C_23
REMARK    7  A    between atoms: C_20  and  O_39
REMARK                            x       y       z     vdW  Elec       q    Type
REMARK                         _______ _______ _______ _____ _____    ______ ____
ROOT
ATOM      1 CL   UNL     1     -14.033   2.291  -3.966  0.00  0.00    +0.000 Cl
ATOM      2  O   UNL     1     -17.117   8.163   0.194  0.00  0.00    +0.000 OA
ATOM      3  O   UNL     1     -16.842   9.963  -5.693  0.00  0.00    +0.000 OA
ATOM      4  C   UNL     1     -15.141   9.170  -2.806  0.00  0.00    +0.000 C 
ATOM      5  C   UNL     1     -15.286   6.550  -2.528  0.00  0.00    +0.000 C 
ATOM      6  C   UNL     1     -14.858   7.803  -3.009  0.00  0.00    +0.000 C 
ATOM      7  C   UNL     1     -16.148   9.402  -1.705  0.00  0.00    +0.000 C 
ATOM      8  C   UNL     1     -15.232  10.057  -3.952  0.00  0.00    +0.000 C 
ATOM      9  C   UNL     1     -14.688   5.204  -2.828  0.00  0.00    +0.000 C 
ATOM     10  C   UNL     1     -16.278   6.690  -1.484  0.00  0.00    +0.000 C 
ATOM     11  C   UNL     1     -16.556   8.075  -0.907  0.00  0.00    +0.000 C 
ATOM     12  C   UNL     1     -17.445  10.049  -2.203  0.00  0.00    +0.000 C 
ATOM     13  C   UNL     1     -15.598   4.039  -2.472  0.00  0.00    +0.000 A 
ATOM     14  C   UNL     1     -16.608  10.168  -4.512  0.00  0.00    +0.000 C 
ATOM     15  C   UNL     1     -16.924   5.610  -1.005  0.00  0.00    +0.000 C 
ATOM     16  C   UNL     1     -17.683  10.386  -3.492  0.00  0.00    +0.000 C 
ATOM     17  C   UNL     1     -16.711   4.256  -1.603  0.00  0.00    +0.000 A 
ATOM     18  C   UNL     1     -13.330   5.105  -2.102  0.00  0.00    +0.000 C 
ATOM     19  C   UNL     1     -15.375   2.733  -2.969  0.00  0.00    +0.000 A 
ATOM     20  C   UNL     1     -17.578   3.171  -1.341  0.00  0.00    +0.000 A 
ATOM     21  C   UNL     1     -16.234   1.682  -2.660  0.00  0.00    +0.000 A 
ATOM     22  C   UNL     1     -17.340   1.902  -1.861  0.00  0.00    +0.000 A 
ENDROOT
BRANCH  16  23
ATOM     23  C   UNL     1     -18.936  11.061  -3.933  0.00  0.00    +0.000 C 
ATOM     24  O   UNL     1     -19.207  12.208  -3.602  0.00  0.00    +0.000 OA
ATOM     25  N   UNL     1     -19.787  10.339  -4.711  0.00  0.00    +0.000 N 
ATOM     26  H   UNL     1     -19.709   9.329  -4.749  0.00  0.00    +0.000 HD
ATOM     27  H   UNL     1     -20.687  10.754  -4.910  0.00  0.00    +0.000 HD
ENDBRANCH  16  23
BRANCH   8  28
ATOM     28  N   UNL     1     -14.310  11.147  -4.136  0.00  0.00    +0.000 NA
ATOM     29  C   UNL     1     -13.731  11.214  -5.470  0.00  0.00    +0.000 C 
ATOM     30  C   UNL     1     -14.869  12.446  -3.825  0.00  0.00    +0.000 C 
ENDBRANCH   8  28
BRANCH  12  31
ATOM     31  O   UNL     1     -18.376  10.354  -1.207  0.00  0.00    +0.000 OA
ATOM     32  H   UNL     1     -17.911  10.837  -0.485  0.00  0.00    +0.000 HD
ENDBRANCH  12  31
BRANCH   7  33
ATOM     33  O   UNL     1     -15.597  10.353  -0.793  0.00  0.00    +0.000 OA
ATOM     34  H   UNL     1     -16.069  10.267   0.056  0.00  0.00    +0.000 HD
ENDBRANCH   7  33
BRANCH  15  35
ATOM     35  O   UNL     1     -17.796   5.669   0.061  0.00  0.00    +0.000 OA
ATOM     36  H   UNL     1     -18.377   4.880   0.071  0.00  0.00    +0.000 HD
ENDBRANCH  15  35
BRANCH   9  37
ATOM     37  O   UNL     1     -14.402   5.204  -4.213  0.00  0.00    +0.000 OA
ATOM     38  H   UNL     1     -13.763   5.938  -4.274  0.00  0.00    +0.000 HD
ENDBRANCH   9  37
BRANCH  20  39
ATOM     39  O   UNL     1     -18.719   3.329  -0.602  0.00  0.00    +0.000 OA
ATOM     40  H   UNL     1     -18.510   3.228   0.343  0.00  0.00    +0.000 HD
ENDBRANCH  20  39
TORSDOF 7
ENDMDL
MODEL 4
REMARK VINA RESULT:      -5.6      5.443      8.055
REMARK  Name = Chlortetracycline.pdbqt.pdb
REMARK  7 active torsions:
REMARK  status: ('A' for Active; 'I' for Inactive)
REMARK    1  A    between atoms: C_7  and  O_30
REMARK    2  A    between atoms: C_8  and  N_32
REMARK    3  A    between atoms: C_9  and  O_37
REMARK    4  A    between atoms: C_12  and  O_28
REMARK    5  A    between atoms: C_15  and  O_35
REMARK    6  A    between atoms: C_16  and  C_23
REMARK    7  A    between atoms: C_20  and  O_39
REMARK                            x       y       z     vdW  Elec       q    Type
REMARK                         _______ _______ _______ _____ _____    ______ ____
ROOT
ATOM      1 CL   UNL     1     -30.081  12.920  17.845  0.00  0.00    +0.000 Cl
ATOM      2  O   UNL     1     -25.641   6.882  20.110  0.00  0.00    +0.000 OA
ATOM      3  O   UNL     1     -23.266   9.115  14.879  0.00  0.00    +0.000 OA
ATOM      4  C   UNL     1     -25.850   7.445  16.427  0.00  0.00    +0.000 C 
ATOM      5  C   UNL     1     -27.209   9.243  17.800  0.00  0.00    +0.000 C 
ATOM      6  C   UNL     1     -26.749   8.499  16.695  0.00  0.00    +0.000 C 
ATOM      7  C   UNL     1     -25.227   6.874  17.678  0.00  0.00    +0.000 C 
ATOM      8  C   UNL     1     -24.986   7.524  15.262  0.00  0.00    +0.000 C 
ATOM      9  C   UNL     1     -28.322  10.254  17.820  0.00  0.00    +0.000 C 
ATOM     10  C   UNL     1     -26.631   8.770  19.040  0.00  0.00    +0.000 C 
ATOM     11  C   UNL     1     -25.831   7.471  19.036  0.00  0.00    +0.000 C 
ATOM     12  C   UNL     1     -23.708   7.064  17.734  0.00  0.00    +0.000 C 
ATOM     13  C   UNL     1     -28.314  11.144  19.053  0.00  0.00    +0.000 A 
ATOM     14  C   UNL     1     -23.672   8.169  15.539  0.00  0.00    +0.000 C 
ATOM     15  C   UNL     1     -26.823   9.449  20.186  0.00  0.00    +0.000 C 
ATOM     16  C   UNL     1     -22.980   7.678  16.772  0.00  0.00    +0.000 C 
ATOM     17  C   UNL     1     -27.550  10.756  20.197  0.00  0.00    +0.000 A 
ATOM     18  C   UNL     1     -29.660   9.503  17.671  0.00  0.00    +0.000 C 
ATOM     19  C   UNL     1     -29.051  12.351  19.111  0.00  0.00    +0.000 A 
ATOM     20  C   UNL     1     -27.509  11.633  21.303  0.00  0.00    +0.000 A 
ATOM     21  C   UNL     1     -29.011  13.171  20.235  0.00  0.00    +0.000 A 
ATOM     22  C   UNL     1     -28.231  12.823  21.322  0.00  0.00    +0.000 A 
ENDROOT
BRANCH  16  23
ATOM     23  C   UNL     1     -21.496   7.799  16.836  0.00  0.00    +0.000 C 
ATOM     24  O   UNL     1     -20.766   6.819  16.898  0.00  0.00    +0.000 OA
ATOM     25  N   UNL     1     -20.978   9.057  16.841  0.00  0.00    +0.000 N 
ATOM     26  H   UNL     1     -21.568   9.849  17.073  0.00  0.00    +0.000 HD
ATOM     27  H   UNL     1     -19.984   9.141  17.003  0.00  0.00    +0.000 HD
ENDBRANCH  16  23
BRANCH   8  28
ATOM     28  N   UNL     1     -25.090   6.581  14.181  0.00  0.00    +0.000 NA
ATOM     29  C   UNL     1     -24.349   5.346  14.398  0.00  0.00    +0.000 C 
ATOM     30  C   UNL     1     -26.453   6.230  13.838  0.00  0.00    +0.000 C 
ENDBRANCH   8  28
BRANCH  12  31
ATOM     31  O   UNL     1     -23.078   6.482  18.838  0.00  0.00    +0.000 OA
ATOM     32  H   UNL     1     -22.783   5.577  18.585  0.00  0.00    +0.000 HD
ENDBRANCH  12  31
BRANCH   7  33
ATOM     33  O   UNL     1     -25.414   5.458  17.660  0.00  0.00    +0.000 OA
ATOM     34  H   UNL     1     -25.366   5.158  16.733  0.00  0.00    +0.000 HD
ENDBRANCH   7  33
BRANCH  15  35
ATOM     35  O   UNL     1     -26.392   8.988  21.412  0.00  0.00    +0.000 OA
ATOM     36  H   UNL     1     -25.756   9.620  21.809  0.00  0.00    +0.000 HD
ENDBRANCH  15  35
BRANCH   9  37
ATOM     37  O   UNL     1     -28.165  11.029  16.648  0.00  0.00    +0.000 OA
ATOM     38  H   UNL     1     -28.920  11.641  16.723  0.00  0.00    +0.000 HD
ENDBRANCH   9  37
BRANCH  20  39
ATOM     39  O   UNL     1     -26.719  11.377  22.391  0.00  0.00    +0.000 OA
ATOM     40  H   UNL     1     -26.676  12.168  22.954  0.00  0.00    +0.000 HD
ENDBRANCH  20  39
TORSDOF 7
ENDMDL
MODEL 5
REMARK VINA RESULT:      -5.5     21.633     24.677
REMARK  Name = Chlortetracycline.pdbqt.pdb
REMARK  7 active torsions:
REMARK  status: ('A' for Active; 'I' for Inactive)
REMARK    1  A    between atoms: C_7  and  O_30
REMARK    2  A    between atoms: C_8  and  N_32
REMARK    3  A    between atoms: C_9  and  O_37
REMARK    4  A    between atoms: C_12  and  O_28
REMARK    5  A    between atoms: C_15  and  O_35
REMARK    6  A    between atoms: C_16  and  C_23
REMARK    7  A    between atoms: C_20  and  O_39
REMARK                            x       y       z     vdW  Elec       q    Type
REMARK                         _______ _______ _______ _____ _____    ______ ____
ROOT
ATOM      1 CL   UNL     1      -8.484   2.002  -5.189  0.00  0.00    +0.000 Cl
ATOM      2  O   UNL     1     -12.130   0.064   1.463  0.00  0.00    +0.000 OA
ATOM      3  O   UNL     1      -6.139   0.768   2.729  0.00  0.00    +0.000 OA
ATOM      4  C   UNL     1      -8.590  -1.079   1.166  0.00  0.00    +0.000 C 
ATOM      5  C   UNL     1      -9.378   0.316  -0.931  0.00  0.00    +0.000 C 
ATOM      6  C   UNL     1      -8.579  -0.525  -0.131  0.00  0.00    +0.000 C 
ATOM      7  C   UNL     1      -9.849  -0.750   1.932  0.00  0.00    +0.000 C 
ATOM      8  C   UNL     1      -7.361  -1.107   1.939  0.00  0.00    +0.000 C 
ATOM      9  C   UNL     1      -9.191   0.640  -2.387  0.00  0.00    +0.000 C 
ATOM     10  C   UNL     1     -10.597   0.699  -0.251  0.00  0.00    +0.000 C 
ATOM     11  C   UNL     1     -10.958   0.013   1.064  0.00  0.00    +0.000 C 
ATOM     12  C   UNL     1      -9.589   0.097   3.182  0.00  0.00    +0.000 C 
ATOM     13  C   UNL     1      -9.978   1.856  -2.848  0.00  0.00    +0.000 A 
ATOM     14  C   UNL     1      -7.162   0.102   2.786  0.00  0.00    +0.000 C 
ATOM     15  C   UNL     1     -11.417   1.623  -0.785  0.00  0.00    +0.000 C 
ATOM     16  C   UNL     1      -8.364   0.518   3.577  0.00  0.00    +0.000 C 
ATOM     17  C   UNL     1     -11.048   2.350  -2.039  0.00  0.00    +0.000 A 
ATOM     18  C   UNL     1      -9.550  -0.614  -3.212  0.00  0.00    +0.000 C 
ATOM     19  C   UNL     1      -9.692   2.518  -4.065  0.00  0.00    +0.000 A 
ATOM     20  C   UNL     1     -11.719   3.520  -2.458  0.00  0.00    +0.000 A 
ATOM     21  C   UNL     1     -10.401   3.649  -4.460  0.00  0.00    +0.000 A 
ATOM     22  C   UNL     1     -11.401   4.159  -3.654  0.00  0.00    +0.000 A 
ENDROOT
BRANCH  16  23
ATOM     23  C   UNL     1      -8.142   1.297   4.827  0.00  0.00    +0.000 C 
ATOM     24  O   UNL     1      -8.795   1.097   5.843  0.00  0.00    +0.000 OA
ATOM     25  N   UNL     1      -7.186   2.264   4.791  0.00  0.00    +0.000 N 
ATOM     26  H   UNL     1      -6.853   2.618   3.901  0.00  0.00    +0.000 HD
ATOM     27  H   UNL     1      -7.118   2.869   5.598  0.00  0.00    +0.000 HD
ENDBRANCH  16  23
BRANCH   8  28
ATOM     28  N   UNL     1      -6.747  -2.348   2.333  0.00  0.00    +0.000 NA
ATOM     29  C   UNL     1      -7.151  -2.816   3.651  0.00  0.00    +0.000 C 
ATOM     30  C   UNL     1      -6.954  -3.429   1.391  0.00  0.00    +0.000 C 
ENDBRANCH   8  28
BRANCH  12  31
ATOM     31  O   UNL     1     -10.716   0.360   3.966  0.00  0.00    +0.000 OA
ATOM     32  H   UNL     1     -11.257  -0.461   4.015  0.00  0.00    +0.000 HD
ENDBRANCH  12  31
BRANCH   7  33
ATOM     33  O   UNL     1     -10.397  -1.971   2.431  0.00  0.00    +0.000 OA
ATOM     34  H   UNL     1     -11.098  -2.261   1.818  0.00  0.00    +0.000 HD
ENDBRANCH   7  33
BRANCH  15  35
ATOM     35  O   UNL     1     -12.641   1.945  -0.239  0.00  0.00    +0.000 OA
ATOM     36  H   UNL     1     -13.149   1.131  -0.036  0.00  0.00    +0.000 HD
ENDBRANCH  15  35
BRANCH   9  37
ATOM     37  O   UNL     1      -7.804   0.851  -2.564  0.00  0.00    +0.000 OA
ATOM     38  H   UNL     1      -7.757   1.824  -2.552  0.00  0.00    +0.000 HD
ENDBRANCH   9  37
BRANCH  20  39
ATOM     39  O   UNL     1     -12.684   4.107  -1.685  0.00  0.00    +0.000 OA
ATOM     40  H   UNL     1     -13.557   3.765  -1.941  0.00  0.00    +0.000 HD
ENDBRANCH  20  39
TORSDOF 7
ENDMDL
MODEL 6
REMARK VINA RESULT:      -5.4     18.342     20.998
REMARK  Name = Chlortetracycline.pdbqt.pdb
REMARK  7 active torsions:
REMARK  status: ('A' for Active; 'I' for Inactive)
REMARK    1  A    between atoms: C_7  and  O_30
REMARK    2  A    between atoms: C_8  and  N_32
REMARK    3  A    between atoms: C_9  and  O_37
REMARK    4  A    between atoms: C_12  and  O_28
REMARK    5  A    between atoms: C_15  and  O_35
REMARK    6  A    between atoms: C_16  and  C_23
REMARK    7  A    between atoms: C_20  and  O_39
REMARK                            x       y       z     vdW  Elec       q    Type
REMARK                         _______ _______ _______ _____ _____    ______ ____
ROOT
ATOM      1 CL   UNL     1     -18.304  -4.308   3.924  0.00  0.00    +0.000 Cl
ATOM      2  O   UNL     1     -10.491  -3.849   4.133  0.00  0.00    +0.000 OA
ATOM      3  O   UNL     1     -12.567   0.840   0.714  0.00  0.00    +0.000 OA
ATOM      4  C   UNL     1     -12.105  -2.558   1.026  0.00  0.00    +0.000 C 
ATOM      5  C   UNL     1     -13.867  -3.410   2.797  0.00  0.00    +0.000 C 
ATOM      6  C   UNL     1     -13.343  -2.965   1.567  0.00  0.00    +0.000 C 
ATOM      7  C   UNL     1     -10.966  -2.690   2.008  0.00  0.00    +0.000 C 
ATOM      8  C   UNL     1     -12.057  -1.406   0.142  0.00  0.00    +0.000 C 
ATOM      9  C   UNL     1     -15.251  -3.932   3.065  0.00  0.00    +0.000 C 
ATOM     10  C   UNL     1     -12.833  -3.535   3.802  0.00  0.00    +0.000 C 
ATOM     11  C   UNL     1     -11.372  -3.403   3.383  0.00  0.00    +0.000 C 
ATOM     12  C   UNL     1     -10.321  -1.347   2.365  0.00  0.00    +0.000 C 
ATOM     13  C   UNL     1     -15.614  -3.965   4.542  0.00  0.00    +0.000 A 
ATOM     14  C   UNL     1     -11.824  -0.120   0.855  0.00  0.00    +0.000 C 
ATOM     15  C   UNL     1     -13.153  -3.796   5.083  0.00  0.00    +0.000 C 
ATOM     16  C   UNL     1     -10.718  -0.154   1.864  0.00  0.00    +0.000 C 
ATOM     17  C   UNL     1     -14.581  -3.865   5.523  0.00  0.00    +0.000 A 
ATOM     18  C   UNL     1     -15.375  -5.327   2.420  0.00  0.00    +0.000 C 
ATOM     19  C   UNL     1     -16.952  -4.100   4.981  0.00  0.00    +0.000 A 
ATOM     20  C   UNL     1     -14.953  -3.832   6.886  0.00  0.00    +0.000 A 
ATOM     21  C   UNL     1     -17.274  -4.098   6.336  0.00  0.00    +0.000 A 
ATOM     22  C   UNL     1     -16.282  -3.949   7.285  0.00  0.00    +0.000 A 
ENDROOT
BRANCH  16  23
ATOM     23  C   UNL     1     -10.034   1.129   2.195  0.00  0.00    +0.000 C 
ATOM     24  O   UNL     1      -9.360   1.736   1.373  0.00  0.00    +0.000 OA
ATOM     25  N   UNL     1     -10.174   1.594   3.465  0.00  0.00    +0.000 N 
ATOM     26  H   UNL     1     -10.480   0.971   4.205  0.00  0.00    +0.000 HD
ATOM     27  H   UNL     1      -9.615   2.397   3.721  0.00  0.00    +0.000 HD
ENDBRANCH  16  23
BRANCH   8  28
ATOM     28  N   UNL     1     -11.656  -1.529  -1.234  0.00  0.00    +0.000 NA
ATOM     29  C   UNL     1     -10.326  -1.008  -1.513  0.00  0.00    +0.000 C 
ATOM     30  C   UNL     1     -11.723  -2.882  -1.746  0.00  0.00    +0.000 C 
ENDBRANCH   8  28
BRANCH  12  31
ATOM     31  O   UNL     1      -9.211  -1.428   3.211  0.00  0.00    +0.000 OA
ATOM     32  H   UNL     1      -8.666  -2.200   2.933  0.00  0.00    +0.000 HD
ENDBRANCH  12  31
BRANCH   7  33
ATOM     33  O   UNL     1      -9.922  -3.435   1.378  0.00  0.00    +0.000 OA
ATOM     34  H   UNL     1     -10.105  -3.465   0.421  0.00  0.00    +0.000 HD
ENDBRANCH   7  33
BRANCH  15  35
ATOM     35  O   UNL     1     -12.209  -4.035   6.059  0.00  0.00    +0.000 OA
ATOM     36  H   UNL     1     -12.133  -4.997   6.233  0.00  0.00    +0.000 HD
ENDBRANCH  15  35
BRANCH   9  37
ATOM     37  O   UNL     1     -16.131  -3.083   2.356  0.00  0.00    +0.000 OA
ATOM     38  H   UNL     1     -16.972  -3.569   2.441  0.00  0.00    +0.000 HD
ENDBRANCH   9  37
BRANCH  20  39
ATOM     39  O   UNL     1     -14.029  -3.636   7.876  0.00  0.00    +0.000 OA
ATOM     40  H   UNL     1     -13.954  -4.443   8.414  0.00  0.00    +0.000 HD
ENDBRANCH  20  39
TORSDOF 7
ENDMDL
MODEL 7
REMARK VINA RESULT:      -5.3     22.062     25.261
REMARK  Name = Chlortetracycline.pdbqt.pdb
REMARK  7 active torsions:
REMARK  status: ('A' for Active; 'I' for Inactive)
REMARK    1  A    between atoms: C_7  and  O_30
REMARK    2  A    between atoms: C_8  and  N_32
REMARK    3  A    between atoms: C_9  and  O_37
REMARK    4  A    between atoms: C_12  and  O_28
REMARK    5  A    between atoms: C_15  and  O_35
REMARK    6  A    between atoms: C_16  and  C_23
REMARK    7  A    between atoms: C_20  and  O_39
REMARK                            x       y       z     vdW  Elec       q    Type
REMARK                         _______ _______ _______ _____ _____    ______ ____
ROOT
ATOM      1 CL   UNL     1     -16.944   5.278  -2.170  0.00  0.00    +0.000 Cl
ATOM      2  O   UNL     1     -13.755  12.424  -2.412  0.00  0.00    +0.000 OA
ATOM      3  O   UNL     1     -18.040  12.118  -6.831  0.00  0.00    +0.000 OA
ATOM      4  C   UNL     1     -14.966  11.081  -5.676  0.00  0.00    +0.000 C 
ATOM      5  C   UNL     1     -15.421   9.424  -3.674  0.00  0.00    +0.000 C 
ATOM      6  C   UNL     1     -15.304   9.892  -4.998  0.00  0.00    +0.000 C 
ATOM      7  C   UNL     1     -14.529  12.184  -4.742  0.00  0.00    +0.000 C 
ATOM      8  C   UNL     1     -15.751  11.493  -6.827  0.00  0.00    +0.000 C 
ATOM      9  C   UNL     1     -15.670   8.011  -3.223  0.00  0.00    +0.000 C 
ATOM     10  C   UNL     1     -15.044  10.439  -2.714  0.00  0.00    +0.000 C 
ATOM     11  C   UNL     1     -14.391  11.725  -3.213  0.00  0.00    +0.000 C 
ATOM     12  C   UNL     1     -15.460  13.400  -4.768  0.00  0.00    +0.000 C 
ATOM     13  C   UNL     1     -16.119   7.905  -1.774  0.00  0.00    +0.000 A 
ATOM     14  C   UNL     1     -16.899  12.376  -6.479  0.00  0.00    +0.000 C 
ATOM     15  C   UNL     1     -15.235  10.240  -1.397  0.00  0.00    +0.000 C 
ATOM     16  C   UNL     1     -16.567  13.496  -5.542  0.00  0.00    +0.000 C 
ATOM     17  C   UNL     1     -15.931   9.015  -0.894  0.00  0.00    +0.000 A 
ATOM     18  C   UNL     1     -14.392   7.188  -3.482  0.00  0.00    +0.000 C 
ATOM     19  C   UNL     1     -16.716   6.729  -1.259  0.00  0.00    +0.000 A 
ATOM     20  C   UNL     1     -16.416   8.911   0.428  0.00  0.00    +0.000 A 
ATOM     21  C   UNL     1     -17.151   6.656   0.062  0.00  0.00    +0.000 A 
ATOM     22  C   UNL     1     -17.016   7.746   0.899  0.00  0.00    +0.000 A 
ENDROOT
BRANCH  16  23
ATOM     23  C   UNL     1     -17.422  14.716  -5.581  0.00  0.00    +0.000 C 
ATOM     24  O   UNL     1     -17.389  15.504  -6.517  0.00  0.00    +0.000 OA
ATOM     25  N   UNL     1     -18.238  14.933  -4.515  0.00  0.00    +0.000 N 
ATOM     26  H   UNL     1     -18.066  14.455  -3.636  0.00  0.00    +0.000 HD
ATOM     27  H   UNL     1     -18.727  15.817  -4.487  0.00  0.00    +0.000 HD
ENDBRANCH  16  23
BRANCH   8  28
ATOM     28  N   UNL     1     -15.172  11.581  -8.141  0.00  0.00    +0.000 NA
ATOM     29  C   UNL     1     -15.014  12.943  -8.631  0.00  0.00    +0.000 C 
ATOM     30  C   UNL     1     -13.893  10.910  -8.264  0.00  0.00    +0.000 C 
ENDBRANCH   8  28
BRANCH  12  31
ATOM     31  O   UNL     1     -15.052  14.478  -3.977  0.00  0.00    +0.000 OA
ATOM     32  H   UNL     1     -15.655  14.538  -3.201  0.00  0.00    +0.000 HD
ENDBRANCH  12  31
BRANCH   7  33
ATOM     33  O   UNL     1     -13.271  12.682  -5.201  0.00  0.00    +0.000 OA
ATOM     34  H   UNL     1     -12.960  12.102  -5.920  0.00  0.00    +0.000 HD
ENDBRANCH   7  33
BRANCH  15  35
ATOM     35  O   UNL     1     -14.795  11.122  -0.432  0.00  0.00    +0.000 OA
ATOM     36  H   UNL     1     -13.848  11.332  -0.569  0.00  0.00    +0.000 HD
ENDBRANCH  15  35
BRANCH   9  37
ATOM     37  O   UNL     1     -16.661   7.496  -4.089  0.00  0.00    +0.000 OA
ATOM     38  H   UNL     1     -16.651   8.157  -4.805  0.00  0.00    +0.000 HD
ENDBRANCH   9  37
BRANCH  20  39
ATOM     39  O   UNL     1     -16.363   9.969   1.295  0.00  0.00    +0.000 OA
ATOM     40  H   UNL     1     -16.261  10.795   0.792  0.00  0.00    +0.000 HD
ENDBRANCH  20  39
TORSDOF 7
ENDMDL
MODEL 8
REMARK VINA RESULT:      -5.1     27.069     29.452
REMARK  Name = Chlortetracycline.pdbqt.pdb
REMARK  7 active torsions:
REMARK  status: ('A' for Active; 'I' for Inactive)
REMARK    1  A    between atoms: C_7  and  O_30
REMARK    2  A    between atoms: C_8  and  N_32
REMARK    3  A    between atoms: C_9  and  O_37
REMARK    4  A    between atoms: C_12  and  O_28
REMARK    5  A    between atoms: C_15  and  O_35
REMARK    6  A    between atoms: C_16  and  C_23
REMARK    7  A    between atoms: C_20  and  O_39
REMARK                            x       y       z     vdW  Elec       q    Type
REMARK                         _______ _______ _______ _____ _____    ______ ____
ROOT
ATOM      1 CL   UNL     1       3.220  18.795   1.530  0.00  0.00    +0.000 Cl
ATOM      2  O   UNL     1      -2.916  14.459   3.730  0.00  0.00    +0.000 OA
ATOM      3  O   UNL     1      -4.972  18.839  -0.088  0.00  0.00    +0.000 OA
ATOM      4  C   UNL     1      -3.649  18.042   2.991  0.00  0.00    +0.000 C 
ATOM      5  C   UNL     1      -1.112  17.431   2.598  0.00  0.00    +0.000 C 
ATOM      6  C   UNL     1      -2.269  18.219   2.761  0.00  0.00    +0.000 C 
ATOM      7  C   UNL     1      -4.028  16.594   3.195  0.00  0.00    +0.000 C 
ATOM      8  C   UNL     1      -4.604  18.854   2.257  0.00  0.00    +0.000 C 
ATOM      9  C   UNL     1       0.311  17.906   2.506  0.00  0.00    +0.000 C 
ATOM     10  C   UNL     1      -1.401  16.021   2.752  0.00  0.00    +0.000 C 
ATOM     11  C   UNL     1      -2.775  15.598   3.264  0.00  0.00    +0.000 C 
ATOM     12  C   UNL     1      -4.972  16.061   2.112  0.00  0.00    +0.000 C 
ATOM     13  C   UNL     1       1.268  16.860   1.955  0.00  0.00    +0.000 A 
ATOM     14  C   UNL     1      -5.047  18.239   0.975  0.00  0.00    +0.000 C 
ATOM     15  C   UNL     1      -0.462  15.097   2.479  0.00  0.00    +0.000 C 
ATOM     16  C   UNL     1      -5.431  16.795   1.072  0.00  0.00    +0.000 C 
ATOM     17  C   UNL     1       0.867  15.489   1.917  0.00  0.00    +0.000 A 
ATOM     18  C   UNL     1       0.749  18.396   3.901  0.00  0.00    +0.000 C 
ATOM     19  C   UNL     1       2.558  17.199   1.482  0.00  0.00    +0.000 A 
ATOM     20  C   UNL     1       1.750  14.549   1.340  0.00  0.00    +0.000 A 
ATOM     21  C   UNL     1       3.412  16.236   0.952  0.00  0.00    +0.000 A 
ATOM     22  C   UNL     1       3.006  14.918   0.866  0.00  0.00    +0.000 A 
ENDROOT
BRANCH  16  23
ATOM     23  C   UNL     1      -6.391  16.259   0.066  0.00  0.00    +0.000 C 
ATOM     24  O   UNL     1      -7.426  15.694   0.392  0.00  0.00    +0.000 OA
ATOM     25  N   UNL     1      -6.059  16.407  -1.245  0.00  0.00    +0.000 N 
ATOM     26  H   UNL     1      -5.100  16.609  -1.508  0.00  0.00    +0.000 HD
ATOM     27  H   UNL     1      -6.648  15.940  -1.921  0.00  0.00    +0.000 HD
ENDBRANCH  16  23
BRANCH   8  28
ATOM     28  N   UNL     1      -5.474  19.783   2.927  0.00  0.00    +0.000 NA
ATOM     29  C   UNL     1      -5.300  19.823   4.372  0.00  0.00    +0.000 C 
ATOM     30  C   UNL     1      -5.381  21.140   2.428  0.00  0.00    +0.000 C 
ENDBRANCH   8  28
BRANCH  12  31
ATOM     31  O   UNL     1      -5.412  14.748   2.303  0.00  0.00    +0.000 OA
ATOM     32  H   UNL     1      -5.121  14.451   3.195  0.00  0.00    +0.000 HD
ENDBRANCH  12  31
BRANCH   7  33
ATOM     33  O   UNL     1      -4.777  16.498   4.407  0.00  0.00    +0.000 OA
ATOM     34  H   UNL     1      -4.686  17.342   4.887  0.00  0.00    +0.000 HD
ENDBRANCH   7  33
BRANCH  15  35
ATOM     35  O   UNL     1      -0.644  13.750   2.713  0.00  0.00    +0.000 OA
ATOM     36  H   UNL     1      -0.260  13.499   3.579  0.00  0.00    +0.000 HD
ENDBRANCH  15  35
BRANCH   9  37
ATOM     37  O   UNL     1       0.288  19.046   1.670  0.00  0.00    +0.000 OA
ATOM     38  H   UNL     1      -0.638  19.335   1.770  0.00  0.00    +0.000 HD
ENDBRANCH   9  37
BRANCH  20  39
ATOM     39  O   UNL     1       1.392  13.238   1.176  0.00  0.00    +0.000 OA
ATOM     40  H   UNL     1       0.533  13.081   1.605  0.00  0.00    +0.000 HD
ENDBRANCH  20  39
TORSDOF 7
ENDMDL
MODEL 9
REMARK VINA RESULT:      -4.7      4.852      8.160
REMARK  Name = Chlortetracycline.pdbqt.pdb
REMARK  7 active torsions:
REMARK  status: ('A' for Active; 'I' for Inactive)
REMARK    1  A    between atoms: C_7  and  O_30
REMARK    2  A    between atoms: C_8  and  N_32
REMARK    3  A    between atoms: C_9  and  O_37
REMARK    4  A    between atoms: C_12  and  O_28
REMARK    5  A    between atoms: C_15  and  O_35
REMARK    6  A    between atoms: C_16  and  C_23
REMARK    7  A    between atoms: C_20  and  O_39
REMARK                            x       y       z     vdW  Elec       q    Type
REMARK                         _______ _______ _______ _____ _____    ______ ____
ROOT
ATOM      1 CL   UNL     1     -30.481   5.993  21.267  0.00  0.00    +0.000 Cl
ATOM      2  O   UNL     1     -26.928   6.905  14.350  0.00  0.00    +0.000 OA
ATOM      3  O   UNL     1     -22.579   5.809  18.577  0.00  0.00    +0.000 OA
ATOM      4  C   UNL     1     -24.957   7.968  17.334  0.00  0.00    +0.000 C 
ATOM      5  C   UNL     1     -27.311   6.970  17.986  0.00  0.00    +0.000 C 
ATOM      6  C   UNL     1     -26.079   7.639  18.123  0.00  0.00    +0.000 C 
ATOM      7  C   UNL     1     -25.115   7.555  15.890  0.00  0.00    +0.000 C 
ATOM      8  C   UNL     1     -23.625   7.828  17.896  0.00  0.00    +0.000 C 
ATOM      9  C   UNL     1     -28.424   6.888  18.993  0.00  0.00    +0.000 C 
ATOM     10  C   UNL     1     -27.523   6.517  16.628  0.00  0.00    +0.000 C 
ATOM     11  C   UNL     1     -26.568   6.984  15.533  0.00  0.00    +0.000 C 
ATOM     12  C   UNL     1     -24.092   6.504  15.449  0.00  0.00    +0.000 C 
ATOM     13  C   UNL     1     -29.435   5.791  18.698  0.00  0.00    +0.000 A 
ATOM     14  C   UNL     1     -23.018   6.488  17.660  0.00  0.00    +0.000 C 
ATOM     15  C   UNL     1     -28.567   5.722  16.327  0.00  0.00    +0.000 C 
ATOM     16  C   UNL     1     -23.137   5.984  16.255  0.00  0.00    +0.000 C 
ATOM     17  C   UNL     1     -29.476   5.204  17.396  0.00  0.00    +0.000 A 
ATOM     18  C   UNL     1     -29.099   8.273  19.082  0.00  0.00    +0.000 C 
ATOM     19  C   UNL     1     -30.352   5.334  19.674  0.00  0.00    +0.000 A 
ATOM     20  C   UNL     1     -30.380   4.142  17.169  0.00  0.00    +0.000 A 
ATOM     21  C   UNL     1     -31.251   4.308  19.399  0.00  0.00    +0.000 A 
ATOM     22  C   UNL     1     -31.257   3.703  18.157  0.00  0.00    +0.000 A 
ENDROOT
BRANCH  16  23
ATOM     23  C   UNL     1     -22.125   5.000  15.778  0.00  0.00    +0.000 C 
ATOM     24  O   UNL     1     -22.372   4.191  14.894  0.00  0.00    +0.000 OA
ATOM     25  N   UNL     1     -20.906   5.024  16.382  0.00  0.00    +0.000 N 
ATOM     26  H   UNL     1     -20.793   5.481  17.281  0.00  0.00    +0.000 HD
ATOM     27  H   UNL     1     -20.263   4.281  16.143  0.00  0.00    +0.000 HD
ENDBRANCH  16  23
BRANCH   8  28
ATOM     28  N   UNL     1     -22.763   8.965  18.085  0.00  0.00    +0.000 NA
ATOM     29  C   UNL     1     -21.706   9.080  17.090  0.00  0.00    +0.000 C 
ATOM     30  C   UNL     1     -23.466  10.230  18.140  0.00  0.00    +0.000 C 
ENDBRANCH   8  28
BRANCH  12  31
ATOM     31  O   UNL     1     -24.151   6.149  14.099  0.00  0.00    +0.000 OA
ATOM     32  H   UNL     1     -24.989   6.503  13.722  0.00  0.00    +0.000 HD
ENDBRANCH  12  31
BRANCH   7  33
ATOM     33  O   UNL     1     -24.840   8.693  15.071  0.00  0.00    +0.000 OA
ATOM     34  H   UNL     1     -25.611   9.288  15.110  0.00  0.00    +0.000 HD
ENDBRANCH   7  33
BRANCH  15  35
ATOM     35  O   UNL     1     -28.882   5.352  15.037  0.00  0.00    +0.000 OA
ATOM     36  H   UNL     1     -28.452   4.500  14.811  0.00  0.00    +0.000 HD
ENDBRANCH  15  35
BRANCH   9  37
ATOM     37  O   UNL     1     -27.802   6.666  20.243  0.00  0.00    +0.000 OA
ATOM     38  H   UNL     1     -28.574   6.489  20.811  0.00  0.00    +0.000 HD
ENDBRANCH   9  37
BRANCH  20  39
ATOM     39  O   UNL     1     -30.403   3.464  15.981  0.00  0.00    +0.000 OA
ATOM     40  H   UNL     1     -31.012   3.909  15.366  0.00  0.00    +0.000 HD
ENDBRANCH  20  39
TORSDOF 7
ENDMDL
