MODEL 1
REMARK VINA RESULT:      -6.0      0.000      0.000
REMARK  Name = Ciclopirox.pdbqt.pdb
REMARK  2 active torsions:
REMARK  status: ('A' for Active; 'I' for Inactive)
REMARK    1  A    between atoms: N_2  and  O_15
REMARK    2  A    between atoms: C_3  and  C_9
REMARK                            x       y       z     vdW  Elec       q    Type
REMARK                         _______ _______ _______ _____ _____    ______ ____
ROOT
ATOM      1  O   UNL     1     -14.024   9.949  -5.616  0.00  0.00    +0.000 OA
ATOM      2  N   UNL     1     -14.715   9.666  -3.396  0.00  0.00    +0.000 N 
ATOM      3  C   UNL     1     -15.010  10.254  -2.158  0.00  0.00    +0.000 C 
ATOM      4  C   UNL     1     -14.793  11.545  -2.183  0.00  0.00    +0.000 C 
ATOM      5  C   UNL     1     -14.321  12.511  -3.119  0.00  0.00    +0.000 C 
ATOM      6  C   UNL     1     -14.253  10.401  -4.503  0.00  0.00    +0.000 C 
ATOM      7  C   UNL     1     -14.103  11.802  -4.187  0.00  0.00    +0.000 C 
ATOM      8  C   UNL     1     -13.369  13.577  -2.691  0.00  0.00    +0.000 C 
ENDROOT
BRANCH   3   9
ATOM      9  C   UNL     1     -15.501   9.549  -1.010  0.00  0.00    +0.000 A 
ATOM     10  C   UNL     1     -16.569   8.577  -1.056  0.00  0.00    +0.000 A 
ATOM     11  C   UNL     1     -17.383   7.924   0.084  0.00  0.00    +0.000 A 
ATOM     12  C   UNL     1     -17.018   8.360   1.515  0.00  0.00    +0.000 A 
ATOM     13  C   UNL     1     -15.887   9.393   1.672  0.00  0.00    +0.000 A 
ATOM     14  C   UNL     1     -15.231   9.890   0.365  0.00  0.00    +0.000 A 
ENDBRANCH   3   9
BRANCH   2  15
ATOM     15  O   UNL     1     -14.975   8.294  -3.580  0.00  0.00    +0.000 OA
ATOM     16  H   UNL     1     -15.941   8.239  -3.433  0.00  0.00    +0.000 HD
ENDBRANCH   2  15
TORSDOF 2
ENDMDL
MODEL 2
REMARK VINA RESULT:      -5.7      2.958      4.490
REMARK  Name = Ciclopirox.pdbqt.pdb
REMARK  2 active torsions:
REMARK  status: ('A' for Active; 'I' for Inactive)
REMARK    1  A    between atoms: N_2  and  O_15
REMARK    2  A    between atoms: C_3  and  C_9
REMARK                            x       y       z     vdW  Elec       q    Type
REMARK                         _______ _______ _______ _____ _____    ______ ____
ROOT
ATOM      1  O   UNL     1     -14.333   7.016  -5.688  0.00  0.00    +0.000 OA
ATOM      2  N   UNL     1     -15.006   7.475  -3.493  0.00  0.00    +0.000 N 
ATOM      3  C   UNL     1     -15.066   7.058  -2.155  0.00  0.00    +0.000 C 
ATOM      4  C   UNL     1     -14.552   5.863  -2.008  0.00  0.00    +0.000 C 
ATOM      5  C   UNL     1     -13.967   4.864  -2.839  0.00  0.00    +0.000 C 
ATOM      6  C   UNL     1     -14.452   6.685  -4.517  0.00  0.00    +0.000 C 
ATOM      7  C   UNL     1     -13.992   5.411  -4.017  0.00  0.00    +0.000 C 
ATOM      8  C   UNL     1     -14.311   3.424  -2.648  0.00  0.00    +0.000 C 
ENDROOT
BRANCH   3   9
ATOM      9  C   UNL     1     -15.603   7.835  -1.076  0.00  0.00    +0.000 A 
ATOM     10  C   UNL     1     -14.902   8.930  -0.445  0.00  0.00    +0.000 A 
ATOM     11  C   UNL     1     -15.205   9.696   0.863  0.00  0.00    +0.000 A 
ATOM     12  C   UNL     1     -16.453   9.240   1.643  0.00  0.00    +0.000 A 
ATOM     13  C   UNL     1     -17.271   8.078   1.051  0.00  0.00    +0.000 A 
ATOM     14  C   UNL     1     -16.750   7.484  -0.277  0.00  0.00    +0.000 A 
ENDBRANCH   3   9
BRANCH   2  15
ATOM     15  O   UNL     1     -15.432   8.776  -3.823  0.00  0.00    +0.000 OA
ATOM     16  H   UNL     1     -15.459   9.219  -2.950  0.00  0.00    +0.000 HD
ENDBRANCH   2  15
TORSDOF 2
ENDMDL
MODEL 3
REMARK VINA RESULT:      -5.7     19.284     21.360
REMARK  Name = Ciclopirox.pdbqt.pdb
REMARK  2 active torsions:
REMARK  status: ('A' for Active; 'I' for Inactive)
REMARK    1  A    between atoms: N_2  and  O_15
REMARK    2  A    between atoms: C_3  and  C_9
REMARK                            x       y       z     vdW  Elec       q    Type
REMARK                         _______ _______ _______ _____ _____    ______ ____
ROOT
ATOM      1  O   UNL     1     -23.747   9.391  17.949  0.00  0.00    +0.000 OA
ATOM      2  N   UNL     1     -22.633   7.331  17.944  0.00  0.00    +0.000 N 
ATOM      3  C   UNL     1     -21.447   6.620  17.711  0.00  0.00    +0.000 C 
ATOM      4  C   UNL     1     -20.503   7.409  17.263  0.00  0.00    +0.000 C 
ATOM      5  C   UNL     1     -20.359   8.788  16.931  0.00  0.00    +0.000 C 
ATOM      6  C   UNL     1     -22.755   8.714  17.721  0.00  0.00    +0.000 C 
ATOM      7  C   UNL     1     -21.530   9.280  17.206  0.00  0.00    +0.000 C 
ATOM      8  C   UNL     1     -19.618   9.197  15.702  0.00  0.00    +0.000 C 
ENDROOT
BRANCH   3   9
ATOM      9  C   UNL     1     -21.271   5.216  17.942  0.00  0.00    +0.000 A 
ATOM     10  C   UNL     1     -21.944   4.184  17.188  0.00  0.00    +0.000 A 
ATOM     11  C   UNL     1     -22.072   2.667  17.455  0.00  0.00    +0.000 A 
ATOM     12  C   UNL     1     -21.378   2.139  18.725  0.00  0.00    +0.000 A 
ATOM     13  C   UNL     1     -20.629   3.163  19.597  0.00  0.00    +0.000 A 
ATOM     14  C   UNL     1     -20.653   4.627  19.104  0.00  0.00    +0.000 A 
ENDBRANCH   3   9
BRANCH   2  15
ATOM     15  O   UNL     1     -23.732   6.658  18.514  0.00  0.00    +0.000 OA
ATOM     16  H   UNL     1     -24.295   6.473  17.735  0.00  0.00    +0.000 HD
ENDBRANCH   2  15
TORSDOF 2
ENDMDL
MODEL 4
REMARK VINA RESULT:      -5.2      2.623      3.679
REMARK  Name = Ciclopirox.pdbqt.pdb
REMARK  2 active torsions:
REMARK  status: ('A' for Active; 'I' for Inactive)
REMARK    1  A    between atoms: N_2  and  O_15
REMARK    2  A    between atoms: C_3  and  C_9
REMARK                            x       y       z     vdW  Elec       q    Type
REMARK                         _______ _______ _______ _____ _____    ______ ____
ROOT
ATOM      1  O   UNL     1     -16.559   8.780  -5.980  0.00  0.00    +0.000 OA
ATOM      2  N   UNL     1     -16.207   8.509  -3.680  0.00  0.00    +0.000 N 
ATOM      3  C   UNL     1     -15.517   7.852  -2.652  0.00  0.00    +0.000 C 
ATOM      4  C   UNL     1     -14.704   6.944  -3.132  0.00  0.00    +0.000 C 
ATOM      5  C   UNL     1     -14.344   6.431  -4.412  0.00  0.00    +0.000 C 
ATOM      6  C   UNL     1     -16.020   8.210  -5.042  0.00  0.00    +0.000 C 
ATOM      7  C   UNL     1     -15.065   7.143  -5.226  0.00  0.00    +0.000 C 
ATOM      8  C   UNL     1     -14.169   4.963  -4.616  0.00  0.00    +0.000 C 
ENDROOT
BRANCH   3   9
ATOM      9  C   UNL     1     -15.660   8.136  -1.254  0.00  0.00    +0.000 A 
ATOM     10  C   UNL     1     -16.708   7.589  -0.423  0.00  0.00    +0.000 A 
ATOM     11  C   UNL     1     -17.161   7.972   1.004  0.00  0.00    +0.000 A 
ATOM     12  C   UNL     1     -16.386   9.120   1.678  0.00  0.00    +0.000 A 
ATOM     13  C   UNL     1     -15.245   9.769   0.874  0.00  0.00    +0.000 A 
ATOM     14  C   UNL     1     -14.994   9.196  -0.539  0.00  0.00    +0.000 A 
ENDBRANCH   3   9
BRANCH   2  15
ATOM     15  O   UNL     1     -17.061   9.581  -3.354  0.00  0.00    +0.000 OA
ATOM     16  H   UNL     1     -17.449   9.815  -4.222  0.00  0.00    +0.000 HD
ENDBRANCH   2  15
TORSDOF 2
ENDMDL
MODEL 5
REMARK VINA RESULT:      -5.0      1.477      2.303
REMARK  Name = Ciclopirox.pdbqt.pdb
REMARK  2 active torsions:
REMARK  status: ('A' for Active; 'I' for Inactive)
REMARK    1  A    between atoms: N_2  and  O_15
REMARK    2  A    between atoms: C_3  and  C_9
REMARK                            x       y       z     vdW  Elec       q    Type
REMARK                         _______ _______ _______ _____ _____    ______ ____
ROOT
ATOM      1  O   UNL     1     -13.547  11.582  -6.958  0.00  0.00    +0.000 OA
ATOM      2  N   UNL     1     -14.185  11.008  -4.779  0.00  0.00    +0.000 N 
ATOM      3  C   UNL     1     -14.505  11.433  -3.482  0.00  0.00    +0.000 C 
ATOM      4  C   UNL     1     -14.384  12.732  -3.366  0.00  0.00    +0.000 C 
ATOM      5  C   UNL     1     -13.997  13.827  -4.194  0.00  0.00    +0.000 C 
ATOM      6  C   UNL     1     -13.793  11.892  -5.801  0.00  0.00    +0.000 C 
ATOM      7  C   UNL     1     -13.742  13.257  -5.333  0.00  0.00    +0.000 C 
ATOM      8  C   UNL     1     -13.120  14.908  -3.656  0.00  0.00    +0.000 C 
ENDROOT
BRANCH   3   9
ATOM      9  C   UNL     1     -14.927  10.573  -2.415  0.00  0.00    +0.000 A 
ATOM     10  C   UNL     1     -15.029  10.990  -1.036  0.00  0.00    +0.000 A 
ATOM     11  C   UNL     1     -15.214  10.158   0.254  0.00  0.00    +0.000 A 
ATOM     12  C   UNL     1     -15.311   8.632   0.070  0.00  0.00    +0.000 A 
ATOM     13  C   UNL     1     -15.215   8.087  -1.367  0.00  0.00    +0.000 A 
ATOM     14  C   UNL     1     -15.031   9.137  -2.485  0.00  0.00    +0.000 A 
ENDBRANCH   3   9
BRANCH   2  15
ATOM     15  O   UNL     1     -14.346   9.649  -5.112  0.00  0.00    +0.000 OA
ATOM     16  H   UNL     1     -14.276   9.659  -6.088  0.00  0.00    +0.000 HD
ENDBRANCH   2  15
TORSDOF 2
ENDMDL
MODEL 6
REMARK VINA RESULT:      -5.0     10.592     12.551
REMARK  Name = Ciclopirox.pdbqt.pdb
REMARK  2 active torsions:
REMARK  status: ('A' for Active; 'I' for Inactive)
REMARK    1  A    between atoms: N_2  and  O_15
REMARK    2  A    between atoms: C_3  and  C_9
REMARK                            x       y       z     vdW  Elec       q    Type
REMARK                         _______ _______ _______ _____ _____    ______ ____
ROOT
ATOM      1  O   UNL     1      -7.059  14.627  -1.454  0.00  0.00    +0.000 OA
ATOM      2  N   UNL     1      -5.648  14.956   0.386  0.00  0.00    +0.000 N 
ATOM      3  C   UNL     1      -5.131  15.837   1.346  0.00  0.00    +0.000 C 
ATOM      4  C   UNL     1      -5.585  17.052   1.168  0.00  0.00    +0.000 C 
ATOM      5  C   UNL     1      -6.446  17.725   0.252  0.00  0.00    +0.000 C 
ATOM      6  C   UNL     1      -6.543  15.359  -0.621  0.00  0.00    +0.000 C 
ATOM      7  C   UNL     1      -6.825  16.774  -0.548  0.00  0.00    +0.000 C 
ATOM      8  C   UNL     1      -6.087  19.076  -0.269  0.00  0.00    +0.000 C 
ENDROOT
BRANCH   3   9
ATOM      9  C   UNL     1      -4.234  15.467   2.402  0.00  0.00    +0.000 A 
ATOM     10  C   UNL     1      -4.485  15.726   3.801  0.00  0.00    +0.000 A 
ATOM     11  C   UNL     1      -3.545  15.635   5.024  0.00  0.00    +0.000 A 
ATOM     12  C   UNL     1      -2.096  15.196   4.736  0.00  0.00    +0.000 A 
ATOM     13  C   UNL     1      -1.728  14.894   3.272  0.00  0.00    +0.000 A 
ATOM     14  C   UNL     1      -2.860  15.063   2.235  0.00  0.00    +0.000 A 
ENDBRANCH   3   9
BRANCH   2  15
ATOM     15  O   UNL     1      -5.338  13.585   0.479  0.00  0.00    +0.000 OA
ATOM     16  H   UNL     1      -4.370  13.575   0.329  0.00  0.00    +0.000 HD
ENDBRANCH   2  15
TORSDOF 2
ENDMDL
MODEL 7
REMARK VINA RESULT:      -4.8      2.170      3.327
REMARK  Name = Ciclopirox.pdbqt.pdb
REMARK  2 active torsions:
REMARK  status: ('A' for Active; 'I' for Inactive)
REMARK    1  A    between atoms: N_2  and  O_15
REMARK    2  A    between atoms: C_3  and  C_9
REMARK                            x       y       z     vdW  Elec       q    Type
REMARK                         _______ _______ _______ _____ _____    ______ ____
ROOT
ATOM      1  O   UNL     1     -17.293  11.142  -6.687  0.00  0.00    +0.000 OA
ATOM      2  N   UNL     1     -16.287  10.532  -4.662  0.00  0.00    +0.000 N 
ATOM      3  C   UNL     1     -15.223   9.896  -4.007  0.00  0.00    +0.000 C 
ATOM      4  C   UNL     1     -14.396   9.352  -4.863  0.00  0.00    +0.000 C 
ATOM      5  C   UNL     1     -14.294   9.213  -6.278  0.00  0.00    +0.000 C 
ATOM      6  C   UNL     1     -16.414  10.566  -6.063  0.00  0.00    +0.000 C 
ATOM      7  C   UNL     1     -15.340   9.850  -6.712  0.00  0.00    +0.000 C 
ATOM      8  C   UNL     1     -13.874   7.915  -6.883  0.00  0.00    +0.000 C 
ENDROOT
BRANCH   3   9
ATOM      9  C   UNL     1     -15.042   9.854  -2.585  0.00  0.00    +0.000 A 
ATOM     10  C   UNL     1     -15.252   8.672  -1.780  0.00  0.00    +0.000 A 
ATOM     11  C   UNL     1     -15.352   8.506  -0.247  0.00  0.00    +0.000 A 
ATOM     12  C   UNL     1     -15.205   9.793   0.587  0.00  0.00    +0.000 A 
ATOM     13  C   UNL     1     -14.974  11.108  -0.179  0.00  0.00    +0.000 A 
ATOM     14  C   UNL     1     -14.914  10.999  -1.719  0.00  0.00    +0.000 A 
ENDBRANCH   3   9
BRANCH   2  15
ATOM     15  O   UNL     1     -17.228  11.251  -3.900  0.00  0.00    +0.000 OA
ATOM     16  H   UNL     1     -17.065  12.176  -4.178  0.00  0.00    +0.000 HD
ENDBRANCH   2  15
TORSDOF 2
ENDMDL
MODEL 8
REMARK VINA RESULT:      -4.7     10.798     12.149
REMARK  Name = Ciclopirox.pdbqt.pdb
REMARK  2 active torsions:
REMARK  status: ('A' for Active; 'I' for Inactive)
REMARK    1  A    between atoms: N_2  and  O_15
REMARK    2  A    between atoms: C_3  and  C_9
REMARK                            x       y       z     vdW  Elec       q    Type
REMARK                         _______ _______ _______ _____ _____    ______ ____
ROOT
ATOM      1  O   UNL     1     -24.304   9.479   1.499  0.00  0.00    +0.000 OA
ATOM      2  N   UNL     1     -24.090   9.955   3.782  0.00  0.00    +0.000 N 
ATOM      3  C   UNL     1     -24.333   9.564   5.107  0.00  0.00    +0.000 C 
ATOM      4  C   UNL     1     -25.008   8.442   5.153  0.00  0.00    +0.000 C 
ATOM      5  C   UNL     1     -25.577   7.522   4.225  0.00  0.00    +0.000 C 
ATOM      6  C   UNL     1     -24.525   9.210   2.671  0.00  0.00    +0.000 C 
ATOM      7  C   UNL     1     -25.260   8.033   3.073  0.00  0.00    +0.000 C 
ATOM      8  C   UNL     1     -26.932   6.945   4.468  0.00  0.00    +0.000 C 
ENDROOT
BRANCH   3   9
ATOM      9  C   UNL     1     -23.893  10.279   6.269  0.00  0.00    +0.000 A 
ATOM     10  C   UNL     1     -24.107  11.693   6.474  0.00  0.00    +0.000 A 
ATOM     11  C   UNL     1     -23.497  12.660   7.515  0.00  0.00    +0.000 A 
ATOM     12  C   UNL     1     -22.496  12.044   8.510  0.00  0.00    +0.000 A 
ATOM     13  C   UNL     1     -22.202  10.539   8.376  0.00  0.00    +0.000 A 
ATOM     14  C   UNL     1     -22.948   9.796   7.245  0.00  0.00    +0.000 A 
ENDBRANCH   3   9
BRANCH   2  15
ATOM     15  O   UNL     1     -23.298  11.094   3.541  0.00  0.00    +0.000 OA
ATOM     16  H   UNL     1     -22.902  10.896   2.667  0.00  0.00    +0.000 HD
ENDBRANCH   2  15
TORSDOF 2
ENDMDL
MODEL 9
REMARK VINA RESULT:      -4.7     13.661     15.257
REMARK  Name = Ciclopirox.pdbqt.pdb
REMARK  2 active torsions:
REMARK  status: ('A' for Active; 'I' for Inactive)
REMARK    1  A    between atoms: N_2  and  O_15
REMARK    2  A    between atoms: C_3  and  C_9
REMARK                            x       y       z     vdW  Elec       q    Type
REMARK                         _______ _______ _______ _____ _____    ______ ____
ROOT
ATOM      1  O   UNL     1      -2.970  13.985   1.298  0.00  0.00    +0.000 OA
ATOM      2  N   UNL     1      -2.739  15.078   3.357  0.00  0.00    +0.000 N 
ATOM      3  C   UNL     1      -3.163  16.104   4.213  0.00  0.00    +0.000 C 
ATOM      4  C   UNL     1      -4.091  16.837   3.651  0.00  0.00    +0.000 C 
ATOM      5  C   UNL     1      -4.773  16.886   2.400  0.00  0.00    +0.000 C 
ATOM      6  C   UNL     1      -3.269  14.887   2.068  0.00  0.00    +0.000 C 
ATOM      7  C   UNL     1      -4.265  15.884   1.749  0.00  0.00    +0.000 C 
ATOM      8  C   UNL     1      -5.027  18.195   1.729  0.00  0.00    +0.000 C 
ENDROOT
BRANCH   3   9
ATOM      9  C   UNL     1      -2.666  16.325   5.540  0.00  0.00    +0.000 A 
ATOM     10  C   UNL     1      -3.510  16.455   6.705  0.00  0.00    +0.000 A 
ATOM     11  C   UNL     1      -3.180  16.938   8.136  0.00  0.00    +0.000 A 
ATOM     12  C   UNL     1      -1.719  17.353   8.392  0.00  0.00    +0.000 A 
ATOM     13  C   UNL     1      -0.737  17.248   7.211  0.00  0.00    +0.000 A 
ATOM     14  C   UNL     1      -1.325  16.732   5.879  0.00  0.00    +0.000 A 
ENDBRANCH   3   9
BRANCH   2  15
ATOM     15  O   UNL     1      -1.806  14.134   3.830  0.00  0.00    +0.000 OA
ATOM     16  H   UNL     1      -1.567  14.495   4.708  0.00  0.00    +0.000 HD
ENDBRANCH   2  15
TORSDOF 2
ENDMDL
