MODEL 1
REMARK VINA RESULT:      -5.0      0.000      0.000
REMARK  Name = 
REMARK  14 active torsions:
REMARK  status: ('A' for Active; 'I' for Inactive)
REMARK    1  A    between atoms: S_2  and  C_21
REMARK    2  A    between atoms: S_2  and  C_27
REMARK    3  A    between atoms: O_4  and  C_16
REMARK    4  A    between atoms: O_5  and  C_18
REMARK    5  A    between atoms: O_6  and  C_20
REMARK    6  A    between atoms: N_8  and  C_23
REMARK    7  A    between atoms: N_9  and  C_15
REMARK    8  A    between atoms: C_10  and  C_17
REMARK    9  A    between atoms: C_11  and  C_19
REMARK   10  A    between atoms: C_14  and  C_15
REMARK   11  A    between atoms: C_15  and  C_22
REMARK   12  A    between atoms: C_17  and  C_24
REMARK   13  A    between atoms: C_22  and  C_25
REMARK   14  A    between atoms: C_24  and  C_26
REMARK                            x       y       z     vdW  Elec       q    Type
REMARK                         _______ _______ _______ _____ _____    ______ ____
ROOT
ATOM      1  C   UNL     1      -1.427  16.447   4.751  0.00  0.00    +0.000 C 
ENDROOT
BRANCH   1   3
ATOM      2  O   UNL     1       0.440  17.474   5.899  0.00  0.00    +0.000 OA
ATOM      3  C   UNL     1      -0.009  17.075   4.586  0.00  0.00    +0.000 C 
ATOM      4  C   UNL     1       1.011  16.128   3.917  0.00  0.00    +0.000 C 
ATOM      5  C   UNL     1       2.405  16.766   3.894  0.00  0.00    +0.000 C 
ATOM      6  C   UNL     1       2.821  17.190   5.310  0.00  0.00    +0.000 C 
ATOM      7  C   UNL     1       1.734  18.080   5.947  0.00  0.00    +0.000 C 
BRANCH   7   8
ATOM      8  S   UNL     1       1.715  19.784   5.251  0.00  0.00    +0.000 S 
ATOM      9  C   UNL     1       2.350  20.671   6.693  0.00  0.00    +0.000 C 
ENDBRANCH   7   8
BRANCH   4  10
ATOM     10  O   UNL     1       1.119  14.883   4.626  0.00  0.00    +0.000 OA
ATOM     11  H   UNL     1       1.001  15.093   5.583  0.00  0.00    +0.000 HD
ENDBRANCH   4  10
BRANCH   5  12
ATOM     12  O   UNL     1       3.339  15.817   3.356  0.00  0.00    +0.000 OA
ATOM     13  H   UNL     1       4.166  16.321   3.220  0.00  0.00    +0.000 HD
ENDBRANCH   5  12
BRANCH   6  14
ATOM     14  O   UNL     1       4.104  17.833   5.318  0.00  0.00    +0.000 OA
ATOM     15  H   UNL     1       3.945  18.787   5.432  0.00  0.00    +0.000 HD
ENDBRANCH   6  14
ENDBRANCH   1   3
BRANCH   1  17
ATOM     16  O   UNL     1      -2.482  14.136   3.534  0.00  0.00    +0.000 OA
ATOM     17  N   UNL     1      -2.162  16.386   3.477  0.00  0.00    +0.000 N 
ATOM     18  C   UNL     1      -2.679  15.210   2.967  0.00  0.00    +0.000 C 
ATOM     19  H   UNL     1      -2.254  17.246   2.945  0.00  0.00    +0.000 HD
BRANCH  18  22
ATOM     20  N   UNL     1      -3.584  14.108   0.913  0.00  0.00    +0.000 NA
ATOM     21  C   UNL     1      -5.753  14.859   1.144  0.00  0.00    +0.000 C 
ATOM     22  C   UNL     1      -3.428  15.388   1.632  0.00  0.00    +0.000 C 
ATOM     23  C   UNL     1      -4.863  15.891   1.840  0.00  0.00    +0.000 C 
ATOM     24  C   UNL     1      -4.811  14.223   0.130  0.00  0.00    +0.000 C 
ATOM     25  C   UNL     1      -2.428  13.764   0.098  0.00  0.00    +0.000 C 
BRANCH  21  26
ATOM     26  C   UNL     1      -7.015  15.436   0.501  0.00  0.00    +0.000 C 
BRANCH  26  27
ATOM     27  C   UNL     1      -6.712  16.622  -0.418  0.00  0.00    +0.000 C 
ATOM     28  C   UNL     1      -7.629  17.799  -0.126  0.00  0.00    +0.000 C 
ENDBRANCH  26  27
ENDBRANCH  21  26
ENDBRANCH  18  22
ENDBRANCH   1  17
BRANCH   1  30
ATOM     29 CL   UNL     1      -2.969  18.706   5.172  0.00  0.00    +0.000 Cl
ATOM     30  C   UNL     1      -2.269  17.183   5.829  0.00  0.00    +0.000 C 
ATOM     31  C   UNL     1      -3.409  16.314   6.356  0.00  0.00    +0.000 C 
ENDBRANCH   1  30
TORSDOF 10
ENDMDL
MODEL 2
REMARK VINA RESULT:      -5.0     19.167     21.844
REMARK  Name = 
REMARK  14 active torsions:
REMARK  status: ('A' for Active; 'I' for Inactive)
REMARK    1  A    between atoms: S_2  and  C_21
REMARK    2  A    between atoms: S_2  and  C_27
REMARK    3  A    between atoms: O_4  and  C_16
REMARK    4  A    between atoms: O_5  and  C_18
REMARK    5  A    between atoms: O_6  and  C_20
REMARK    6  A    between atoms: N_8  and  C_23
REMARK    7  A    between atoms: N_9  and  C_15
REMARK    8  A    between atoms: C_10  and  C_17
REMARK    9  A    between atoms: C_11  and  C_19
REMARK   10  A    between atoms: C_14  and  C_15
REMARK   11  A    between atoms: C_15  and  C_22
REMARK   12  A    between atoms: C_17  and  C_24
REMARK   13  A    between atoms: C_22  and  C_25
REMARK   14  A    between atoms: C_24  and  C_26
REMARK                            x       y       z     vdW  Elec       q    Type
REMARK                         _______ _______ _______ _____ _____    ______ ____
ROOT
ATOM      1  C   UNL     1     -10.310   6.496  19.586  0.00  0.00    +0.000 C 
ENDROOT
BRANCH   1   3
ATOM      2  O   UNL     1     -12.426   5.605  20.352  0.00  0.00    +0.000 OA
ATOM      3  C   UNL     1     -11.043   5.242  20.155  0.00  0.00    +0.000 C 
ATOM      4  C   UNL     1     -10.922   3.996  19.252  0.00  0.00    +0.000 C 
ATOM      5  C   UNL     1     -11.760   2.840  19.812  0.00  0.00    +0.000 C 
ATOM      6  C   UNL     1     -13.212   3.287  20.022  0.00  0.00    +0.000 C 
ATOM      7  C   UNL     1     -13.263   4.571  20.877  0.00  0.00    +0.000 C 
BRANCH   7   8
ATOM      8  S   UNL     1     -12.917   4.252  22.657  0.00  0.00    +0.000 S 
ATOM      9  C   UNL     1     -14.528   4.719  23.332  0.00  0.00    +0.000 C 
ENDBRANCH   7   8
BRANCH   4  10
ATOM     10  O   UNL     1     -11.392   4.261  17.920  0.00  0.00    +0.000 OA
ATOM     11  H   UNL     1     -12.180   3.685  17.780  0.00  0.00    +0.000 HD
ENDBRANCH   4  10
BRANCH   5  12
ATOM     12  O   UNL     1     -11.698   1.737  18.895  0.00  0.00    +0.000 OA
ATOM     13  H   UNL     1     -12.029   2.091  18.045  0.00  0.00    +0.000 HD
ENDBRANCH   5  12
BRANCH   6  14
ATOM     14  O   UNL     1     -14.015   2.241  20.590  0.00  0.00    +0.000 OA
ATOM     15  H   UNL     1     -13.993   2.357  21.557  0.00  0.00    +0.000 HD
ENDBRANCH   6  14
ENDBRANCH   1   3
BRANCH   1  17
ATOM     16  O   UNL     1     -10.272   7.549  16.975  0.00  0.00    +0.000 OA
ATOM     17  N   UNL     1      -9.360   6.150  18.517  0.00  0.00    +0.000 N 
ATOM     18  C   UNL     1      -9.390   6.744  17.269  0.00  0.00    +0.000 C 
ATOM     19  H   UNL     1      -8.682   5.418  18.707  0.00  0.00    +0.000 HD
BRANCH  18  22
ATOM     20  N   UNL     1      -6.946   6.345  16.922  0.00  0.00    +0.000 NA
ATOM     21  C   UNL     1      -7.118   4.108  16.385  0.00  0.00    +0.000 C 
ATOM     22  C   UNL     1      -8.288   6.241  16.315  0.00  0.00    +0.000 C 
ATOM     23  C   UNL     1      -8.449   4.750  15.988  0.00  0.00    +0.000 C 
ATOM     24  C   UNL     1      -6.143   5.278  16.331  0.00  0.00    +0.000 C 
ATOM     25  C   UNL     1      -6.343   7.659  16.756  0.00  0.00    +0.000 C 
BRANCH  21  26
ATOM     26  C   UNL     1      -6.686   2.936  15.501  0.00  0.00    +0.000 C 
BRANCH  26  27
ATOM     27  C   UNL     1      -6.158   1.753  16.316  0.00  0.00    +0.000 C 
ATOM     28  C   UNL     1      -6.116   0.481  15.484  0.00  0.00    +0.000 C 
ENDBRANCH  26  27
ENDBRANCH  21  26
ENDBRANCH  18  22
ENDBRANCH   1  17
BRANCH   1  30
ATOM     29 CL   UNL     1      -8.380   8.436  20.002  0.00  0.00    +0.000 Cl
ATOM     30  C   UNL     1      -9.600   7.311  20.701  0.00  0.00    +0.000 C 
ATOM     31  C   UNL     1     -10.589   8.126  21.533  0.00  0.00    +0.000 C 
ENDBRANCH   1  30
TORSDOF 10
ENDMDL
MODEL 3
REMARK VINA RESULT:      -4.9      4.015      7.557
REMARK  Name = 
REMARK  14 active torsions:
REMARK  status: ('A' for Active; 'I' for Inactive)
REMARK    1  A    between atoms: S_2  and  C_21
REMARK    2  A    between atoms: S_2  and  C_27
REMARK    3  A    between atoms: O_4  and  C_16
REMARK    4  A    between atoms: O_5  and  C_18
REMARK    5  A    between atoms: O_6  and  C_20
REMARK    6  A    between atoms: N_8  and  C_23
REMARK    7  A    between atoms: N_9  and  C_15
REMARK    8  A    between atoms: C_10  and  C_17
REMARK    9  A    between atoms: C_11  and  C_19
REMARK   10  A    between atoms: C_14  and  C_15
REMARK   11  A    between atoms: C_15  and  C_22
REMARK   12  A    between atoms: C_17  and  C_24
REMARK   13  A    between atoms: C_22  and  C_25
REMARK   14  A    between atoms: C_24  and  C_26
REMARK                            x       y       z     vdW  Elec       q    Type
REMARK                         _______ _______ _______ _____ _____    ______ ____
ROOT
ATOM      1  C   UNL     1      -2.371  14.624   1.916  0.00  0.00    +0.000 C 
ENDROOT
BRANCH   1   3
ATOM      2  O   UNL     1      -3.738  13.474   0.282  0.00  0.00    +0.000 OA
ATOM      3  C   UNL     1      -3.395  14.795   0.751  0.00  0.00    +0.000 C 
ATOM      4  C   UNL     1      -4.658  15.585   1.153  0.00  0.00    +0.000 C 
ATOM      5  C   UNL     1      -5.667  15.614  -0.002  0.00  0.00    +0.000 C 
ATOM      6  C   UNL     1      -5.978  14.187  -0.474  0.00  0.00    +0.000 C 
ATOM      7  C   UNL     1      -4.673  13.430  -0.799  0.00  0.00    +0.000 C 
BRANCH   7   8
ATOM      8  S   UNL     1      -3.911  13.979  -2.382  0.00  0.00    +0.000 S 
ATOM      9  C   UNL     1      -2.564  12.775  -2.463  0.00  0.00    +0.000 C 
ENDBRANCH   7   8
BRANCH   4  10
ATOM     10  O   UNL     1      -5.316  14.989   2.283  0.00  0.00    +0.000 OA
ATOM     11  H   UNL     1      -5.173  15.599   3.046  0.00  0.00    +0.000 HD
ENDBRANCH   4  10
BRANCH   5  12
ATOM     12  O   UNL     1      -6.863  16.270   0.445  0.00  0.00    +0.000 OA
ATOM     13  H   UNL     1      -7.140  16.837  -0.304  0.00  0.00    +0.000 HD
ENDBRANCH   5  12
BRANCH   6  14
ATOM     14  O   UNL     1      -6.885  14.180  -1.586  0.00  0.00    +0.000 OA
ATOM     15  H   UNL     1      -6.692  13.380  -2.108  0.00  0.00    +0.000 HD
ENDBRANCH   6  14
ENDBRANCH   1   3
BRANCH   1  17
ATOM     16  O   UNL     1      -2.718  14.018   4.644  0.00  0.00    +0.000 OA
ATOM     17  N   UNL     1      -2.598  15.588   3.004  0.00  0.00    +0.000 N 
ATOM     18  C   UNL     1      -2.722  15.206   4.327  0.00  0.00    +0.000 C 
ATOM     19  H   UNL     1      -2.700  16.567   2.754  0.00  0.00    +0.000 HD
BRANCH  18  22
ATOM     20  N   UNL     1      -1.757  17.274   5.348  0.00  0.00    +0.000 NA
ATOM     21  C   UNL     1      -3.470  18.694   4.738  0.00  0.00    +0.000 C 
ATOM     22  C   UNL     1      -2.935  16.386   5.296  0.00  0.00    +0.000 C 
ATOM     23  C   UNL     1      -4.086  17.297   4.847  0.00  0.00    +0.000 C 
ATOM     24  C   UNL     1      -2.261  18.609   5.661  0.00  0.00    +0.000 C 
ATOM     25  C   UNL     1      -0.740  16.824   6.287  0.00  0.00    +0.000 C 
BRANCH  21  26
ATOM     26  C   UNL     1      -4.417  19.839   5.105  0.00  0.00    +0.000 C 
BRANCH  26  27
ATOM     27  C   UNL     1      -5.771  19.725   4.402  0.00  0.00    +0.000 C 
ATOM     28  C   UNL     1      -6.886  20.321   5.245  0.00  0.00    +0.000 C 
ENDBRANCH  26  27
ENDBRANCH  21  26
ENDBRANCH  18  22
ENDBRANCH   1  17
BRANCH   1  30
ATOM     29 CL   UNL     1      -0.405  13.166   0.623  0.00  0.00    +0.000 Cl
ATOM     30  C   UNL     1      -0.902  14.704   1.417  0.00  0.00    +0.000 C 
ATOM     31  C   UNL     1      -0.696  15.848   0.426  0.00  0.00    +0.000 C 
ENDBRANCH   1  30
TORSDOF 10
ENDMDL
MODEL 4
REMARK VINA RESULT:      -4.8     21.774     23.530
REMARK  Name = 
REMARK  14 active torsions:
REMARK  status: ('A' for Active; 'I' for Inactive)
REMARK    1  A    between atoms: S_2  and  C_21
REMARK    2  A    between atoms: S_2  and  C_27
REMARK    3  A    between atoms: O_4  and  C_16
REMARK    4  A    between atoms: O_5  and  C_18
REMARK    5  A    between atoms: O_6  and  C_20
REMARK    6  A    between atoms: N_8  and  C_23
REMARK    7  A    between atoms: N_9  and  C_15
REMARK    8  A    between atoms: C_10  and  C_17
REMARK    9  A    between atoms: C_11  and  C_19
REMARK   10  A    between atoms: C_14  and  C_15
REMARK   11  A    between atoms: C_15  and  C_22
REMARK   12  A    between atoms: C_17  and  C_24
REMARK   13  A    between atoms: C_22  and  C_25
REMARK   14  A    between atoms: C_24  and  C_26
REMARK                            x       y       z     vdW  Elec       q    Type
REMARK                         _______ _______ _______ _____ _____    ______ ____
ROOT
ATOM      1  C   UNL     1     -24.391  14.639   5.973  0.00  0.00    +0.000 C 
ENDROOT
BRANCH   1   3
ATOM      2  O   UNL     1     -24.922  14.536   8.332  0.00  0.00    +0.000 OA
ATOM      3  C   UNL     1     -23.827  14.378   7.404  0.00  0.00    +0.000 C 
ATOM      4  C   UNL     1     -23.165  12.992   7.561  0.00  0.00    +0.000 C 
ATOM      5  C   UNL     1     -22.741  12.758   9.016  0.00  0.00    +0.000 C 
ATOM      6  C   UNL     1     -23.935  12.961   9.959  0.00  0.00    +0.000 C 
ATOM      7  C   UNL     1     -24.592  14.334   9.709  0.00  0.00    +0.000 C 
BRANCH   7   8
ATOM      8  S   UNL     1     -23.597  15.729  10.382  0.00  0.00    +0.000 S 
ATOM      9  C   UNL     1     -24.836  16.431  11.496  0.00  0.00    +0.000 C 
ENDBRANCH   7   8
BRANCH   4  10
ATOM     10  O   UNL     1     -24.066  11.932   7.200  0.00  0.00    +0.000 OA
ATOM     11  H   UNL     1     -24.586  11.717   8.011  0.00  0.00    +0.000 HD
ENDBRANCH   4  10
BRANCH   5  12
ATOM     12  O   UNL     1     -22.221  11.425   9.138  0.00  0.00    +0.000 OA
ATOM     13  H   UNL     1     -22.862  10.856   8.667  0.00  0.00    +0.000 HD
ENDBRANCH   5  12
BRANCH   6  14
ATOM     14  O   UNL     1     -23.562  12.795  11.334  0.00  0.00    +0.000 OA
ATOM     15  H   UNL     1     -22.722  13.271  11.462  0.00  0.00    +0.000 HD
ENDBRANCH   6  14
ENDBRANCH   1   3
BRANCH   1  17
ATOM     16  O   UNL     1     -26.509  13.875   4.282  0.00  0.00    +0.000 OA
ATOM     17  N   UNL     1     -24.469  13.408   5.170  0.00  0.00    +0.000 N 
ATOM     18  C   UNL     1     -25.534  13.127   4.335  0.00  0.00    +0.000 C 
ATOM     19  H   UNL     1     -23.719  12.731   5.271  0.00  0.00    +0.000 HD
BRANCH  18  22
ATOM     20  N   UNL     1     -23.990  11.510   3.216  0.00  0.00    +0.000 NA
ATOM     21  C   UNL     1     -24.605   9.660   4.451  0.00  0.00    +0.000 C 
ATOM     22  C   UNL     1     -25.393  11.791   3.578  0.00  0.00    +0.000 C 
ATOM     23  C   UNL     1     -25.817  10.595   4.441  0.00  0.00    +0.000 C 
ATOM     24  C   UNL     1     -23.857  10.055   3.183  0.00  0.00    +0.000 C 
ATOM     25  C   UNL     1     -23.583  12.139   1.968  0.00  0.00    +0.000 C 
BRANCH  21  26
ATOM     26  C   UNL     1     -24.950   8.170   4.495  0.00  0.00    +0.000 C 
BRANCH  26  27
ATOM     27  C   UNL     1     -24.798   7.577   5.897  0.00  0.00    +0.000 C 
ATOM     28  C   UNL     1     -24.438   6.101   5.840  0.00  0.00    +0.000 C 
ENDBRANCH  26  27
ENDBRANCH  21  26
ENDBRANCH  18  22
ENDBRANCH   1  17
BRANCH   1  30
ATOM     29 CL   UNL     1     -22.685  16.782   6.372  0.00  0.00    +0.000 Cl
ATOM     30  C   UNL     1     -23.580  15.729   5.218  0.00  0.00    +0.000 C 
ATOM     31  C   UNL     1     -22.576  15.120   4.240  0.00  0.00    +0.000 C 
ENDBRANCH   1  30
TORSDOF 10
ENDMDL
MODEL 5
REMARK VINA RESULT:      -4.7     22.015     24.502
REMARK  Name = 
REMARK  14 active torsions:
REMARK  status: ('A' for Active; 'I' for Inactive)
REMARK    1  A    between atoms: S_2  and  C_21
REMARK    2  A    between atoms: S_2  and  C_27
REMARK    3  A    between atoms: O_4  and  C_16
REMARK    4  A    between atoms: O_5  and  C_18
REMARK    5  A    between atoms: O_6  and  C_20
REMARK    6  A    between atoms: N_8  and  C_23
REMARK    7  A    between atoms: N_9  and  C_15
REMARK    8  A    between atoms: C_10  and  C_17
REMARK    9  A    between atoms: C_11  and  C_19
REMARK   10  A    between atoms: C_14  and  C_15
REMARK   11  A    between atoms: C_15  and  C_22
REMARK   12  A    between atoms: C_17  and  C_24
REMARK   13  A    between atoms: C_22  and  C_25
REMARK   14  A    between atoms: C_24  and  C_26
REMARK                            x       y       z     vdW  Elec       q    Type
REMARK                         _______ _______ _______ _____ _____    ______ ____
ROOT
ATOM      1  C   UNL     1     -12.310   3.432  22.286  0.00  0.00    +0.000 C 
ENDROOT
BRANCH   1   3
ATOM      2  O   UNL     1     -11.837   4.987  24.079  0.00  0.00    +0.000 OA
ATOM      3  C   UNL     1     -12.821   4.030  23.633  0.00  0.00    +0.000 C 
ATOM      4  C   UNL     1     -14.217   4.680  23.529  0.00  0.00    +0.000 C 
ATOM      5  C   UNL     1     -14.603   5.347  24.855  0.00  0.00    +0.000 C 
ATOM      6  C   UNL     1     -13.513   6.336  25.292  0.00  0.00    +0.000 C 
ATOM      7  C   UNL     1     -12.135   5.644  25.314  0.00  0.00    +0.000 C 
BRANCH   7   8
ATOM      8  S   UNL     1     -11.933   4.512  26.753  0.00  0.00    +0.000 S 
ATOM      9  C   UNL     1     -10.645   5.424  27.634  0.00  0.00    +0.000 C 
ENDBRANCH   7   8
BRANCH   4  10
ATOM     10  O   UNL     1     -14.252   5.695  22.511  0.00  0.00    +0.000 OA
ATOM     11  H   UNL     1     -15.156   6.091  22.540  0.00  0.00    +0.000 HD
ENDBRANCH   4  10
BRANCH   5  12
ATOM     12  O   UNL     1     -15.859   6.022  24.685  0.00  0.00    +0.000 OA
ATOM     13  H   UNL     1     -15.684   6.954  24.924  0.00  0.00    +0.000 HD
ENDBRANCH   5  12
BRANCH   6  14
ATOM     14  O   UNL     1     -13.821   6.944  26.554  0.00  0.00    +0.000 OA
ATOM     15  H   UNL     1     -13.137   6.657  27.185  0.00  0.00    +0.000 HD
ENDBRANCH   6  14
ENDBRANCH   1   3
BRANCH   1  17
ATOM     16  O   UNL     1     -10.115   3.580  20.529  0.00  0.00    +0.000 OA
ATOM     17  N   UNL     1     -12.070   4.470  21.271  0.00  0.00    +0.000 N 
ATOM     18  C   UNL     1     -10.980   4.447  20.421  0.00  0.00    +0.000 C 
ATOM     19  H   UNL     1     -12.722   5.247  21.227  0.00  0.00    +0.000 HD
BRANCH  18  22
ATOM     20  N   UNL     1      -9.826   6.546  19.704  0.00  0.00    +0.000 NA
ATOM     21  C   UNL     1      -9.462   5.913  17.515  0.00  0.00    +0.000 C 
ATOM     22  C   UNL     1     -10.944   5.623  19.426  0.00  0.00    +0.000 C 
ATOM     23  C   UNL     1     -10.703   5.149  17.986  0.00  0.00    +0.000 C 
ATOM     24  C   UNL     1      -9.450   7.137  18.423  0.00  0.00    +0.000 C 
ATOM     25  C   UNL     1     -10.146   7.546  20.712  0.00  0.00    +0.000 C 
BRANCH  21  26
ATOM     26  C   UNL     1      -9.463   6.277  16.029  0.00  0.00    +0.000 C 
BRANCH  26  27
ATOM     27  C   UNL     1      -9.208   5.065  15.131  0.00  0.00    +0.000 C 
ATOM     28  C   UNL     1      -7.848   4.445  15.409  0.00  0.00    +0.000 C 
ENDBRANCH  26  27
ENDBRANCH  21  26
ENDBRANCH  18  22
ENDBRANCH   1  17
BRANCH   1  30
ATOM     29 CL   UNL     1     -14.047   2.883  20.202  0.00  0.00    +0.000 Cl
ATOM     30  C   UNL     1     -13.269   2.342  21.733  0.00  0.00    +0.000 C 
ATOM     31  C   UNL     1     -12.543   1.024  21.467  0.00  0.00    +0.000 C 
ENDBRANCH   1  30
TORSDOF 10
ENDMDL
MODEL 6
REMARK VINA RESULT:      -4.6     20.035     22.618
REMARK  Name = 
REMARK  14 active torsions:
REMARK  status: ('A' for Active; 'I' for Inactive)
REMARK    1  A    between atoms: S_2  and  C_21
REMARK    2  A    between atoms: S_2  and  C_27
REMARK    3  A    between atoms: O_4  and  C_16
REMARK    4  A    between atoms: O_5  and  C_18
REMARK    5  A    between atoms: O_6  and  C_20
REMARK    6  A    between atoms: N_8  and  C_23
REMARK    7  A    between atoms: N_9  and  C_15
REMARK    8  A    between atoms: C_10  and  C_17
REMARK    9  A    between atoms: C_11  and  C_19
REMARK   10  A    between atoms: C_14  and  C_15
REMARK   11  A    between atoms: C_15  and  C_22
REMARK   12  A    between atoms: C_17  and  C_24
REMARK   13  A    between atoms: C_22  and  C_25
REMARK   14  A    between atoms: C_24  and  C_26
REMARK                            x       y       z     vdW  Elec       q    Type
REMARK                         _______ _______ _______ _____ _____    ______ ____
ROOT
ATOM      1  C   UNL     1     -10.309   4.818  20.051  0.00  0.00    +0.000 C 
ENDROOT
BRANCH   1   3
ATOM      2  O   UNL     1     -12.493   3.902  20.550  0.00  0.00    +0.000 OA
ATOM      3  C   UNL     1     -11.090   3.563  20.551  0.00  0.00    +0.000 C 
ATOM      4  C   UNL     1     -10.827   2.298  19.707  0.00  0.00    +0.000 C 
ATOM      5  C   UNL     1     -11.712   1.139  20.180  0.00  0.00    +0.000 C 
ATOM      6  C   UNL     1     -13.188   1.561  20.182  0.00  0.00    +0.000 C 
ATOM      7  C   UNL     1     -13.375   2.864  20.986  0.00  0.00    +0.000 C 
BRANCH   7   8
ATOM      8  S   UNL     1     -13.266   2.596  22.805  0.00  0.00    +0.000 S 
ATOM      9  C   UNL     1     -13.610   4.287  23.346  0.00  0.00    +0.000 C 
ENDBRANCH   7   8
BRANCH   4  10
ATOM     10  O   UNL     1     -11.117   2.520  18.317  0.00  0.00    +0.000 OA
ATOM     11  H   UNL     1     -10.914   1.675  17.849  0.00  0.00    +0.000 HD
ENDBRANCH   4  10
BRANCH   5  12
ATOM     12  O   UNL     1     -11.509   0.015  19.310  0.00  0.00    +0.000 OA
ATOM     13  H   UNL     1     -11.508   0.388  18.406  0.00  0.00    +0.000 HD
ENDBRANCH   5  12
BRANCH   6  14
ATOM     14  O   UNL     1     -14.041   0.513  20.665  0.00  0.00    +0.000 OA
ATOM     15  H   UNL     1     -14.917   0.650  20.261  0.00  0.00    +0.000 HD
ENDBRANCH   6  14
ENDBRANCH   1   3
BRANCH   1  17
ATOM     16  O   UNL     1      -9.771   5.236  17.319  0.00  0.00    +0.000 OA
ATOM     17  N   UNL     1      -9.073   4.458  19.338  0.00  0.00    +0.000 N 
ATOM     18  C   UNL     1      -8.876   4.733  17.997  0.00  0.00    +0.000 C 
ATOM     19  H   UNL     1      -8.358   3.956  19.856  0.00  0.00    +0.000 HD
BRANCH  18  22
ATOM     20  N   UNL     1      -7.606   3.099  16.595  0.00  0.00    +0.000 NA
ATOM     21  C   UNL     1      -6.564   4.658  15.251  0.00  0.00    +0.000 C 
ATOM     22  C   UNL     1      -7.500   4.285  17.467  0.00  0.00    +0.000 C 
ATOM     23  C   UNL     1      -6.849   5.357  16.582  0.00  0.00    +0.000 C 
ATOM     24  C   UNL     1      -6.502   3.187  15.643  0.00  0.00    +0.000 C 
ATOM     25  C   UNL     1      -7.613   1.844  17.333  0.00  0.00    +0.000 C 
BRANCH  21  26
ATOM     26  C   UNL     1      -5.297   5.135  14.538  0.00  0.00    +0.000 C 
BRANCH  26  27
ATOM     27  C   UNL     1      -4.046   4.393  15.013  0.00  0.00    +0.000 C 
ATOM     28  C   UNL     1      -3.136   5.303  15.823  0.00  0.00    +0.000 C 
ENDBRANCH  26  27
ENDBRANCH  21  26
ENDBRANCH  18  22
ENDBRANCH   1  17
BRANCH   1  30
ATOM     29 CL   UNL     1     -11.290   7.057  21.350  0.00  0.00    +0.000 Cl
ATOM     30  C   UNL     1     -10.000   5.809  21.207  0.00  0.00    +0.000 C 
ATOM     31  C   UNL     1      -9.865   5.096  22.552  0.00  0.00    +0.000 C 
ENDBRANCH   1  30
TORSDOF 10
ENDMDL
MODEL 7
REMARK VINA RESULT:      -4.6     25.353     28.274
REMARK  Name = 
REMARK  14 active torsions:
REMARK  status: ('A' for Active; 'I' for Inactive)
REMARK    1  A    between atoms: S_2  and  C_21
REMARK    2  A    between atoms: S_2  and  C_27
REMARK    3  A    between atoms: O_4  and  C_16
REMARK    4  A    between atoms: O_5  and  C_18
REMARK    5  A    between atoms: O_6  and  C_20
REMARK    6  A    between atoms: N_8  and  C_23
REMARK    7  A    between atoms: N_9  and  C_15
REMARK    8  A    between atoms: C_10  and  C_17
REMARK    9  A    between atoms: C_11  and  C_19
REMARK   10  A    between atoms: C_14  and  C_15
REMARK   11  A    between atoms: C_15  and  C_22
REMARK   12  A    between atoms: C_17  and  C_24
REMARK   13  A    between atoms: C_22  and  C_25
REMARK   14  A    between atoms: C_24  and  C_26
REMARK                            x       y       z     vdW  Elec       q    Type
REMARK                         _______ _______ _______ _____ _____    ______ ____
ROOT
ATOM      1  C   UNL     1     -16.004   4.340  25.581  0.00  0.00    +0.000 C 
ENDROOT
BRANCH   1   3
ATOM      2  O   UNL     1     -18.422   4.295  25.489  0.00  0.00    +0.000 OA
ATOM      3  C   UNL     1     -17.248   4.087  24.675  0.00  0.00    +0.000 C 
ATOM      4  C   UNL     1     -17.283   4.977  23.415  0.00  0.00    +0.000 C 
ATOM      5  C   UNL     1     -18.586   4.758  22.635  0.00  0.00    +0.000 C 
ATOM      6  C   UNL     1     -19.798   4.970  23.552  0.00  0.00    +0.000 C 
ATOM      7  C   UNL     1     -19.672   4.103  24.822  0.00  0.00    +0.000 C 
BRANCH   7   8
ATOM      8  S   UNL     1     -20.005   2.321  24.499  0.00  0.00    +0.000 S 
ATOM      9  C   UNL     1     -19.725   1.689  26.170  0.00  0.00    +0.000 C 
ENDBRANCH   7   8
BRANCH   4  10
ATOM     10  O   UNL     1     -17.213   6.372  23.751  0.00  0.00    +0.000 OA
ATOM     11  H   UNL     1     -18.108   6.627  24.080  0.00  0.00    +0.000 HD
ENDBRANCH   4  10
BRANCH   5  12
ATOM     12  O   UNL     1     -18.622   5.672  21.529  0.00  0.00    +0.000 OA
ATOM     13  H   UNL     1     -18.330   5.149  20.755  0.00  0.00    +0.000 HD
ENDBRANCH   5  12
BRANCH   6  14
ATOM     14  O   UNL     1     -21.034   4.727  22.866  0.00  0.00    +0.000 OA
ATOM     15  H   UNL     1     -20.951   3.864  22.423  0.00  0.00    +0.000 HD
ENDBRANCH   6  14
ENDBRANCH   1   3
BRANCH   1  17
ATOM     16  O   UNL     1     -14.516   6.693  25.153  0.00  0.00    +0.000 OA
ATOM     17  N   UNL     1     -14.761   4.460  24.802  0.00  0.00    +0.000 N 
ATOM     18  C   UNL     1     -14.072   5.652  24.672  0.00  0.00    +0.000 C 
ATOM     19  H   UNL     1     -14.427   3.633  24.317  0.00  0.00    +0.000 HD
BRANCH  18  22
ATOM     20  N   UNL     1     -13.010   5.945  22.427  0.00  0.00    +0.000 NA
ATOM     21  C   UNL     1     -11.302   7.332  23.123  0.00  0.00    +0.000 C 
ATOM     22  C   UNL     1     -12.787   5.537  23.828  0.00  0.00    +0.000 C 
ATOM     23  C   UNL     1     -11.683   6.476  24.333  0.00  0.00    +0.000 C 
ATOM     24  C   UNL     1     -11.736   6.470  21.943  0.00  0.00    +0.000 C 
ATOM     25  C   UNL     1     -13.529   4.872  21.593  0.00  0.00    +0.000 C 
BRANCH  21  26
ATOM     26  C   UNL     1      -9.825   7.724  23.058  0.00  0.00    +0.000 C 
BRANCH  26  27
ATOM     27  C   UNL     1      -9.617   9.237  23.162  0.00  0.00    +0.000 C 
ATOM     28  C   UNL     1      -9.485   9.875  21.788  0.00  0.00    +0.000 C 
ENDBRANCH  26  27
ENDBRANCH  21  26
ENDBRANCH  18  22
ENDBRANCH   1  17
BRANCH   1  30
ATOM     29 CL   UNL     1     -14.523   2.108  26.278  0.00  0.00    +0.000 Cl
ATOM     30  C   UNL     1     -15.853   3.253  26.681  0.00  0.00    +0.000 C 
ATOM     31  C   UNL     1     -15.567   3.863  28.053  0.00  0.00    +0.000 C 
ENDBRANCH   1  30
TORSDOF 10
ENDMDL
MODEL 8
REMARK VINA RESULT:      -4.5      3.887      8.162
REMARK  Name = 
REMARK  14 active torsions:
REMARK  status: ('A' for Active; 'I' for Inactive)
REMARK    1  A    between atoms: S_2  and  C_21
REMARK    2  A    between atoms: S_2  and  C_27
REMARK    3  A    between atoms: O_4  and  C_16
REMARK    4  A    between atoms: O_5  and  C_18
REMARK    5  A    between atoms: O_6  and  C_20
REMARK    6  A    between atoms: N_8  and  C_23
REMARK    7  A    between atoms: N_9  and  C_15
REMARK    8  A    between atoms: C_10  and  C_17
REMARK    9  A    between atoms: C_11  and  C_19
REMARK   10  A    between atoms: C_14  and  C_15
REMARK   11  A    between atoms: C_15  and  C_22
REMARK   12  A    between atoms: C_17  and  C_24
REMARK   13  A    between atoms: C_22  and  C_25
REMARK   14  A    between atoms: C_24  and  C_26
REMARK                            x       y       z     vdW  Elec       q    Type
REMARK                         _______ _______ _______ _____ _____    ______ ____
ROOT
ATOM      1  C   UNL     1      -2.225  14.666   2.202  0.00  0.00    +0.000 C 
ENDROOT
BRANCH   1   3
ATOM      2  O   UNL     1      -3.660  13.600   0.571  0.00  0.00    +0.000 OA
ATOM      3  C   UNL     1      -3.260  14.898   1.059  0.00  0.00    +0.000 C 
ATOM      4  C   UNL     1      -4.487  15.726   1.499  0.00  0.00    +0.000 C 
ATOM      5  C   UNL     1      -5.514  15.814   0.363  0.00  0.00    +0.000 C 
ATOM      6  C   UNL     1      -5.885  14.410  -0.132  0.00  0.00    +0.000 C 
ATOM      7  C   UNL     1      -4.615  13.613  -0.494  0.00  0.00    +0.000 C 
BRANCH   7   8
ATOM      8  S   UNL     1      -3.859  14.165  -2.080  0.00  0.00    +0.000 S 
ATOM      9  C   UNL     1      -2.840  12.709  -2.413  0.00  0.00    +0.000 C 
ENDBRANCH   7   8
BRANCH   4  10
ATOM     10  O   UNL     1      -5.148  15.131   2.629  0.00  0.00    +0.000 OA
ATOM     11  H   UNL     1      -5.224  14.167   2.435  0.00  0.00    +0.000 HD
ENDBRANCH   4  10
BRANCH   5  12
ATOM     12  O   UNL     1      -6.677  16.505   0.843  0.00  0.00    +0.000 OA
ATOM     13  H   UNL     1      -6.945  17.096   0.111  0.00  0.00    +0.000 HD
ENDBRANCH   5  12
BRANCH   6  14
ATOM     14  O   UNL     1      -6.810  14.458  -1.228  0.00  0.00    +0.000 OA
ATOM     15  H   UNL     1      -6.756  15.353  -1.609  0.00  0.00    +0.000 HD
ENDBRANCH   6  14
ENDBRANCH   1   3
BRANCH   1  17
ATOM     16  O   UNL     1      -2.968  14.731   4.917  0.00  0.00    +0.000 OA
ATOM     17  N   UNL     1      -2.126  15.821   3.108  0.00  0.00    +0.000 N 
ATOM     18  C   UNL     1      -2.481  15.756   4.443  0.00  0.00    +0.000 C 
ATOM     19  H   UNL     1      -1.815  16.704   2.715  0.00  0.00    +0.000 HD
BRANCH  18  22
ATOM     20  N   UNL     1      -3.555  17.660   5.658  0.00  0.00    +0.000 NA
ATOM     21  C   UNL     1      -2.346  17.441   7.612  0.00  0.00    +0.000 C 
ATOM     22  C   UNL     1      -2.275  17.081   5.205  0.00  0.00    +0.000 C 
ATOM     23  C   UNL     1      -1.464  16.882   6.493  0.00  0.00    +0.000 C 
ATOM     24  C   UNL     1      -3.259  18.413   6.874  0.00  0.00    +0.000 C 
ATOM     25  C   UNL     1      -4.210  18.469   4.641  0.00  0.00    +0.000 C 
BRANCH  21  26
ATOM     26  C   UNL     1      -1.579  18.103   8.758  0.00  0.00    +0.000 C 
BRANCH  26  27
ATOM     27  C   UNL     1      -0.462  17.211   9.304  0.00  0.00    +0.000 C 
ATOM     28  C   UNL     1       0.878  17.931   9.293  0.00  0.00    +0.000 C 
ENDBRANCH  26  27
ENDBRANCH  21  26
ENDBRANCH  18  22
ENDBRANCH   1  17
BRANCH   1  30
ATOM     29 CL   UNL     1      -0.114  15.645   0.704  0.00  0.00    +0.000 Cl
ATOM     30  C   UNL     1      -0.823  14.288   1.649  0.00  0.00    +0.000 C 
ATOM     31  C   UNL     1       0.151  13.915   2.766  0.00  0.00    +0.000 C 
ENDBRANCH   1  30
TORSDOF 10
ENDMDL
MODEL 9
REMARK VINA RESULT:      -4.5     25.480     28.302
REMARK  Name = 
REMARK  14 active torsions:
REMARK  status: ('A' for Active; 'I' for Inactive)
REMARK    1  A    between atoms: S_2  and  C_21
REMARK    2  A    between atoms: S_2  and  C_27
REMARK    3  A    between atoms: O_4  and  C_16
REMARK    4  A    between atoms: O_5  and  C_18
REMARK    5  A    between atoms: O_6  and  C_20
REMARK    6  A    between atoms: N_8  and  C_23
REMARK    7  A    between atoms: N_9  and  C_15
REMARK    8  A    between atoms: C_10  and  C_17
REMARK    9  A    between atoms: C_11  and  C_19
REMARK   10  A    between atoms: C_14  and  C_15
REMARK   11  A    between atoms: C_15  and  C_22
REMARK   12  A    between atoms: C_17  and  C_24
REMARK   13  A    between atoms: C_22  and  C_25
REMARK   14  A    between atoms: C_24  and  C_26
REMARK                            x       y       z     vdW  Elec       q    Type
REMARK                         _______ _______ _______ _____ _____    ______ ____
ROOT
ATOM      1  C   UNL     1     -15.785   4.550  25.765  0.00  0.00    +0.000 C 
ENDROOT
BRANCH   1   3
ATOM      2  O   UNL     1     -18.197   4.424  25.613  0.00  0.00    +0.000 OA
ATOM      3  C   UNL     1     -16.997   4.253  24.830  0.00  0.00    +0.000 C 
ATOM      4  C   UNL     1     -17.031   5.138  23.565  0.00  0.00    +0.000 C 
ATOM      5  C   UNL     1     -18.306   4.873  22.755  0.00  0.00    +0.000 C 
ATOM      6  C   UNL     1     -19.547   5.047  23.642  0.00  0.00    +0.000 C 
ATOM      7  C   UNL     1     -19.424   4.189  24.917  0.00  0.00    +0.000 C 
BRANCH   7   8
ATOM      8  S   UNL     1     -19.689   2.395  24.592  0.00  0.00    +0.000 S 
ATOM      9  C   UNL     1     -21.295   2.211  25.403  0.00  0.00    +0.000 C 
ENDBRANCH   7   8
BRANCH   4  10
ATOM     10  O   UNL     1     -17.016   6.536  23.899  0.00  0.00    +0.000 OA
ATOM     11  H   UNL     1     -17.927   6.762  24.204  0.00  0.00    +0.000 HD
ENDBRANCH   4  10
BRANCH   5  12
ATOM     12  O   UNL     1     -18.346   5.782  21.645  0.00  0.00    +0.000 OA
ATOM     13  H   UNL     1     -18.018   5.268  20.881  0.00  0.00    +0.000 HD
ENDBRANCH   5  12
BRANCH   6  14
ATOM     14  O   UNL     1     -20.758   4.762  22.926  0.00  0.00    +0.000 OA
ATOM     15  H   UNL     1     -21.083   3.901  23.246  0.00  0.00    +0.000 HD
ENDBRANCH   6  14
ENDBRANCH   1   3
BRANCH   1  17
ATOM     16  O   UNL     1     -14.340   6.941  25.412  0.00  0.00    +0.000 OA
ATOM     17  N   UNL     1     -14.529   4.710  25.016  0.00  0.00    +0.000 N 
ATOM     18  C   UNL     1     -13.863   5.919  24.923  0.00  0.00    +0.000 C 
ATOM     19  H   UNL     1     -14.166   3.900  24.524  0.00  0.00    +0.000 HD
BRANCH  18  22
ATOM     20  N   UNL     1     -11.866   4.555  24.285  0.00  0.00    +0.000 NA
ATOM     21  C   UNL     1     -12.179   4.679  22.003  0.00  0.00    +0.000 C 
ATOM     22  C   UNL     1     -12.558   5.847  24.105  0.00  0.00    +0.000 C 
ATOM     23  C   UNL     1     -12.821   5.936  22.596  0.00  0.00    +0.000 C 
ATOM     24  C   UNL     1     -11.135   4.303  23.047  0.00  0.00    +0.000 C 
ATOM     25  C   UNL     1     -11.008   4.524  25.460  0.00  0.00    +0.000 C 
BRANCH  21  26
ATOM     26  C   UNL     1     -11.582   4.866  20.607  0.00  0.00    +0.000 C 
BRANCH  26  27
ATOM     27  C   UNL     1     -11.176   6.316  20.335  0.00  0.00    +0.000 C 
ATOM     28  C   UNL     1     -11.343   6.673  18.866  0.00  0.00    +0.000 C 
ENDBRANCH  26  27
ENDBRANCH  21  26
ENDBRANCH  18  22
ENDBRANCH   1  17
BRANCH   1  30
ATOM     29 CL   UNL     1     -15.913   1.821  26.210  0.00  0.00    +0.000 Cl
ATOM     30  C   UNL     1     -15.624   3.471  26.871  0.00  0.00    +0.000 C 
ATOM     31  C   UNL     1     -14.233   3.502  27.503  0.00  0.00    +0.000 C 
ENDBRANCH   1  30
TORSDOF 10
ENDMDL
