MODEL 1
REMARK VINA RESULT:      -5.4      0.000      0.000
REMARK  Name = 
REMARK  5 active torsions:
REMARK  status: ('A' for Active; 'I' for Inactive)
REMARK    1  A    between atoms: O_5  and  C_10
REMARK    2  A    between atoms: N_9  and  C_20
REMARK    3  A    between atoms: N_9  and  C_25
REMARK    4  A    between atoms: C_10  and  C_11
REMARK    5  A    between atoms: C_18  and  C_19
REMARK                            x       y       z     vdW  Elec       q    Type
REMARK                         _______ _______ _______ _____ _____    ______ ____
ROOT
ATOM      1  F   UNL     1     -15.028  11.597  -3.032  0.00  0.00    +0.000 F 
ATOM      2  F   UNL     1     -14.650  12.461  -0.502  0.00  0.00    +0.000 F 
ATOM      3  C   UNL     1     -15.336   8.472  -1.193  0.00  0.00    +0.000 A 
ATOM      4  C   UNL     1     -15.310   9.348  -2.301  0.00  0.00    +0.000 A 
ATOM      5  C   UNL     1     -15.124   8.927   0.119  0.00  0.00    +0.000 A 
ATOM      6  C   UNL     1     -15.083  10.704  -2.032  0.00  0.00    +0.000 A 
ATOM      7  C   UNL     1     -14.891  10.281   0.348  0.00  0.00    +0.000 A 
ATOM      8  C   UNL     1     -14.872  11.158  -0.729  0.00  0.00    +0.000 A 
ENDROOT
BRANCH   3  14
ATOM      9  O   UNL     1     -14.719   6.325  -1.868  0.00  0.00    +0.000 OA
ATOM     10  N   UNL     1     -16.884   6.596  -1.136  0.00  0.00    +0.000 N 
ATOM     11  C   UNL     1     -18.621   6.170  -2.212  0.00  0.00    +0.000 C 
ATOM     12  C   UNL     1     -18.142   7.325  -1.287  0.00  0.00    +0.000 C 
ATOM     13  C   UNL     1     -17.461   5.333  -1.594  0.00  0.00    +0.000 C 
ATOM     14  C   UNL     1     -15.609   7.035  -1.412  0.00  0.00    +0.000 C 
BRANCH  11  16
ATOM     15  N   UNL     1     -19.246   5.356  -4.470  0.00  0.00    +0.000 NA
ATOM     16  C   UNL     1     -18.451   6.377  -3.741  0.00  0.00    +0.000 C 
ATOM     17  C   UNL     1     -18.909   7.781  -4.176  0.00  0.00    +0.000 C 
ATOM     18  C   UNL     1     -18.760   7.962  -5.687  0.00  0.00    +0.000 C 
ATOM     19  C   UNL     1     -18.996   5.462  -5.915  0.00  0.00    +0.000 C 
ATOM     20  C   UNL     1     -19.432   6.825  -6.450  0.00  0.00    +0.000 C 
ATOM     21  H   UNL     1     -20.236   5.568  -4.324  0.00  0.00    +0.000 HD
ENDBRANCH  11  16
BRANCH  11  22
ATOM     22  O   UNL     1     -19.957   5.665  -1.922  0.00  0.00    +0.000 OA
ATOM     23  H   UNL     1     -19.881   5.363  -0.997  0.00  0.00    +0.000 HD
ENDBRANCH  11  22
ENDBRANCH   3  14
BRANCH   4  24
ATOM     24  N   UNL     1     -15.591   8.856  -3.594  0.00  0.00    +0.000 N 
ATOM     25  H   UNL     1     -16.595   8.752  -3.785  0.00  0.00    +0.000 HD
BRANCH  24  28
ATOM     26  I   UNL     1     -12.046   7.883  -8.712  0.00  0.00    +0.000 I 
ATOM     27  F   UNL     1     -15.306   6.379  -4.730  0.00  0.00    +0.000 F 
ATOM     28  C   UNL     1     -14.794   8.695  -4.743  0.00  0.00    +0.000 A 
ATOM     29  C   UNL     1     -14.654   7.408  -5.295  0.00  0.00    +0.000 A 
ATOM     30  C   UNL     1     -14.101   9.738  -5.363  0.00  0.00    +0.000 A 
ATOM     31  C   UNL     1     -13.875   7.159  -6.421  0.00  0.00    +0.000 A 
ATOM     32  C   UNL     1     -13.312   9.505  -6.497  0.00  0.00    +0.000 A 
ATOM     33  C   UNL     1     -13.204   8.218  -7.022  0.00  0.00    +0.000 A 
ENDBRANCH  24  28
ENDBRANCH   4  24
TORSDOF 5
ENDMDL
MODEL 2
REMARK VINA RESULT:      -5.3      3.068      4.940
REMARK  Name = 
REMARK  5 active torsions:
REMARK  status: ('A' for Active; 'I' for Inactive)
REMARK    1  A    between atoms: O_5  and  C_10
REMARK    2  A    between atoms: N_9  and  C_20
REMARK    3  A    between atoms: N_9  and  C_25
REMARK    4  A    between atoms: C_10  and  C_11
REMARK    5  A    between atoms: C_18  and  C_19
REMARK                            x       y       z     vdW  Elec       q    Type
REMARK                         _______ _______ _______ _____ _____    ______ ____
ROOT
ATOM      1  F   UNL     1     -11.777  12.833  -6.183  0.00  0.00    +0.000 F 
ATOM      2  F   UNL     1     -11.200  14.271  -3.972  0.00  0.00    +0.000 F 
ATOM      3  C   UNL     1     -14.637  12.026  -4.082  0.00  0.00    +0.000 A 
ATOM      4  C   UNL     1     -13.796  12.018  -5.217  0.00  0.00    +0.000 A 
ATOM      5  C   UNL     1     -14.322  12.766  -2.929  0.00  0.00    +0.000 A 
ATOM      6  C   UNL     1     -12.635  12.801  -5.152  0.00  0.00    +0.000 A 
ATOM      7  C   UNL     1     -13.155  13.525  -2.896  0.00  0.00    +0.000 A 
ATOM      8  C   UNL     1     -12.321  13.536  -4.007  0.00  0.00    +0.000 A 
ENDROOT
BRANCH   3  14
ATOM      9  O   UNL     1     -16.963  11.850  -4.150  0.00  0.00    +0.000 OA
ATOM     10  N   UNL     1     -15.780   9.879  -4.023  0.00  0.00    +0.000 N 
ATOM     11  C   UNL     1     -15.957   8.419  -2.543  0.00  0.00    +0.000 C 
ATOM     12  C   UNL     1     -14.779   9.100  -3.296  0.00  0.00    +0.000 C 
ATOM     13  C   UNL     1     -16.865   8.959  -3.687  0.00  0.00    +0.000 C 
ATOM     14  C   UNL     1     -15.894  11.249  -4.107  0.00  0.00    +0.000 C 
BRANCH  11  16
ATOM     15  N   UNL     1     -17.463   8.223  -0.582  0.00  0.00    +0.000 NA
ATOM     16  C   UNL     1     -16.338   9.005  -1.157  0.00  0.00    +0.000 C 
ATOM     17  C   UNL     1     -15.148   8.972  -0.182  0.00  0.00    +0.000 C 
ATOM     18  C   UNL     1     -15.546   9.528   1.186  0.00  0.00    +0.000 C 
ATOM     19  C   UNL     1     -17.917   8.842   0.671  0.00  0.00    +0.000 C 
ATOM     20  C   UNL     1     -16.803   8.848   1.716  0.00  0.00    +0.000 C 
ATOM     21  H   UNL     1     -17.108   7.294  -0.343  0.00  0.00    +0.000 HD
ENDBRANCH  11  16
BRANCH  11  22
ATOM     22  O   UNL     1     -15.875   6.965  -2.466  0.00  0.00    +0.000 OA
ATOM     23  H   UNL     1     -15.256   6.819  -1.727  0.00  0.00    +0.000 HD
ENDBRANCH  11  22
ENDBRANCH   3  14
BRANCH   4  24
ATOM     24  N   UNL     1     -14.184  11.311  -6.376  0.00  0.00    +0.000 N 
ATOM     25  H   UNL     1     -14.984  11.729  -6.863  0.00  0.00    +0.000 HD
BRANCH  24  28
ATOM     26  I   UNL     1     -11.386   6.895  -9.894  0.00  0.00    +0.000 I 
ATOM     27  F   UNL     1     -13.082  11.867  -8.821  0.00  0.00    +0.000 F 
ATOM     28  C   UNL     1     -13.562  10.289  -7.118  0.00  0.00    +0.000 A 
ATOM     29  C   UNL     1     -13.019  10.601  -8.377  0.00  0.00    +0.000 A 
ATOM     30  C   UNL     1     -13.474   8.961  -6.691  0.00  0.00    +0.000 A 
ATOM     31  C   UNL     1     -12.399   9.648  -9.180  0.00  0.00    +0.000 A 
ATOM     32  C   UNL     1     -12.854   7.988  -7.487  0.00  0.00    +0.000 A 
ATOM     33  C   UNL     1     -12.317   8.336  -8.726  0.00  0.00    +0.000 A 
ENDBRANCH  24  28
ENDBRANCH   4  24
TORSDOF 5
ENDMDL
MODEL 3
REMARK VINA RESULT:      -5.0     13.140     14.658
REMARK  Name = 
REMARK  5 active torsions:
REMARK  status: ('A' for Active; 'I' for Inactive)
REMARK    1  A    between atoms: O_5  and  C_10
REMARK    2  A    between atoms: N_9  and  C_20
REMARK    3  A    between atoms: N_9  and  C_25
REMARK    4  A    between atoms: C_10  and  C_11
REMARK    5  A    between atoms: C_18  and  C_19
REMARK                            x       y       z     vdW  Elec       q    Type
REMARK                         _______ _______ _______ _____ _____    ______ ____
ROOT
ATOM      1  F   UNL     1      -2.286   2.925   0.158  0.00  0.00    +0.000 F 
ATOM      2  F   UNL     1      -2.759   1.018  -1.693  0.00  0.00    +0.000 F 
ATOM      3  C   UNL     1      -4.848   0.964   1.842  0.00  0.00    +0.000 A 
ATOM      4  C   UNL     1      -3.897   1.990   1.643  0.00  0.00    +0.000 A 
ATOM      5  C   UNL     1      -5.099  -0.017   0.867  0.00  0.00    +0.000 A 
ATOM      6  C   UNL     1      -3.195   1.976   0.430  0.00  0.00    +0.000 A 
ATOM      7  C   UNL     1      -4.389   0.006  -0.330  0.00  0.00    +0.000 A 
ATOM      8  C   UNL     1      -3.443   1.002  -0.539  0.00  0.00    +0.000 A 
ENDROOT
BRANCH   3  14
ATOM      9  O   UNL     1      -5.131   0.251   4.046  0.00  0.00    +0.000 OA
ATOM     10  N   UNL     1      -6.807   1.557   3.159  0.00  0.00    +0.000 N 
ATOM     11  C   UNL     1      -8.823   1.044   2.993  0.00  0.00    +0.000 C 
ATOM     12  C   UNL     1      -7.773   1.734   2.076  0.00  0.00    +0.000 C 
ATOM     13  C   UNL     1      -7.845   1.347   4.167  0.00  0.00    +0.000 C 
ATOM     14  C   UNL     1      -5.594   0.906   3.118  0.00  0.00    +0.000 C 
BRANCH  11  16
ATOM     15  N   UNL     1     -10.442  -0.829   3.148  0.00  0.00    +0.000 NA
ATOM     16  C   UNL     1      -9.045  -0.478   2.785  0.00  0.00    +0.000 C 
ATOM     17  C   UNL     1      -8.781  -0.895   1.328  0.00  0.00    +0.000 C 
ATOM     18  C   UNL     1      -9.029  -2.391   1.132  0.00  0.00    +0.000 C 
ATOM     19  C   UNL     1     -10.630  -2.284   3.076  0.00  0.00    +0.000 C 
ATOM     20  C   UNL     1     -10.401  -2.799   1.656  0.00  0.00    +0.000 C 
ATOM     21  H   UNL     1     -11.061  -0.414   2.447  0.00  0.00    +0.000 HD
ENDBRANCH  11  16
BRANCH  11  22
ATOM     22  O   UNL     1     -10.106   1.729   3.078  0.00  0.00    +0.000 OA
ATOM     23  H   UNL     1     -10.749   1.014   2.914  0.00  0.00    +0.000 HD
ENDBRANCH  11  22
ENDBRANCH   3  14
BRANCH   4  24
ATOM     24  N   UNL     1      -3.634   2.916   2.675  0.00  0.00    +0.000 N 
ATOM     25  H   UNL     1      -4.263   2.821   3.481  0.00  0.00    +0.000 HD
BRANCH  24  28
ATOM     26  I   UNL     1       1.332   6.605   3.874  0.00  0.00    +0.000 I 
ATOM     27  F   UNL     1      -1.232   1.909   3.523  0.00  0.00    +0.000 F 
ATOM     28  C   UNL     1      -2.553   3.783   2.920  0.00  0.00    +0.000 A 
ATOM     29  C   UNL     1      -1.337   3.239   3.370  0.00  0.00    +0.000 A 
ATOM     30  C   UNL     1      -2.620   5.171   2.771  0.00  0.00    +0.000 A 
ATOM     31  C   UNL     1      -0.223   4.027   3.648  0.00  0.00    +0.000 A 
ATOM     32  C   UNL     1      -1.509   5.980   3.047  0.00  0.00    +0.000 A 
ATOM     33  C   UNL     1      -0.315   5.404   3.482  0.00  0.00    +0.000 A 
ENDBRANCH  24  28
ENDBRANCH   4  24
TORSDOF 5
ENDMDL
MODEL 4
REMARK VINA RESULT:      -5.0      4.448      6.393
REMARK  Name = 
REMARK  5 active torsions:
REMARK  status: ('A' for Active; 'I' for Inactive)
REMARK    1  A    between atoms: O_5  and  C_10
REMARK    2  A    between atoms: N_9  and  C_20
REMARK    3  A    between atoms: N_9  and  C_25
REMARK    4  A    between atoms: C_10  and  C_11
REMARK    5  A    between atoms: C_18  and  C_19
REMARK                            x       y       z     vdW  Elec       q    Type
REMARK                         _______ _______ _______ _____ _____    ______ ____
ROOT
ATOM      1  F   UNL     1     -16.678   2.824  -3.909  0.00  0.00    +0.000 F 
ATOM      2  F   UNL     1     -18.906   3.692  -5.164  0.00  0.00    +0.000 F 
ATOM      3  C   UNL     1     -17.729   5.487  -1.662  0.00  0.00    +0.000 A 
ATOM      4  C   UNL     1     -16.945   4.425  -2.166  0.00  0.00    +0.000 A 
ATOM      5  C   UNL     1     -18.880   5.943  -2.329  0.00  0.00    +0.000 A 
ATOM      6  C   UNL     1     -17.378   3.828  -3.358  0.00  0.00    +0.000 A 
ATOM      7  C   UNL     1     -19.274   5.331  -3.516  0.00  0.00    +0.000 A 
ATOM      8  C   UNL     1     -18.520   4.279  -4.021  0.00  0.00    +0.000 A 
ENDROOT
BRANCH   3  14
ATOM      9  O   UNL     1     -17.516   5.521   0.662  0.00  0.00    +0.000 OA
ATOM     10  N   UNL     1     -16.859   7.418  -0.465  0.00  0.00    +0.000 N 
ATOM     11  C   UNL     1     -17.599   9.349  -0.180  0.00  0.00    +0.000 C 
ATOM     12  C   UNL     1     -17.234   8.469  -1.410  0.00  0.00    +0.000 C 
ATOM     13  C   UNL     1     -16.749   8.348   0.658  0.00  0.00    +0.000 C 
ATOM     14  C   UNL     1     -17.343   6.131  -0.388  0.00  0.00    +0.000 C 
BRANCH  11  16
ATOM     15  N   UNL     1     -19.350  10.578   1.074  0.00  0.00    +0.000 NA
ATOM     16  C   UNL     1     -19.089   9.368   0.254  0.00  0.00    +0.000 C 
ATOM     17  C   UNL     1     -20.032   9.367  -0.962  0.00  0.00    +0.000 C 
ATOM     18  C   UNL     1     -21.495   9.413  -0.520  0.00  0.00    +0.000 C 
ATOM     19  C   UNL     1     -20.724  10.546   1.596  0.00  0.00    +0.000 C 
ATOM     20  C   UNL     1     -21.744  10.555   0.458  0.00  0.00    +0.000 C 
ATOM     21  H   UNL     1     -19.284  11.393   0.459  0.00  0.00    +0.000 HD
ENDBRANCH  11  16
BRANCH  11  22
ATOM     22  O   UNL     1     -17.073  10.707  -0.222  0.00  0.00    +0.000 OA
ATOM     23  H   UNL     1     -16.403  10.705   0.487  0.00  0.00    +0.000 HD
ENDBRANCH  11  22
ENDBRANCH   3  14
BRANCH   4  24
ATOM     24  N   UNL     1     -15.834   3.960  -1.430  0.00  0.00    +0.000 N 
ATOM     25  H   UNL     1     -16.061   3.708  -0.461  0.00  0.00    +0.000 HD
BRANCH  24  28
ATOM     26  I   UNL     1     -10.098   1.934  -3.072  0.00  0.00    +0.000 I 
ATOM     27  F   UNL     1     -15.175   1.301  -1.469  0.00  0.00    +0.000 F 
ATOM     28  C   UNL     1     -14.540   3.560  -1.813  0.00  0.00    +0.000 A 
ATOM     29  C   UNL     1     -14.226   2.188  -1.809  0.00  0.00    +0.000 A 
ATOM     30  C   UNL     1     -13.526   4.450  -2.175  0.00  0.00    +0.000 A 
ATOM     31  C   UNL     1     -12.968   1.709  -2.162  0.00  0.00    +0.000 A 
ATOM     32  C   UNL     1     -12.253   3.985  -2.532  0.00  0.00    +0.000 A 
ATOM     33  C   UNL     1     -11.981   2.617  -2.526  0.00  0.00    +0.000 A 
ENDBRANCH  24  28
ENDBRANCH   4  24
TORSDOF 5
ENDMDL
MODEL 5
REMARK VINA RESULT:      -4.8      2.549      3.671
REMARK  Name = 
REMARK  5 active torsions:
REMARK  status: ('A' for Active; 'I' for Inactive)
REMARK    1  A    between atoms: O_5  and  C_10
REMARK    2  A    between atoms: N_9  and  C_20
REMARK    3  A    between atoms: N_9  and  C_25
REMARK    4  A    between atoms: C_10  and  C_11
REMARK    5  A    between atoms: C_18  and  C_19
REMARK                            x       y       z     vdW  Elec       q    Type
REMARK                         _______ _______ _______ _____ _____    ______ ____
ROOT
ATOM      1  F   UNL     1     -13.632  12.861  -2.485  0.00  0.00    +0.000 F 
ATOM      2  F   UNL     1     -14.059  12.316   0.125  0.00  0.00    +0.000 F 
ATOM      3  C   UNL     1     -15.834   9.976  -2.745  0.00  0.00    +0.000 A 
ATOM      4  C   UNL     1     -15.018  11.049  -3.168  0.00  0.00    +0.000 A 
ATOM      5  C   UNL     1     -16.040   9.689  -1.384  0.00  0.00    +0.000 A 
ATOM      6  C   UNL     1     -14.434  11.834  -2.164  0.00  0.00    +0.000 A 
ATOM      7  C   UNL     1     -15.435  10.485  -0.415  0.00  0.00    +0.000 A 
ATOM      8  C   UNL     1     -14.636  11.551  -0.813  0.00  0.00    +0.000 A 
ENDROOT
BRANCH   3  14
ATOM      9  O   UNL     1     -17.622   9.462  -4.155  0.00  0.00    +0.000 OA
ATOM     10  N   UNL     1     -15.850   7.992  -4.154  0.00  0.00    +0.000 N 
ATOM     11  C   UNL     1     -15.929   5.954  -3.714  0.00  0.00    +0.000 C 
ATOM     12  C   UNL     1     -14.978   7.131  -3.357  0.00  0.00    +0.000 C 
ATOM     13  C   UNL     1     -16.461   6.867  -4.859  0.00  0.00    +0.000 C 
ATOM     14  C   UNL     1     -16.508   9.135  -3.758  0.00  0.00    +0.000 C 
BRANCH  11  16
ATOM     15  N   UNL     1     -17.611   4.273  -3.008  0.00  0.00    +0.000 NA
ATOM     16  C   UNL     1     -17.031   5.600  -2.679  0.00  0.00    +0.000 C 
ATOM     17  C   UNL     1     -16.470   5.566  -1.246  0.00  0.00    +0.000 C 
ATOM     18  C   UNL     1     -17.559   5.191  -0.241  0.00  0.00    +0.000 C 
ATOM     19  C   UNL     1     -18.739   3.982  -2.112  0.00  0.00    +0.000 C 
ATOM     20  C   UNL     1     -18.281   3.914  -0.656  0.00  0.00    +0.000 C 
ATOM     21  H   UNL     1     -16.896   3.565  -2.826  0.00  0.00    +0.000 HD
ENDBRANCH  11  16
BRANCH  11  22
ATOM     22  O   UNL     1     -15.259   4.740  -4.166  0.00  0.00    +0.000 OA
ATOM     23  H   UNL     1     -14.960   4.976  -5.064  0.00  0.00    +0.000 HD
ENDBRANCH  11  22
ENDBRANCH   3  14
BRANCH   4  24
ATOM     24  N   UNL     1     -14.892  11.337  -4.544  0.00  0.00    +0.000 N 
ATOM     25  H   UNL     1     -15.621  11.966  -4.900  0.00  0.00    +0.000 HD
BRANCH  24  28
ATOM     26  I   UNL     1     -10.187  10.630  -8.676  0.00  0.00    +0.000 I 
ATOM     27  F   UNL     1     -13.166  13.373  -5.161  0.00  0.00    +0.000 F 
ATOM     28  C   UNL     1     -13.852  11.123  -5.467  0.00  0.00    +0.000 A 
ATOM     29  C   UNL     1     -12.990  12.192  -5.776  0.00  0.00    +0.000 A 
ATOM     30  C   UNL     1     -13.634   9.911  -6.128  0.00  0.00    +0.000 A 
ATOM     31  C   UNL     1     -11.945  12.070  -6.688  0.00  0.00    +0.000 A 
ATOM     32  C   UNL     1     -12.587   9.771  -7.049  0.00  0.00    +0.000 A 
ATOM     33  C   UNL     1     -11.746  10.849  -7.322  0.00  0.00    +0.000 A 
ENDBRANCH  24  28
ENDBRANCH   4  24
TORSDOF 5
ENDMDL
MODEL 6
REMARK VINA RESULT:      -4.6     15.115     17.154
REMARK  Name = 
REMARK  5 active torsions:
REMARK  status: ('A' for Active; 'I' for Inactive)
REMARK    1  A    between atoms: O_5  and  C_10
REMARK    2  A    between atoms: N_9  and  C_20
REMARK    3  A    between atoms: N_9  and  C_25
REMARK    4  A    between atoms: C_10  and  C_11
REMARK    5  A    between atoms: C_18  and  C_19
REMARK                            x       y       z     vdW  Elec       q    Type
REMARK                         _______ _______ _______ _____ _____    ______ ____
ROOT
ATOM      1  F   UNL     1      -2.495   3.430  -0.992  0.00  0.00    +0.000 F 
ATOM      2  F   UNL     1      -3.598   1.441   0.462  0.00  0.00    +0.000 F 
ATOM      3  C   UNL     1      -1.845   4.618   2.386  0.00  0.00    +0.000 A 
ATOM      4  C   UNL     1      -1.843   4.608   0.973  0.00  0.00    +0.000 A 
ATOM      5  C   UNL     1      -2.435   3.585   3.136  0.00  0.00    +0.000 A 
ATOM      6  C   UNL     1      -2.442   3.506   0.346  0.00  0.00    +0.000 A 
ATOM      7  C   UNL     1      -3.029   2.511   2.479  0.00  0.00    +0.000 A 
ATOM      8  C   UNL     1      -3.028   2.480   1.090  0.00  0.00    +0.000 A 
ENDROOT
BRANCH   3  14
ATOM      9  O   UNL     1      -1.820   6.779   3.265  0.00  0.00    +0.000 OA
ATOM     10  N   UNL     1       0.109   5.545   3.499  0.00  0.00    +0.000 N 
ATOM     11  C   UNL     1       2.007   6.068   2.808  0.00  0.00    +0.000 C 
ATOM     12  C   UNL     1       1.151   4.770   2.830  0.00  0.00    +0.000 C 
ATOM     13  C   UNL     1       1.034   6.605   3.899  0.00  0.00    +0.000 C 
ATOM     14  C   UNL     1      -1.196   5.736   3.103  0.00  0.00    +0.000 C 
BRANCH  11  16
ATOM     15  N   UNL     1       2.836   8.109   1.669  0.00  0.00    +0.000 NA
ATOM     16  C   UNL     1       1.966   6.916   1.509  0.00  0.00    +0.000 C 
ATOM     17  C   UNL     1       2.438   6.106   0.289  0.00  0.00    +0.000 C 
ATOM     18  C   UNL     1       2.417   6.961  -0.978  0.00  0.00    +0.000 C 
ATOM     19  C   UNL     1       2.709   8.986   0.496  0.00  0.00    +0.000 C 
ATOM     20  C   UNL     1       3.168   8.272  -0.775  0.00  0.00    +0.000 C 
ATOM     21  H   UNL     1       3.807   7.787   1.696  0.00  0.00    +0.000 HD
ENDBRANCH  11  16
BRANCH  11  22
ATOM     22  O   UNL     1       3.385   5.900   3.252  0.00  0.00    +0.000 OA
ATOM     23  H   UNL     1       3.900   6.062   2.439  0.00  0.00    +0.000 HD
ENDBRANCH  11  22
ENDBRANCH   3  14
BRANCH   4  24
ATOM     24  N   UNL     1      -1.184   5.634   0.263  0.00  0.00    +0.000 N 
ATOM     25  H   UNL     1      -0.172   5.485   0.171  0.00  0.00    +0.000 HD
BRANCH  24  28
ATOM     26  I   UNL     1      -3.141  10.310  -3.480  0.00  0.00    +0.000 I 
ATOM     27  F   UNL     1      -0.423   5.826  -2.361  0.00  0.00    +0.000 F 
ATOM     28  C   UNL     1      -1.657   6.694  -0.532  0.00  0.00    +0.000 A 
ATOM     29  C   UNL     1      -1.237   6.775  -1.873  0.00  0.00    +0.000 A 
ATOM     30  C   UNL     1      -2.506   7.701  -0.063  0.00  0.00    +0.000 A 
ATOM     31  C   UNL     1      -1.647   7.798  -2.723  0.00  0.00    +0.000 A 
ATOM     32  C   UNL     1      -2.928   8.738  -0.906  0.00  0.00    +0.000 A 
ATOM     33  C   UNL     1      -2.499   8.780  -2.232  0.00  0.00    +0.000 A 
ENDBRANCH  24  28
ENDBRANCH   4  24
TORSDOF 5
ENDMDL
MODEL 7
REMARK VINA RESULT:      -4.6     11.799     14.403
REMARK  Name = 
REMARK  5 active torsions:
REMARK  status: ('A' for Active; 'I' for Inactive)
REMARK    1  A    between atoms: O_5  and  C_10
REMARK    2  A    between atoms: N_9  and  C_20
REMARK    3  A    between atoms: N_9  and  C_25
REMARK    4  A    between atoms: C_10  and  C_11
REMARK    5  A    between atoms: C_18  and  C_19
REMARK                            x       y       z     vdW  Elec       q    Type
REMARK                         _______ _______ _______ _____ _____    ______ ____
ROOT
ATOM      1  F   UNL     1      -8.181  18.982  -3.154  0.00  0.00    +0.000 F 
ATOM      2  F   UNL     1      -7.772  20.922  -1.321  0.00  0.00    +0.000 F 
ATOM      3  C   UNL     1      -6.864  17.029  -0.381  0.00  0.00    +0.000 A 
ATOM      4  C   UNL     1      -7.387  17.302  -1.665  0.00  0.00    +0.000 A 
ATOM      5  C   UNL     1      -6.639  18.046   0.562  0.00  0.00    +0.000 A 
ATOM      6  C   UNL     1      -7.695  18.639  -1.952  0.00  0.00    +0.000 A 
ATOM      7  C   UNL     1      -6.948  19.364   0.239  0.00  0.00    +0.000 A 
ATOM      8  C   UNL     1      -7.473  19.650  -1.016  0.00  0.00    +0.000 A 
ENDROOT
BRANCH   3  14
ATOM      9  O   UNL     1      -7.418  14.961   0.549  0.00  0.00    +0.000 OA
ATOM     10  N   UNL     1      -5.277  15.188  -0.266  0.00  0.00    +0.000 N 
ATOM     11  C   UNL     1      -3.507  14.920   0.807  0.00  0.00    +0.000 C 
ATOM     12  C   UNL     1      -4.032  15.952  -0.231  0.00  0.00    +0.000 C 
ATOM     13  C   UNL     1      -4.663  13.997   0.318  0.00  0.00    +0.000 C 
ATOM     14  C   UNL     1      -6.555  15.631  -0.008  0.00  0.00    +0.000 C 
BRANCH  11  16
ATOM     15  N   UNL     1      -2.705  14.477   3.112  0.00  0.00    +0.000 NA
ATOM     16  C   UNL     1      -3.645  15.297   2.306  0.00  0.00    +0.000 C 
ATOM     17  C   UNL     1      -3.348  16.788   2.544  0.00  0.00    +0.000 C 
ATOM     18  C   UNL     1      -3.462  17.140   4.028  0.00  0.00    +0.000 C 
ATOM     19  C   UNL     1      -2.913  14.734   4.544  0.00  0.00    +0.000 C 
ATOM     20  C   UNL     1      -2.629  16.195   4.887  0.00  0.00    +0.000 C 
ATOM     21  H   UNL     1      -1.754  14.783   2.890  0.00  0.00    +0.000 HD
ENDBRANCH  11  16
BRANCH  11  22
ATOM     22  O   UNL     1      -2.167  14.411   0.541  0.00  0.00    +0.000 OA
ATOM     23  H   UNL     1      -2.237  14.078  -0.374  0.00  0.00    +0.000 HD
ENDBRANCH  11  22
ENDBRANCH   3  14
BRANCH   4  24
ATOM     24  N   UNL     1      -7.655  16.241  -2.557  0.00  0.00    +0.000 N 
ATOM     25  H   UNL     1      -8.649  15.995  -2.615  0.00  0.00    +0.000 HD
BRANCH  24  28
ATOM     26  I   UNL     1      -4.176  13.196  -6.838  0.00  0.00    +0.000 I 
ATOM     27  F   UNL     1      -7.348  13.519  -2.527  0.00  0.00    +0.000 F 
ATOM     28  C   UNL     1      -6.873  15.609  -3.542  0.00  0.00    +0.000 A 
ATOM     29  C   UNL     1      -6.721  14.211  -3.492  0.00  0.00    +0.000 A 
ATOM     30  C   UNL     1      -6.207  16.292  -4.564  0.00  0.00    +0.000 A 
ATOM     31  C   UNL     1      -5.956  13.510  -4.420  0.00  0.00    +0.000 A 
ATOM     32  C   UNL     1      -5.432  15.601  -5.505  0.00  0.00    +0.000 A 
ATOM     33  C   UNL     1      -5.312  14.214  -5.431  0.00  0.00    +0.000 A 
ENDBRANCH  24  28
ENDBRANCH   4  24
TORSDOF 5
ENDMDL
MODEL 8
REMARK VINA RESULT:      -4.5      3.806      5.167
REMARK  Name = 
REMARK  5 active torsions:
REMARK  status: ('A' for Active; 'I' for Inactive)
REMARK    1  A    between atoms: O_5  and  C_10
REMARK    2  A    between atoms: N_9  and  C_20
REMARK    3  A    between atoms: N_9  and  C_25
REMARK    4  A    between atoms: C_10  and  C_11
REMARK    5  A    between atoms: C_18  and  C_19
REMARK                            x       y       z     vdW  Elec       q    Type
REMARK                         _______ _______ _______ _____ _____    ______ ____
ROOT
ATOM      1  F   UNL     1     -13.728  13.805  -2.787  0.00  0.00    +0.000 F 
ATOM      2  F   UNL     1     -13.481  13.004  -0.221  0.00  0.00    +0.000 F 
ATOM      3  C   UNL     1     -15.696  10.744  -2.838  0.00  0.00    +0.000 A 
ATOM      4  C   UNL     1     -15.090  11.925  -3.321  0.00  0.00    +0.000 A 
ATOM      5  C   UNL     1     -15.551  10.326  -1.504  0.00  0.00    +0.000 A 
ATOM      6  C   UNL     1     -14.348  12.679  -2.402  0.00  0.00    +0.000 A 
ATOM      7  C   UNL     1     -14.798  11.096  -0.621  0.00  0.00    +0.000 A 
ATOM      8  C   UNL     1     -14.202  12.265  -1.077  0.00  0.00    +0.000 A 
ENDROOT
BRANCH   3  14
ATOM      9  O   UNL     1     -17.677  10.276  -3.981  0.00  0.00    +0.000 OA
ATOM     10  N   UNL     1     -15.948   8.780  -4.252  0.00  0.00    +0.000 N 
ATOM     11  C   UNL     1     -15.997   6.738  -3.829  0.00  0.00    +0.000 C 
ATOM     12  C   UNL     1     -14.985   7.896  -3.599  0.00  0.00    +0.000 C 
ATOM     13  C   UNL     1     -16.673   7.674  -4.875  0.00  0.00    +0.000 C 
ATOM     14  C   UNL     1     -16.523   9.928  -3.753  0.00  0.00    +0.000 C 
BRANCH  11  16
ATOM     15  N   UNL     1     -17.286   4.942  -2.704  0.00  0.00    +0.000 NA
ATOM     16  C   UNL     1     -16.943   6.387  -2.650  0.00  0.00    +0.000 C 
ATOM     17  C   UNL     1     -16.294   6.703  -1.291  0.00  0.00    +0.000 C 
ATOM     18  C   UNL     1     -17.227   6.328  -0.139  0.00  0.00    +0.000 C 
ATOM     19  C   UNL     1     -18.279   4.622  -1.669  0.00  0.00    +0.000 C 
ATOM     20  C   UNL     1     -17.723   4.892  -0.271  0.00  0.00    +0.000 C 
ATOM     21  H   UNL     1     -16.441   4.411  -2.479  0.00  0.00    +0.000 HD
ENDBRANCH  11  16
BRANCH  11  22
ATOM     22  O   UNL     1     -15.419   5.521  -4.386  0.00  0.00    +0.000 OA
ATOM     23  H   UNL     1     -15.722   4.830  -3.767  0.00  0.00    +0.000 HD
ENDBRANCH  11  22
ENDBRANCH   3  14
BRANCH   4  24
ATOM     24  N   UNL     1     -15.316  12.338  -4.652  0.00  0.00    +0.000 N 
ATOM     25  H   UNL     1     -15.143  11.601  -5.346  0.00  0.00    +0.000 HD
BRANCH  24  28
ATOM     26  I   UNL     1     -17.888  17.532  -7.125  0.00  0.00    +0.000 I 
ATOM     27  F   UNL     1     -13.802  14.369  -5.695  0.00  0.00    +0.000 F 
ATOM     28  C   UNL     1     -15.941  13.474  -5.201  0.00  0.00    +0.000 A 
ATOM     29  C   UNL     1     -15.137  14.508  -5.715  0.00  0.00    +0.000 A 
ATOM     30  C   UNL     1     -17.326  13.655  -5.243  0.00  0.00    +0.000 A 
ATOM     31  C   UNL     1     -15.674  15.669  -6.263  0.00  0.00    +0.000 A 
ATOM     32  C   UNL     1     -17.884  14.819  -5.791  0.00  0.00    +0.000 A 
ATOM     33  C   UNL     1     -17.056  15.818  -6.301  0.00  0.00    +0.000 A 
ENDBRANCH  24  28
ENDBRANCH   4  24
TORSDOF 5
ENDMDL
MODEL 9
REMARK VINA RESULT:      -4.5     16.888     18.459
REMARK  Name = 
REMARK  5 active torsions:
REMARK  status: ('A' for Active; 'I' for Inactive)
REMARK    1  A    between atoms: O_5  and  C_10
REMARK    2  A    between atoms: N_9  and  C_20
REMARK    3  A    between atoms: N_9  and  C_25
REMARK    4  A    between atoms: C_10  and  C_11
REMARK    5  A    between atoms: C_18  and  C_19
REMARK                            x       y       z     vdW  Elec       q    Type
REMARK                         _______ _______ _______ _____ _____    ______ ____
ROOT
ATOM      1  F   UNL     1      -0.727   7.313  -0.866  0.00  0.00    +0.000 F 
ATOM      2  F   UNL     1      -3.358   7.892  -0.681  0.00  0.00    +0.000 F 
ATOM      3  C   UNL     1      -1.393   6.358   2.582  0.00  0.00    +0.000 A 
ATOM      4  C   UNL     1      -0.657   6.560   1.393  0.00  0.00    +0.000 A 
ATOM      5  C   UNL     1      -2.759   6.675   2.675  0.00  0.00    +0.000 A 
ATOM      6  C   UNL     1      -1.358   7.077   0.295  0.00  0.00    +0.000 A 
ATOM      7  C   UNL     1      -3.420   7.196   1.566  0.00  0.00    +0.000 A 
ATOM      8  C   UNL     1      -2.715   7.393   0.385  0.00  0.00    +0.000 A 
ENDROOT
BRANCH   3  14
ATOM      9  O   UNL     1       0.051   6.486   4.412  0.00  0.00    +0.000 OA
ATOM     10  N   UNL     1      -0.952   4.450   4.027  0.00  0.00    +0.000 N 
ATOM     11  C   UNL     1       0.017   2.631   3.700  0.00  0.00    +0.000 C 
ATOM     12  C   UNL     1      -1.198   3.371   3.072  0.00  0.00    +0.000 C 
ATOM     13  C   UNL     1      -0.144   3.606   4.905  0.00  0.00    +0.000 C 
ATOM     14  C   UNL     1      -0.715   5.780   3.763  0.00  0.00    +0.000 C 
BRANCH  11  16
ATOM     15  N   UNL     1       2.341   1.786   3.513  0.00  0.00    +0.000 NA
ATOM     16  C   UNL     1       1.386   2.795   2.987  0.00  0.00    +0.000 C 
ATOM     17  C   UNL     1       1.253   2.620   1.464  0.00  0.00    +0.000 C 
ATOM     18  C   UNL     1       2.612   2.757   0.777  0.00  0.00    +0.000 C 
ATOM     19  C   UNL     1       3.675   2.010   2.937  0.00  0.00    +0.000 C 
ATOM     20  C   UNL     1       3.653   1.846   1.419  0.00  0.00    +0.000 C 
ATOM     21  H   UNL     1       2.031   0.865   3.195  0.00  0.00    +0.000 HD
ENDBRANCH  11  16
BRANCH  11  22
ATOM     22  O   UNL     1      -0.217   1.228   4.018  0.00  0.00    +0.000 OA
ATOM     23  H   UNL     1       0.525   1.010   4.612  0.00  0.00    +0.000 HD
ENDBRANCH  11  22
ENDBRANCH   3  14
BRANCH   4  24
ATOM     24  N   UNL     1       0.697   6.168   1.328  0.00  0.00    +0.000 N 
ATOM     25  H   UNL     1       0.827   5.181   1.078  0.00  0.00    +0.000 HD
BRANCH  24  28
ATOM     26  I   UNL     1       6.145   9.331   1.473  0.00  0.00    +0.000 I 
ATOM     27  F   UNL     1       2.702   5.552   3.089  0.00  0.00    +0.000 F 
ATOM     28  C   UNL     1       1.899   6.901   1.312  0.00  0.00    +0.000 A 
ATOM     29  C   UNL     1       2.905   6.572   2.239  0.00  0.00    +0.000 A 
ATOM     30  C   UNL     1       2.150   7.966   0.443  0.00  0.00    +0.000 A 
ATOM     31  C   UNL     1       4.116   7.254   2.300  0.00  0.00    +0.000 A 
ATOM     32  C   UNL     1       3.364   8.665   0.491  0.00  0.00    +0.000 A 
ATOM     33  C   UNL     1       4.342   8.303   1.417  0.00  0.00    +0.000 A 
ENDBRANCH  24  28
ENDBRANCH   4  24
TORSDOF 5
ENDMDL
