MODEL 1
REMARK VINA RESULT:      -6.6      0.000      0.000
REMARK  Name = COUMESTROL.pdbqt.pdb
REMARK  2 active torsions:
REMARK  status: ('A' for Active; 'I' for Inactive)
REMARK    1  A    between atoms: C_16  and  O_19
REMARK    2  A    between atoms: C_18  and  O_21
REMARK                            x       y       z     vdW  Elec       q    Type
REMARK                         _______ _______ _______ _____ _____    ______ ____
ROOT
ATOM      1  O   UNL     1     -15.980   8.430  -2.718  0.00  0.00    +0.000 OA
ATOM      2  O   UNL     1     -15.111  10.872   0.439  0.00  0.00    +0.000 OA
ATOM      3  O   UNL     1     -15.951   9.227   1.828  0.00  0.00    +0.000 OA
ATOM      4  C   UNL     1     -15.971   8.810  -0.489  0.00  0.00    +0.000 A 
ATOM      5  C   UNL     1     -15.662   9.297  -1.732  0.00  0.00    +0.000 A 
ATOM      6  C   UNL     1     -16.532   7.526  -0.705  0.00  0.00    +0.000 A 
ATOM      7  C   UNL     1     -15.069  10.571  -2.004  0.00  0.00    +0.000 A 
ATOM      8  C   UNL     1     -16.517   7.338  -2.091  0.00  0.00    +0.000 A 
ATOM      9  C   UNL     1     -14.800  11.352  -0.870  0.00  0.00    +0.000 A 
ATOM     10  C   UNL     1     -15.700   9.602   0.689  0.00  0.00    +0.000 A 
ATOM     11  C   UNL     1     -17.051   6.504   0.106  0.00  0.00    +0.000 A 
ATOM     12  C   UNL     1     -14.760  11.054  -3.270  0.00  0.00    +0.000 A 
ATOM     13  C   UNL     1     -16.985   6.193  -2.734  0.00  0.00    +0.000 A 
ATOM     14  C   UNL     1     -14.226  12.613  -0.977  0.00  0.00    +0.000 A 
ATOM     15  C   UNL     1     -17.529   5.342  -0.506  0.00  0.00    +0.000 A 
ATOM     16  C   UNL     1     -17.492   5.201  -1.892  0.00  0.00    +0.000 A 
ATOM     17  C   UNL     1     -14.183  12.318  -3.392  0.00  0.00    +0.000 A 
ATOM     18  C   UNL     1     -13.922  13.082  -2.251  0.00  0.00    +0.000 A 
ENDROOT
BRANCH  16  19
ATOM     19  O   UNL     1     -17.977   4.036  -2.424  0.00  0.00    +0.000 OA
ATOM     20  H   UNL     1     -18.509   4.255  -3.208  0.00  0.00    +0.000 HD
ENDBRANCH  16  19
BRANCH  18  21
ATOM     21  O   UNL     1     -13.357  14.321  -2.363  0.00  0.00    +0.000 OA
ATOM     22  H   UNL     1     -12.636  14.390  -1.713  0.00  0.00    +0.000 HD
ENDBRANCH  18  21
TORSDOF 2
ENDMDL
MODEL 2
REMARK VINA RESULT:      -6.5      2.262      6.616
REMARK  Name = COUMESTROL.pdbqt.pdb
REMARK  2 active torsions:
REMARK  status: ('A' for Active; 'I' for Inactive)
REMARK    1  A    between atoms: C_16  and  O_19
REMARK    2  A    between atoms: C_18  and  O_21
REMARK                            x       y       z     vdW  Elec       q    Type
REMARK                         _______ _______ _______ _____ _____    ______ ____
ROOT
ATOM      1  O   UNL     1     -14.309  10.971  -4.358  0.00  0.00    +0.000 OA
ATOM      2  O   UNL     1     -14.632  12.241  -0.489  0.00  0.00    +0.000 OA
ATOM      3  O   UNL     1     -13.740  14.260  -1.171  0.00  0.00    +0.000 OA
ATOM      4  C   UNL     1     -14.026  12.590  -2.805  0.00  0.00    +0.000 A 
ATOM      5  C   UNL     1     -14.450  11.311  -3.058  0.00  0.00    +0.000 A 
ATOM      6  C   UNL     1     -13.579  13.103  -4.048  0.00  0.00    +0.000 A 
ATOM      7  C   UNL     1     -14.987  10.404  -2.090  0.00  0.00    +0.000 A 
ATOM      8  C   UNL     1     -13.773  12.071  -4.972  0.00  0.00    +0.000 A 
ATOM      9  C   UNL     1     -15.067  10.912  -0.784  0.00  0.00    +0.000 A 
ATOM     10  C   UNL     1     -14.101  13.128  -1.466  0.00  0.00    +0.000 A 
ATOM     11  C   UNL     1     -13.035  14.315  -4.500  0.00  0.00    +0.000 A 
ATOM     12  C   UNL     1     -15.414   9.110  -2.359  0.00  0.00    +0.000 A 
ATOM     13  C   UNL     1     -13.461  12.160  -6.328  0.00  0.00    +0.000 A 
ATOM     14  C   UNL     1     -15.567  10.147   0.262  0.00  0.00    +0.000 A 
ATOM     15  C   UNL     1     -12.710  14.439  -5.855  0.00  0.00    +0.000 A 
ATOM     16  C   UNL     1     -12.922  13.382  -6.737  0.00  0.00    +0.000 A 
ATOM     17  C   UNL     1     -15.918   8.331  -1.318  0.00  0.00    +0.000 A 
ATOM     18  C   UNL     1     -15.990   8.853  -0.024  0.00  0.00    +0.000 A 
ENDROOT
BRANCH  16  19
ATOM     19  O   UNL     1     -12.581  13.573  -8.049  0.00  0.00    +0.000 OA
ATOM     20  H   UNL     1     -11.820  13.002  -8.255  0.00  0.00    +0.000 HD
ENDBRANCH  16  19
BRANCH  18  21
ATOM     21  O   UNL     1     -16.483   8.096   1.001  0.00  0.00    +0.000 OA
ATOM     22  H   UNL     1     -15.733   7.712   1.488  0.00  0.00    +0.000 HD
ENDBRANCH  18  21
TORSDOF 2
ENDMDL
MODEL 3
REMARK VINA RESULT:      -6.4      2.439      4.578
REMARK  Name = COUMESTROL.pdbqt.pdb
REMARK  2 active torsions:
REMARK  status: ('A' for Active; 'I' for Inactive)
REMARK    1  A    between atoms: C_16  and  O_19
REMARK    2  A    between atoms: C_18  and  O_21
REMARK                            x       y       z     vdW  Elec       q    Type
REMARK                         _______ _______ _______ _____ _____    ______ ____
ROOT
ATOM      1  O   UNL     1     -14.438  10.928  -3.931  0.00  0.00    +0.000 OA
ATOM      2  O   UNL     1     -13.434  14.771  -2.979  0.00  0.00    +0.000 OA
ATOM      3  O   UNL     1     -13.919  14.259  -0.779  0.00  0.00    +0.000 OA
ATOM      4  C   UNL     1     -14.188  12.552  -2.379  0.00  0.00    +0.000 A 
ATOM      5  C   UNL     1     -14.089  12.213  -3.703  0.00  0.00    +0.000 A 
ATOM      6  C   UNL     1     -14.637  11.385  -1.713  0.00  0.00    +0.000 A 
ATOM      7  C   UNL     1     -13.669  13.085  -4.758  0.00  0.00    +0.000 A 
ATOM      8  C   UNL     1     -14.777  10.414  -2.709  0.00  0.00    +0.000 A 
ATOM      9  C   UNL     1     -13.341  14.388  -4.353  0.00  0.00    +0.000 A 
ATOM     10  C   UNL     1     -13.853  13.890  -1.945  0.00  0.00    +0.000 A 
ATOM     11  C   UNL     1     -14.941  11.036  -0.387  0.00  0.00    +0.000 A 
ATOM     12  C   UNL     1     -13.573  12.729  -6.097  0.00  0.00    +0.000 A 
ATOM     13  C   UNL     1     -15.202   9.106  -2.479  0.00  0.00    +0.000 A 
ATOM     14  C   UNL     1     -12.917  15.346  -5.265  0.00  0.00    +0.000 A 
ATOM     15  C   UNL     1     -15.371   9.732  -0.120  0.00  0.00    +0.000 A 
ATOM     16  C   UNL     1     -15.495   8.800  -1.148  0.00  0.00    +0.000 A 
ATOM     17  C   UNL     1     -13.149  13.681  -7.024  0.00  0.00    +0.000 A 
ATOM     18  C   UNL     1     -12.826  14.974  -6.602  0.00  0.00    +0.000 A 
ENDROOT
BRANCH  16  19
ATOM     19  O   UNL     1     -15.921   7.542  -0.815  0.00  0.00    +0.000 OA
ATOM     20  H   UNL     1     -16.575   7.619  -0.099  0.00  0.00    +0.000 HD
ENDBRANCH  16  19
BRANCH  18  21
ATOM     21  O   UNL     1     -12.410  15.911  -7.505  0.00  0.00    +0.000 OA
ATOM     22  H   UNL     1     -11.679  15.534  -8.024  0.00  0.00    +0.000 HD
ENDBRANCH  18  21
TORSDOF 2
ENDMDL
MODEL 4
REMARK VINA RESULT:      -6.1     11.156     11.520
REMARK  Name = COUMESTROL.pdbqt.pdb
REMARK  2 active torsions:
REMARK  status: ('A' for Active; 'I' for Inactive)
REMARK    1  A    between atoms: C_16  and  O_19
REMARK    2  A    between atoms: C_18  and  O_21
REMARK                            x       y       z     vdW  Elec       q    Type
REMARK                         _______ _______ _______ _____ _____    ______ ____
ROOT
ATOM      1  O   UNL     1     -23.831   8.452   6.830  0.00  0.00    +0.000 OA
ATOM      2  O   UNL     1     -24.372  12.047   4.967  0.00  0.00    +0.000 OA
ATOM      3  O   UNL     1     -25.497  10.912   3.298  0.00  0.00    +0.000 OA
ATOM      4  C   UNL     1     -24.652   9.647   5.095  0.00  0.00    +0.000 A 
ATOM      5  C   UNL     1     -23.966   9.679   6.281  0.00  0.00    +0.000 A 
ATOM      6  C   UNL     1     -24.979   8.286   4.874  0.00  0.00    +0.000 A 
ATOM      7  C   UNL     1     -23.435  10.853   6.906  0.00  0.00    +0.000 A 
ATOM      8  C   UNL     1     -24.453   7.591   5.967  0.00  0.00    +0.000 A 
ATOM      9  C   UNL     1     -23.660  12.048   6.207  0.00  0.00    +0.000 A 
ATOM     10  C   UNL     1     -24.892  10.870   4.363  0.00  0.00    +0.000 A 
ATOM     11  C   UNL     1     -25.656   7.562   3.879  0.00  0.00    +0.000 A 
ATOM     12  C   UNL     1     -22.741  10.872   8.109  0.00  0.00    +0.000 A 
ATOM     13  C   UNL     1     -24.554   6.212   6.144  0.00  0.00    +0.000 A 
ATOM     14  C   UNL     1     -23.204  13.268   6.689  0.00  0.00    +0.000 A 
ATOM     15  C   UNL     1     -25.776   6.177   4.025  0.00  0.00    +0.000 A 
ATOM     16  C   UNL     1     -25.235   5.529   5.134  0.00  0.00    +0.000 A 
ATOM     17  C   UNL     1     -22.277  12.090   8.606  0.00  0.00    +0.000 A 
ATOM     18  C   UNL     1     -22.511  13.271   7.896  0.00  0.00    +0.000 A 
ENDROOT
BRANCH  16  19
ATOM     19  O   UNL     1     -25.389   4.171   5.212  0.00  0.00    +0.000 OA
ATOM     20  H   UNL     1     -25.741   3.852   4.363  0.00  0.00    +0.000 HD
ENDBRANCH  16  19
BRANCH  18  21
ATOM     21  O   UNL     1     -22.059  14.467   8.376  0.00  0.00    +0.000 OA
ATOM     22  H   UNL     1     -21.980  15.088   7.631  0.00  0.00    +0.000 HD
ENDBRANCH  18  21
TORSDOF 2
ENDMDL
MODEL 5
REMARK VINA RESULT:      -5.9     11.174     12.881
REMARK  Name = COUMESTROL.pdbqt.pdb
REMARK  2 active torsions:
REMARK  status: ('A' for Active; 'I' for Inactive)
REMARK    1  A    between atoms: C_16  and  O_19
REMARK    2  A    between atoms: C_18  and  O_21
REMARK                            x       y       z     vdW  Elec       q    Type
REMARK                         _______ _______ _______ _____ _____    ______ ____
ROOT
ATOM      1  O   UNL     1     -23.477   9.264   7.163  0.00  0.00    +0.000 OA
ATOM      2  O   UNL     1     -25.575   9.135   3.661  0.00  0.00    +0.000 OA
ATOM      3  O   UNL     1     -25.355  11.433   3.548  0.00  0.00    +0.000 OA
ATOM      4  C   UNL     1     -24.393  10.337   5.397  0.00  0.00    +0.000 A 
ATOM      5  C   UNL     1     -24.176   9.133   6.015  0.00  0.00    +0.000 A 
ATOM      6  C   UNL     1     -23.780  11.312   6.223  0.00  0.00    +0.000 A 
ATOM      7  C   UNL     1     -24.620   7.859   5.537  0.00  0.00    +0.000 A 
ATOM      8  C   UNL     1     -23.231  10.604   7.296  0.00  0.00    +0.000 A 
ATOM      9  C   UNL     1     -25.333   7.895   4.330  0.00  0.00    +0.000 A 
ATOM     10  C   UNL     1     -25.126  10.392   4.152  0.00  0.00    +0.000 A 
ATOM     11  C   UNL     1     -23.626  12.707   6.189  0.00  0.00    +0.000 A 
ATOM     12  C   UNL     1     -24.393   6.645   6.174  0.00  0.00    +0.000 A 
ATOM     13  C   UNL     1     -22.531  11.191   8.349  0.00  0.00    +0.000 A 
ATOM     14  C   UNL     1     -25.826   6.737   3.743  0.00  0.00    +0.000 A 
ATOM     15  C   UNL     1     -22.929  13.329   7.230  0.00  0.00    +0.000 A 
ATOM     16  C   UNL     1     -22.400  12.579   8.278  0.00  0.00    +0.000 A 
ATOM     17  C   UNL     1     -24.883   5.474   5.596  0.00  0.00    +0.000 A 
ATOM     18  C   UNL     1     -25.591   5.530   4.393  0.00  0.00    +0.000 A 
ENDROOT
BRANCH  16  19
ATOM     19  O   UNL     1     -21.729  13.253   9.264  0.00  0.00    +0.000 OA
ATOM     20  H   UNL     1     -20.810  13.385   8.975  0.00  0.00    +0.000 HD
ENDBRANCH  16  19
BRANCH  18  21
ATOM     21  O   UNL     1     -26.074   4.387   3.821  0.00  0.00    +0.000 OA
ATOM     22  H   UNL     1     -26.240   3.736   4.526  0.00  0.00    +0.000 HD
ENDBRANCH  18  21
TORSDOF 2
ENDMDL
MODEL 6
REMARK VINA RESULT:      -5.7      9.829     11.670
REMARK  Name = COUMESTROL.pdbqt.pdb
REMARK  2 active torsions:
REMARK  status: ('A' for Active; 'I' for Inactive)
REMARK    1  A    between atoms: C_16  and  O_19
REMARK    2  A    between atoms: C_18  and  O_21
REMARK                            x       y       z     vdW  Elec       q    Type
REMARK                         _______ _______ _______ _____ _____    ______ ____
ROOT
ATOM      1  O   UNL     1      -8.124   1.461   0.713  0.00  0.00    +0.000 OA
ATOM      2  O   UNL     1     -11.925   0.885   2.093  0.00  0.00    +0.000 OA
ATOM      3  O   UNL     1     -11.029   0.684   4.213  0.00  0.00    +0.000 OA
ATOM      4  C   UNL     1      -9.538   1.080   2.435  0.00  0.00    +0.000 A 
ATOM      5  C   UNL     1      -9.409   1.280   1.085  0.00  0.00    +0.000 A 
ATOM      6  C   UNL     1      -8.223   1.141   2.962  0.00  0.00    +0.000 A 
ATOM      7  C   UNL     1     -10.484   1.301   0.140  0.00  0.00    +0.000 A 
ATOM      8  C   UNL     1      -7.390   1.377   1.864  0.00  0.00    +0.000 A 
ATOM      9  C   UNL     1     -11.759   1.096   0.689  0.00  0.00    +0.000 A 
ATOM     10  C   UNL     1     -10.843   0.868   3.016  0.00  0.00    +0.000 A 
ATOM     11  C   UNL     1      -7.642   1.024   4.234  0.00  0.00    +0.000 A 
ATOM     12  C   UNL     1     -10.341   1.504  -1.227  0.00  0.00    +0.000 A 
ATOM     13  C   UNL     1      -6.003   1.507   1.943  0.00  0.00    +0.000 A 
ATOM     14  C   UNL     1     -12.899   1.090  -0.105  0.00  0.00    +0.000 A 
ATOM     15  C   UNL     1      -6.254   1.149   4.350  0.00  0.00    +0.000 A 
ATOM     16  C   UNL     1      -5.465   1.384   3.226  0.00  0.00    +0.000 A 
ATOM     17  C   UNL     1     -11.477   1.500  -2.036  0.00  0.00    +0.000 A 
ATOM     18  C   UNL     1     -12.739   1.294  -1.472  0.00  0.00    +0.000 A 
ENDROOT
BRANCH  16  19
ATOM     19  O   UNL     1      -4.113   1.496   3.413  0.00  0.00    +0.000 OA
ATOM     20  H   UNL     1      -3.713   1.808   2.583  0.00  0.00    +0.000 HD
ENDBRANCH  16  19
BRANCH  18  21
ATOM     21  O   UNL     1     -13.855   1.290  -2.258  0.00  0.00    +0.000 OA
ATOM     22  H   UNL     1     -13.876   0.455  -2.759  0.00  0.00    +0.000 HD
ENDBRANCH  18  21
TORSDOF 2
ENDMDL
MODEL 7
REMARK VINA RESULT:      -5.6     13.371     15.108
REMARK  Name = COUMESTROL.pdbqt.pdb
REMARK  2 active torsions:
REMARK  status: ('A' for Active; 'I' for Inactive)
REMARK    1  A    between atoms: C_16  and  O_19
REMARK    2  A    between atoms: C_18  and  O_21
REMARK                            x       y       z     vdW  Elec       q    Type
REMARK                         _______ _______ _______ _____ _____    ______ ____
ROOT
ATOM      1  O   UNL     1     -21.683  14.534   9.846  0.00  0.00    +0.000 OA
ATOM      2  O   UNL     1     -23.525  18.102  10.595  0.00  0.00    +0.000 OA
ATOM      3  O   UNL     1     -25.202  17.438   9.150  0.00  0.00    +0.000 OA
ATOM      4  C   UNL     1     -23.412  15.948   9.498  0.00  0.00    +0.000 A 
ATOM      5  C   UNL     1     -22.225  15.733  10.148  0.00  0.00    +0.000 A 
ATOM      6  C   UNL     1     -23.641  14.787   8.718  0.00  0.00    +0.000 A 
ATOM      7  C   UNL     1     -21.593  16.646  11.053  0.00  0.00    +0.000 A 
ATOM      8  C   UNL     1     -22.551  13.947   8.966  0.00  0.00    +0.000 A 
ATOM      9  C   UNL     1     -22.285  17.848  11.259  0.00  0.00    +0.000 A 
ATOM     10  C   UNL     1     -24.137  17.182   9.700  0.00  0.00    +0.000 A 
ATOM     11  C   UNL     1     -24.640  14.349   7.834  0.00  0.00    +0.000 A 
ATOM     12  C   UNL     1     -20.389  16.416  11.706  0.00  0.00    +0.000 A 
ATOM     13  C   UNL     1     -22.382  12.688   8.391  0.00  0.00    +0.000 A 
ATOM     14  C   UNL     1     -21.795  18.831  12.110  0.00  0.00    +0.000 A 
ATOM     15  C   UNL     1     -24.502  13.091   7.240  0.00  0.00    +0.000 A 
ATOM     16  C   UNL     1     -23.397  12.290   7.518  0.00  0.00    +0.000 A 
ATOM     17  C   UNL     1     -19.885  17.394  12.564  0.00  0.00    +0.000 A 
ATOM     18  C   UNL     1     -20.588  18.586  12.757  0.00  0.00    +0.000 A 
ENDROOT
BRANCH  16  19
ATOM     19  O   UNL     1     -23.327  11.070   6.901  0.00  0.00    +0.000 OA
ATOM     20  H   UNL     1     -23.848  11.111   6.080  0.00  0.00    +0.000 HD
ENDBRANCH  16  19
BRANCH  18  21
ATOM     21  O   UNL     1     -20.100  19.548  13.595  0.00  0.00    +0.000 OA
ATOM     22  H   UNL     1     -19.442  20.075  13.109  0.00  0.00    +0.000 HD
ENDBRANCH  18  21
TORSDOF 2
ENDMDL
MODEL 8
REMARK VINA RESULT:      -5.4     19.818     21.212
REMARK  Name = COUMESTROL.pdbqt.pdb
REMARK  2 active torsions:
REMARK  status: ('A' for Active; 'I' for Inactive)
REMARK    1  A    between atoms: C_16  and  O_19
REMARK    2  A    between atoms: C_18  and  O_21
REMARK                            x       y       z     vdW  Elec       q    Type
REMARK                         _______ _______ _______ _____ _____    ______ ____
ROOT
ATOM      1  O   UNL     1      -8.682   3.176  17.428  0.00  0.00    +0.000 OA
ATOM      2  O   UNL     1     -10.075   6.932  18.226  0.00  0.00    +0.000 OA
ATOM      3  O   UNL     1      -8.458   7.740  16.787  0.00  0.00    +0.000 OA
ATOM      4  C   UNL     1      -8.563   5.410  17.107  0.00  0.00    +0.000 A 
ATOM      5  C   UNL     1      -9.203   4.381  17.746  0.00  0.00    +0.000 A 
ATOM      6  C   UNL     1      -7.552   4.807  16.318  0.00  0.00    +0.000 A 
ATOM      7  C   UNL     1     -10.301   4.518  18.655  0.00  0.00    +0.000 A 
ATOM      8  C   UNL     1      -7.666   3.433  16.549  0.00  0.00    +0.000 A 
ATOM      9  C   UNL     1     -10.723   5.837  18.878  0.00  0.00    +0.000 A 
ATOM     10  C   UNL     1      -8.985   6.775  17.326  0.00  0.00    +0.000 A 
ATOM     11  C   UNL     1      -6.557   5.260  15.437  0.00  0.00    +0.000 A 
ATOM     12  C   UNL     1     -10.942   3.465  19.297  0.00  0.00    +0.000 A 
ATOM     13  C   UNL     1      -6.851   2.466  15.961  0.00  0.00    +0.000 A 
ATOM     14  C   UNL     1     -11.777   6.127  19.735  0.00  0.00    +0.000 A 
ATOM     15  C   UNL     1      -5.722   4.318  14.829  0.00  0.00    +0.000 A 
ATOM     16  C   UNL     1      -5.874   2.958  15.092  0.00  0.00    +0.000 A 
ATOM     17  C   UNL     1     -12.002   3.741  20.160  0.00  0.00    +0.000 A 
ATOM     18  C   UNL     1     -12.408   5.062  20.370  0.00  0.00    +0.000 A 
ENDROOT
BRANCH  16  19
ATOM     19  O   UNL     1      -5.021   2.092  14.462  0.00  0.00    +0.000 OA
ATOM     20  H   UNL     1      -4.535   2.583  13.777  0.00  0.00    +0.000 HD
ENDBRANCH  16  19
BRANCH  18  21
ATOM     21  O   UNL     1     -13.446   5.340  21.214  0.00  0.00    +0.000 OA
ATOM     22  H   UNL     1     -14.280   5.171  20.742  0.00  0.00    +0.000 HD
ENDBRANCH  18  21
TORSDOF 2
ENDMDL
MODEL 9
REMARK VINA RESULT:      -5.3     19.070     21.118
REMARK  Name = COUMESTROL.pdbqt.pdb
REMARK  2 active torsions:
REMARK  status: ('A' for Active; 'I' for Inactive)
REMARK    1  A    between atoms: C_16  and  O_19
REMARK    2  A    between atoms: C_18  and  O_21
REMARK                            x       y       z     vdW  Elec       q    Type
REMARK                         _______ _______ _______ _____ _____    ______ ____
ROOT
ATOM      1  O   UNL     1     -23.315   4.895  16.289  0.00  0.00    +0.000 OA
ATOM      2  O   UNL     1     -20.426   3.465  18.796  0.00  0.00    +0.000 OA
ATOM      3  O   UNL     1     -19.771   5.653  19.146  0.00  0.00    +0.000 OA
ATOM      4  C   UNL     1     -21.580   5.278  17.686  0.00  0.00    +0.000 A 
ATOM      5  C   UNL     1     -22.390   4.340  17.101  0.00  0.00    +0.000 A 
ATOM      6  C   UNL     1     -22.031   6.533  17.205  0.00  0.00    +0.000 A 
ATOM      7  C   UNL     1     -22.302   2.924  17.296  0.00  0.00    +0.000 A 
ATOM      8  C   UNL     1     -23.099   6.245  16.350  0.00  0.00    +0.000 A 
ATOM      9  C   UNL     1     -21.286   2.510  18.170  0.00  0.00    +0.000 A 
ATOM     10  C   UNL     1     -20.529   4.868  18.589  0.00  0.00    +0.000 A 
ATOM     11  C   UNL     1     -21.663   7.875  17.392  0.00  0.00    +0.000 A 
ATOM     12  C   UNL     1     -23.129   1.983  16.696  0.00  0.00    +0.000 A 
ATOM     13  C   UNL     1     -23.835   7.207  15.659  0.00  0.00    +0.000 A 
ATOM     14  C   UNL     1     -21.079   1.167  18.457  0.00  0.00    +0.000 A 
ATOM     15  C   UNL     1     -22.379   8.866  16.715  0.00  0.00    +0.000 A 
ATOM     16  C   UNL     1     -23.437   8.529  15.873  0.00  0.00    +0.000 A 
ATOM     17  C   UNL     1     -22.933   0.631  16.975  0.00  0.00    +0.000 A 
ATOM     18  C   UNL     1     -21.915   0.237  17.849  0.00  0.00    +0.000 A 
ENDROOT
BRANCH  16  19
ATOM     19  O   UNL     1     -24.094   9.551  15.241  0.00  0.00    +0.000 OA
ATOM     20  H   UNL     1     -24.485   9.203  14.421  0.00  0.00    +0.000 HD
ENDBRANCH  16  19
BRANCH  18  21
ATOM     21  O   UNL     1     -21.718  -1.086  18.127  0.00  0.00    +0.000 OA
ATOM     22  H   UNL     1     -21.320  -1.158  19.013  0.00  0.00    +0.000 HD
ENDBRANCH  18  21
TORSDOF 2
ENDMDL
