MODEL 1
REMARK VINA RESULT:      -6.0      0.000      0.000
REMARK  Name = CP466722.pdbqt.pdb
REMARK  3 active torsions:
REMARK  status: ('A' for Active; 'I' for Inactive)
REMARK    1  A    between atoms: C_5  and  C_23
REMARK    2  A    between atoms: C_14  and  O_16
REMARK    3  A    between atoms: C_15  and  O_18
REMARK                            x       y       z     vdW  Elec       q    Type
REMARK                         _______ _______ _______ _____ _____    ______ ____
ROOT
ATOM      1  N   UNL     1     -23.252  14.612   9.311  0.00  0.00    +0.000 N 
ATOM      2  N   UNL     1     -24.022  13.740   8.619  0.00  0.00    +0.000 NA
ATOM      3  N   UNL     1     -21.825  13.171   8.431  0.00  0.00    +0.000 NA
ATOM      4  C   UNL     1     -21.914  14.232   9.191  0.00  0.00    +0.000 A 
ATOM      5  C   UNL     1     -23.129  12.885   8.098  0.00  0.00    +0.000 A 
ATOM      6  C   UNL     1     -23.788  15.751  10.002  0.00  0.00    +0.000 A 
ATOM      7  N   UNL     1     -22.891  16.618  10.542  0.00  0.00    +0.000 NA
ATOM      8  C   UNL     1     -23.392  17.690  11.165  0.00  0.00    +0.000 A 
ATOM      9  N   UNL     1     -24.691  17.978  11.291  0.00  0.00    +0.000 NA
ATOM     10  C   UNL     1     -25.566  17.123  10.759  0.00  0.00    +0.000 A 
ATOM     11  C   UNL     1     -25.180  15.954  10.090  0.00  0.00    +0.000 A 
ATOM     12  C   UNL     1     -26.917  17.417  10.875  0.00  0.00    +0.000 A 
ATOM     13  C   UNL     1     -26.193  15.100   9.593  0.00  0.00    +0.000 A 
ATOM     14  C   UNL     1     -27.544  15.386   9.748  0.00  0.00    +0.000 A 
ATOM     15  C   UNL     1     -27.908  16.586  10.348  0.00  0.00    +0.000 A 
ATOM     16  N   UNL     1     -20.878  14.863   9.778  0.00  0.00    +0.000 N 
ATOM     17  H   UNL     1     -19.942  14.662   9.442  0.00  0.00    +0.000 HD
ATOM     18  H   UNL     1     -21.012  15.798  10.162  0.00  0.00    +0.000 HD
ENDROOT
BRANCH   5  19
ATOM     19  C   UNL     1     -23.482  11.746   7.245  0.00  0.00    +0.000 A 
ATOM     20  N   UNL     1     -24.239  11.987   6.140  0.00  0.00    +0.000 NA
ATOM     21  C   UNL     1     -24.553  10.922   5.370  0.00  0.00    +0.000 A 
ATOM     22  C   UNL     1     -24.153   9.625   5.639  0.00  0.00    +0.000 A 
ATOM     23  C   UNL     1     -23.379   9.410   6.772  0.00  0.00    +0.000 A 
ATOM     24  C   UNL     1     -23.035  10.477   7.591  0.00  0.00    +0.000 A 
ENDBRANCH   5  19
BRANCH  14  25
ATOM     25  O   UNL     1     -28.458  14.517   9.217  0.00  0.00    +0.000 OA
ATOM     26  C   UNL     1     -28.755  14.867   7.889  0.00  0.00    +0.000 C 
ENDBRANCH  14  25
BRANCH  15  27
ATOM     27  O   UNL     1     -29.224  16.924  10.507  0.00  0.00    +0.000 OA
ATOM     28  C   UNL     1     -29.422  17.522  11.765  0.00  0.00    +0.000 C 
ENDBRANCH  15  27
TORSDOF 3
ENDMDL
MODEL 2
REMARK VINA RESULT:      -5.9     13.732     16.888
REMARK  Name = CP466722.pdbqt.pdb
REMARK  3 active torsions:
REMARK  status: ('A' for Active; 'I' for Inactive)
REMARK    1  A    between atoms: C_5  and  C_23
REMARK    2  A    between atoms: C_14  and  O_16
REMARK    3  A    between atoms: C_15  and  O_18
REMARK                            x       y       z     vdW  Elec       q    Type
REMARK                         _______ _______ _______ _____ _____    ______ ____
ROOT
ATOM      1  N   UNL     1     -16.551  11.001  -4.282  0.00  0.00    +0.000 N 
ATOM      2  N   UNL     1     -16.191  11.082  -2.979  0.00  0.00    +0.000 NA
ATOM      3  N   UNL     1     -17.514   9.260  -3.317  0.00  0.00    +0.000 NA
ATOM      4  C   UNL     1     -17.348   9.869  -4.463  0.00  0.00    +0.000 A 
ATOM      5  C   UNL     1     -16.791  10.018  -2.426  0.00  0.00    +0.000 A 
ATOM      6  C   UNL     1     -16.173  11.981  -5.260  0.00  0.00    +0.000 A 
ATOM      7  N   UNL     1     -16.715  11.850  -6.500  0.00  0.00    +0.000 NA
ATOM      8  C   UNL     1     -16.380  12.777  -7.404  0.00  0.00    +0.000 A 
ATOM      9  N   UNL     1     -15.570  13.817  -7.185  0.00  0.00    +0.000 NA
ATOM     10  C   UNL     1     -15.041  13.940  -5.966  0.00  0.00    +0.000 A 
ATOM     11  C   UNL     1     -15.296  13.034  -4.929  0.00  0.00    +0.000 A 
ATOM     12  C   UNL     1     -14.205  15.022  -5.724  0.00  0.00    +0.000 A 
ATOM     13  C   UNL     1     -14.656  13.241  -3.683  0.00  0.00    +0.000 A 
ATOM     14  C   UNL     1     -13.792  14.307  -3.464  0.00  0.00    +0.000 A 
ATOM     15  C   UNL     1     -13.608  15.237  -4.480  0.00  0.00    +0.000 A 
ATOM     16  N   UNL     1     -17.859   9.468  -5.644  0.00  0.00    +0.000 N 
ATOM     17  H   UNL     1     -18.609   8.785  -5.634  0.00  0.00    +0.000 HD
ATOM     18  H   UNL     1     -17.868  10.114  -6.432  0.00  0.00    +0.000 HD
ENDROOT
BRANCH   5  19
ATOM     19  C   UNL     1     -16.705   9.675  -1.003  0.00  0.00    +0.000 A 
ATOM     20  N   UNL     1     -17.806   9.140  -0.407  0.00  0.00    +0.000 NA
ATOM     21  C   UNL     1     -17.703   8.833   0.904  0.00  0.00    +0.000 A 
ATOM     22  C   UNL     1     -16.560   9.027   1.660  0.00  0.00    +0.000 A 
ATOM     23  C   UNL     1     -15.451   9.571   1.025  0.00  0.00    +0.000 A 
ATOM     24  C   UNL     1     -15.515   9.902  -0.323  0.00  0.00    +0.000 A 
ENDBRANCH   5  19
BRANCH  14  25
ATOM     25  O   UNL     1     -13.232  14.446  -2.223  0.00  0.00    +0.000 OA
ATOM     26  C   UNL     1     -13.636  13.395  -1.382  0.00  0.00    +0.000 C 
ENDBRANCH  14  25
BRANCH  15  27
ATOM     27  O   UNL     1     -12.783  16.316  -4.309  0.00  0.00    +0.000 OA
ATOM     28  C   UNL     1     -11.526  16.060  -4.885  0.00  0.00    +0.000 C 
ENDBRANCH  15  27
TORSDOF 3
ENDMDL
MODEL 3
REMARK VINA RESULT:      -5.9     14.621     18.015
REMARK  Name = CP466722.pdbqt.pdb
REMARK  3 active torsions:
REMARK  status: ('A' for Active; 'I' for Inactive)
REMARK    1  A    between atoms: C_5  and  C_23
REMARK    2  A    between atoms: C_14  and  O_16
REMARK    3  A    between atoms: C_15  and  O_18
REMARK                            x       y       z     vdW  Elec       q    Type
REMARK                         _______ _______ _______ _____ _____    ______ ____
ROOT
ATOM      1  N   UNL     1     -14.205  11.954  -3.201  0.00  0.00    +0.000 N 
ATOM      2  N   UNL     1     -14.896  10.906  -2.694  0.00  0.00    +0.000 NA
ATOM      3  N   UNL     1     -14.697  12.548  -1.128  0.00  0.00    +0.000 NA
ATOM      4  C   UNL     1     -14.111  12.950  -2.226  0.00  0.00    +0.000 A 
ATOM      5  C   UNL     1     -15.176  11.297  -1.441  0.00  0.00    +0.000 A 
ATOM      6  C   UNL     1     -13.650  11.958  -4.524  0.00  0.00    +0.000 A 
ATOM      7  N   UNL     1     -12.865  13.017  -4.857  0.00  0.00    +0.000 NA
ATOM      8  C   UNL     1     -12.329  13.007  -6.082  0.00  0.00    +0.000 A 
ATOM      9  N   UNL     1     -12.495  12.045  -6.993  0.00  0.00    +0.000 NA
ATOM     10  C   UNL     1     -13.266  11.008  -6.662  0.00  0.00    +0.000 A 
ATOM     11  C   UNL     1     -13.900  10.896  -5.417  0.00  0.00    +0.000 A 
ATOM     12  C   UNL     1     -13.438   9.997  -7.597  0.00  0.00    +0.000 A 
ATOM     13  C   UNL     1     -14.723   9.769  -5.181  0.00  0.00    +0.000 A 
ATOM     14  C   UNL     1     -14.917   8.782  -6.140  0.00  0.00    +0.000 A 
ATOM     15  C   UNL     1     -14.223   8.871  -7.340  0.00  0.00    +0.000 A 
ATOM     16  N   UNL     1     -13.512  14.144  -2.401  0.00  0.00    +0.000 N 
ATOM     17  H   UNL     1     -13.287  14.692  -1.578  0.00  0.00    +0.000 HD
ATOM     18  H   UNL     1     -12.895  14.284  -3.201  0.00  0.00    +0.000 HD
ENDROOT
BRANCH   5  19
ATOM     19  C   UNL     1     -15.915  10.482  -0.472  0.00  0.00    +0.000 A 
ATOM     20  N   UNL     1     -17.260  10.352  -0.641  0.00  0.00    +0.000 NA
ATOM     21  C   UNL     1     -17.919   9.597   0.265  0.00  0.00    +0.000 A 
ATOM     22  C   UNL     1     -17.313   8.959   1.333  0.00  0.00    +0.000 A 
ATOM     23  C   UNL     1     -15.940   9.107   1.478  0.00  0.00    +0.000 A 
ATOM     24  C   UNL     1     -15.223   9.876   0.569  0.00  0.00    +0.000 A 
ENDBRANCH   5  19
BRANCH  14  25
ATOM     25  O   UNL     1     -15.712   7.714  -5.822  0.00  0.00    +0.000 OA
ATOM     26  C   UNL     1     -15.141   6.971  -4.774  0.00  0.00    +0.000 C 
ENDBRANCH  14  25
BRANCH  15  27
ATOM     27  O   UNL     1     -14.364   7.915  -8.310  0.00  0.00    +0.000 OA
ATOM     28  C   UNL     1     -15.103   8.427  -9.391  0.00  0.00    +0.000 C 
ENDBRANCH  15  27
TORSDOF 3
ENDMDL
MODEL 4
REMARK VINA RESULT:      -5.8      4.603      5.942
REMARK  Name = CP466722.pdbqt.pdb
REMARK  3 active torsions:
REMARK  status: ('A' for Active; 'I' for Inactive)
REMARK    1  A    between atoms: C_5  and  C_23
REMARK    2  A    between atoms: C_14  and  O_16
REMARK    3  A    between atoms: C_15  and  O_18
REMARK                            x       y       z     vdW  Elec       q    Type
REMARK                         _______ _______ _______ _____ _____    ______ ____
ROOT
ATOM      1  N   UNL     1     -22.460  16.897   9.395  0.00  0.00    +0.000 N 
ATOM      2  N   UNL     1     -22.402  15.935   8.445  0.00  0.00    +0.000 NA
ATOM      3  N   UNL     1     -23.223  15.074  10.386  0.00  0.00    +0.000 NA
ATOM      4  C   UNL     1     -22.980  16.346  10.568  0.00  0.00    +0.000 A 
ATOM      5  C   UNL     1     -22.867  14.847   9.077  0.00  0.00    +0.000 A 
ATOM      6  C   UNL     1     -22.004  18.241   9.177  0.00  0.00    +0.000 A 
ATOM      7  N   UNL     1     -21.995  19.068  10.256  0.00  0.00    +0.000 NA
ATOM      8  C   UNL     1     -21.548  20.312  10.056  0.00  0.00    +0.000 A 
ATOM      9  N   UNL     1     -21.106  20.800   8.893  0.00  0.00    +0.000 NA
ATOM     10  C   UNL     1     -21.117  19.984   7.838  0.00  0.00    +0.000 A 
ATOM     11  C   UNL     1     -21.571  18.660   7.903  0.00  0.00    +0.000 A 
ATOM     12  C   UNL     1     -20.651  20.477   6.627  0.00  0.00    +0.000 A 
ATOM     13  C   UNL     1     -21.570  17.891   6.715  0.00  0.00    +0.000 A 
ATOM     14  C   UNL     1     -21.136  18.408   5.499  0.00  0.00    +0.000 A 
ATOM     15  C   UNL     1     -20.620  19.698   5.469  0.00  0.00    +0.000 A 
ATOM     16  N   UNL     1     -23.202  17.030  11.708  0.00  0.00    +0.000 N 
ATOM     17  H   UNL     1     -23.351  16.503  12.561  0.00  0.00    +0.000 HD
ATOM     18  H   UNL     1     -22.781  17.950  11.831  0.00  0.00    +0.000 HD
ENDROOT
BRANCH   5  19
ATOM     19  C   UNL     1     -22.989  13.525   8.455  0.00  0.00    +0.000 A 
ATOM     20  N   UNL     1     -22.217  12.516   8.943  0.00  0.00    +0.000 NA
ATOM     21  C   UNL     1     -22.347  11.308   8.353  0.00  0.00    +0.000 A 
ATOM     22  C   UNL     1     -23.206  11.045   7.301  0.00  0.00    +0.000 A 
ATOM     23  C   UNL     1     -23.983  12.093   6.826  0.00  0.00    +0.000 A 
ATOM     24  C   UNL     1     -23.880  13.352   7.403  0.00  0.00    +0.000 A 
ENDBRANCH   5  19
BRANCH  14  25
ATOM     25  O   UNL     1     -21.148  17.589   4.403  0.00  0.00    +0.000 OA
ATOM     26  C   UNL     1     -22.462  17.191   4.101  0.00  0.00    +0.000 C 
ENDBRANCH  14  25
BRANCH  15  27
ATOM     27  O   UNL     1     -20.161  20.246   4.302  0.00  0.00    +0.000 OA
ATOM     28  C   UNL     1     -19.703  21.556   4.530  0.00  0.00    +0.000 C 
ENDBRANCH  15  27
TORSDOF 3
ENDMDL
MODEL 5
REMARK VINA RESULT:      -5.8     14.686     17.940
REMARK  Name = CP466722.pdbqt.pdb
REMARK  3 active torsions:
REMARK  status: ('A' for Active; 'I' for Inactive)
REMARK    1  A    between atoms: C_5  and  C_23
REMARK    2  A    between atoms: C_14  and  O_16
REMARK    3  A    between atoms: C_15  and  O_18
REMARK                            x       y       z     vdW  Elec       q    Type
REMARK                         _______ _______ _______ _____ _____    ______ ____
ROOT
ATOM      1  N   UNL     1     -14.241  10.615  -5.258  0.00  0.00    +0.000 N 
ATOM      2  N   UNL     1     -13.994  11.839  -4.734  0.00  0.00    +0.000 NA
ATOM      3  N   UNL     1     -13.690  11.874  -6.991  0.00  0.00    +0.000 NA
ATOM      4  C   UNL     1     -14.062  10.669  -6.642  0.00  0.00    +0.000 A 
ATOM      5  C   UNL     1     -13.662  12.573  -5.807  0.00  0.00    +0.000 A 
ATOM      6  C   UNL     1     -14.587   9.476  -4.456  0.00  0.00    +0.000 A 
ATOM      7  N   UNL     1     -14.676   8.280  -5.096  0.00  0.00    +0.000 NA
ATOM      8  C   UNL     1     -14.976   7.216  -4.343  0.00  0.00    +0.000 A 
ATOM      9  N   UNL     1     -15.184   7.234  -3.023  0.00  0.00    +0.000 NA
ATOM     10  C   UNL     1     -15.096   8.411  -2.401  0.00  0.00    +0.000 A 
ATOM     11  C   UNL     1     -14.802   9.606  -3.069  0.00  0.00    +0.000 A 
ATOM     12  C   UNL     1     -15.302   8.439  -1.029  0.00  0.00    +0.000 A 
ATOM     13  C   UNL     1     -14.765  10.804  -2.317  0.00  0.00    +0.000 A 
ATOM     14  C   UNL     1     -15.010  10.826  -0.948  0.00  0.00    +0.000 A 
ATOM     15  C   UNL     1     -15.226   9.622  -0.290  0.00  0.00    +0.000 A 
ATOM     16  N   UNL     1     -14.253   9.634  -7.484  0.00  0.00    +0.000 N 
ATOM     17  H   UNL     1     -13.872   9.703  -8.422  0.00  0.00    +0.000 HD
ATOM     18  H   UNL     1     -14.322   8.688  -7.110  0.00  0.00    +0.000 HD
ENDROOT
BRANCH   5  19
ATOM     19  C   UNL     1     -13.292  13.990  -5.749  0.00  0.00    +0.000 A 
ATOM     20  N   UNL     1     -13.380  14.721  -6.894  0.00  0.00    +0.000 NA
ATOM     21  C   UNL     1     -13.033  16.024  -6.815  0.00  0.00    +0.000 A 
ATOM     22  C   UNL     1     -12.604  16.645  -5.656  0.00  0.00    +0.000 A 
ATOM     23  C   UNL     1     -12.527  15.876  -4.502  0.00  0.00    +0.000 A 
ATOM     24  C   UNL     1     -12.873  14.531  -4.540  0.00  0.00    +0.000 A 
ENDBRANCH   5  19
BRANCH  14  25
ATOM     25  O   UNL     1     -14.933  12.025  -0.293  0.00  0.00    +0.000 OA
ATOM     26  C   UNL     1     -14.046  12.891  -0.956  0.00  0.00    +0.000 C 
ENDBRANCH  14  25
BRANCH  15  27
ATOM     27  O   UNL     1     -15.453   9.586   1.060  0.00  0.00    +0.000 OA
ATOM     28  C   UNL     1     -16.599   8.822   1.339  0.00  0.00    +0.000 C 
ENDBRANCH  15  27
TORSDOF 3
ENDMDL
MODEL 6
REMARK VINA RESULT:      -5.6     20.875     21.708
REMARK  Name = CP466722.pdbqt.pdb
REMARK  3 active torsions:
REMARK  status: ('A' for Active; 'I' for Inactive)
REMARK    1  A    between atoms: C_5  and  C_23
REMARK    2  A    between atoms: C_14  and  O_16
REMARK    3  A    between atoms: C_15  and  O_18
REMARK                            x       y       z     vdW  Elec       q    Type
REMARK                         _______ _______ _______ _____ _____    ______ ____
ROOT
ATOM      1  N   UNL     1      -5.670  15.622  -0.334  0.00  0.00    +0.000 N 
ATOM      2  N   UNL     1      -5.299  16.165   0.849  0.00  0.00    +0.000 NA
ATOM      3  N   UNL     1      -4.455  14.059   0.652  0.00  0.00    +0.000 NA
ATOM      4  C   UNL     1      -5.127  14.339  -0.435  0.00  0.00    +0.000 A 
ATOM      5  C   UNL     1      -4.570  15.195   1.421  0.00  0.00    +0.000 A 
ATOM      6  C   UNL     1      -6.521  16.296  -1.272  0.00  0.00    +0.000 A 
ATOM      7  N   UNL     1      -6.923  15.584  -2.358  0.00  0.00    +0.000 NA
ATOM      8  C   UNL     1      -7.735  16.206  -3.219  0.00  0.00    +0.000 A 
ATOM      9  N   UNL     1      -8.185  17.458  -3.094  0.00  0.00    +0.000 NA
ATOM     10  C   UNL     1      -7.787  18.153  -2.027  0.00  0.00    +0.000 A 
ATOM     11  C   UNL     1      -6.927  17.628  -1.053  0.00  0.00    +0.000 A 
ATOM     12  C   UNL     1      -8.256  19.451  -1.882  0.00  0.00    +0.000 A 
ATOM     13  C   UNL     1      -6.542  18.464   0.023  0.00  0.00    +0.000 A 
ATOM     14  C   UNL     1      -6.988  19.775   0.137  0.00  0.00    +0.000 A 
ATOM     15  C   UNL     1      -7.898  20.254  -0.797  0.00  0.00    +0.000 A 
ATOM     16  N   UNL     1      -5.272  13.522  -1.497  0.00  0.00    +0.000 N 
ATOM     17  H   UNL     1      -5.050  12.540  -1.379  0.00  0.00    +0.000 HD
ATOM     18  H   UNL     1      -5.987  13.728  -2.194  0.00  0.00    +0.000 HD
ENDROOT
BRANCH   5  19
ATOM     19  C   UNL     1      -3.947  15.306   2.743  0.00  0.00    +0.000 A 
ATOM     20  N   UNL     1      -2.858  14.531   3.004  0.00  0.00    +0.000 NA
ATOM     21  C   UNL     1      -2.303  14.651   4.230  0.00  0.00    +0.000 A 
ATOM     22  C   UNL     1      -2.769  15.504   5.214  0.00  0.00    +0.000 A 
ATOM     23  C   UNL     1      -3.879  16.285   4.918  0.00  0.00    +0.000 A 
ATOM     24  C   UNL     1      -4.482  16.191   3.670  0.00  0.00    +0.000 A 
ENDBRANCH   5  19
BRANCH  14  25
ATOM     25  O   UNL     1      -6.583  20.507   1.221  0.00  0.00    +0.000 OA
ATOM     26  C   UNL     1      -5.814  19.715   2.090  0.00  0.00    +0.000 C 
ENDBRANCH  14  25
BRANCH  15  27
ATOM     27  O   UNL     1      -8.384  21.532  -0.718  0.00  0.00    +0.000 OA
ATOM     28  C   UNL     1      -7.821  22.328  -1.732  0.00  0.00    +0.000 C 
ENDBRANCH  15  27
TORSDOF 3
ENDMDL
MODEL 7
REMARK VINA RESULT:      -5.5     18.066     21.107
REMARK  Name = CP466722.pdbqt.pdb
REMARK  3 active torsions:
REMARK  status: ('A' for Active; 'I' for Inactive)
REMARK    1  A    between atoms: C_5  and  C_23
REMARK    2  A    between atoms: C_14  and  O_16
REMARK    3  A    between atoms: C_15  and  O_18
REMARK                            x       y       z     vdW  Elec       q    Type
REMARK                         _______ _______ _______ _____ _____    ______ ____
ROOT
ATOM      1  N   UNL     1     -13.958  16.544  27.015  0.00  0.00    +0.000 N 
ATOM      2  N   UNL     1     -14.900  17.508  27.135  0.00  0.00    +0.000 NA
ATOM      3  N   UNL     1     -14.803  16.265  29.040  0.00  0.00    +0.000 NA
ATOM      4  C   UNL     1     -13.909  15.807  28.201  0.00  0.00    +0.000 A 
ATOM      5  C   UNL     1     -15.393  17.310  28.367  0.00  0.00    +0.000 A 
ATOM      6  C   UNL     1     -13.195  16.340  25.817  0.00  0.00    +0.000 A 
ATOM      7  N   UNL     1     -12.379  15.253  25.787  0.00  0.00    +0.000 NA
ATOM      8  C   UNL     1     -11.686  15.052  24.661  0.00  0.00    +0.000 A 
ATOM      9  N   UNL     1     -11.737  15.822  23.571  0.00  0.00    +0.000 NA
ATOM     10  C   UNL     1     -12.539  16.888  23.606  0.00  0.00    +0.000 A 
ATOM     11  C   UNL     1     -13.311  17.224  24.726  0.00  0.00    +0.000 A 
ATOM     12  C   UNL     1     -12.607  17.690  22.475  0.00  0.00    +0.000 A 
ATOM     13  C   UNL     1     -14.103  18.396  24.668  0.00  0.00    +0.000 A 
ATOM     14  C   UNL     1     -14.134  19.213  23.543  0.00  0.00    +0.000 A 
ATOM     15  C   UNL     1     -13.420  18.824  22.416  0.00  0.00    +0.000 A 
ATOM     16  N   UNL     1     -13.063  14.786  28.439  0.00  0.00    +0.000 N 
ATOM     17  H   UNL     1     -13.263  14.170  29.219  0.00  0.00    +0.000 HD
ATOM     18  H   UNL     1     -12.563  14.357  27.661  0.00  0.00    +0.000 HD
ENDROOT
BRANCH   5  19
ATOM     19  C   UNL     1     -16.464  18.113  28.963  0.00  0.00    +0.000 A 
ATOM     20  N   UNL     1     -17.643  18.208  28.288  0.00  0.00    +0.000 NA
ATOM     21  C   UNL     1     -18.614  18.955  28.857  0.00  0.00    +0.000 A 
ATOM     22  C   UNL     1     -18.479  19.615  30.066  0.00  0.00    +0.000 A 
ATOM     23  C   UNL     1     -17.267  19.498  30.733  0.00  0.00    +0.000 A 
ATOM     24  C   UNL     1     -16.240  18.741  30.182  0.00  0.00    +0.000 A 
ENDBRANCH   5  19
BRANCH  14  25
ATOM     25  O   UNL     1     -14.944  20.316  23.563  0.00  0.00    +0.000 OA
ATOM     26  C   UNL     1     -16.248  19.976  23.165  0.00  0.00    +0.000 C 
ENDBRANCH  14  25
BRANCH  15  27
ATOM     27  O   UNL     1     -13.433  19.582  21.276  0.00  0.00    +0.000 OA
ATOM     28  C   UNL     1     -12.832  18.877  20.218  0.00  0.00    +0.000 C 
ENDBRANCH  15  27
TORSDOF 3
ENDMDL
MODEL 8
REMARK VINA RESULT:      -5.5     17.355     20.294
REMARK  Name = CP466722.pdbqt.pdb
REMARK  3 active torsions:
REMARK  status: ('A' for Active; 'I' for Inactive)
REMARK    1  A    between atoms: C_5  and  C_23
REMARK    2  A    between atoms: C_14  and  O_16
REMARK    3  A    between atoms: C_15  and  O_18
REMARK                            x       y       z     vdW  Elec       q    Type
REMARK                         _______ _______ _______ _____ _____    ______ ____
ROOT
ATOM      1  N   UNL     1     -14.147  18.150  23.906  0.00  0.00    +0.000 N 
ATOM      2  N   UNL     1     -13.309  17.415  24.674  0.00  0.00    +0.000 NA
ATOM      3  N   UNL     1     -15.139  18.036  25.879  0.00  0.00    +0.000 NA
ATOM      4  C   UNL     1     -15.265  18.504  24.664  0.00  0.00    +0.000 A 
ATOM      5  C   UNL     1     -13.937  17.367  25.858  0.00  0.00    +0.000 A 
ATOM      6  C   UNL     1     -13.851  18.507  22.547  0.00  0.00    +0.000 A 
ATOM      7  N   UNL     1     -14.716  19.361  21.936  0.00  0.00    +0.000 NA
ATOM      8  C   UNL     1     -14.427  19.711  20.679  0.00  0.00    +0.000 A 
ATOM      9  N   UNL     1     -13.362  19.300  19.984  0.00  0.00    +0.000 NA
ATOM     10  C   UNL     1     -12.517  18.462  20.589  0.00  0.00    +0.000 A 
ATOM     11  C   UNL     1     -12.706  18.004  21.900  0.00  0.00    +0.000 A 
ATOM     12  C   UNL     1     -11.402  18.036  19.880  0.00  0.00    +0.000 A 
ATOM     13  C   UNL     1     -11.765  17.091  22.433  0.00  0.00    +0.000 A 
ATOM     14  C   UNL     1     -10.673  16.642  21.700  0.00  0.00    +0.000 A 
ATOM     15  C   UNL     1     -10.461  17.164  20.429  0.00  0.00    +0.000 A 
ATOM     16  N   UNL     1     -16.314  19.214  24.204  0.00  0.00    +0.000 N 
ATOM     17  H   UNL     1     -16.951  19.620  24.881  0.00  0.00    +0.000 HD
ATOM     18  H   UNL     1     -16.228  19.724  23.325  0.00  0.00    +0.000 HD
ENDROOT
BRANCH   5  19
ATOM     19  C   UNL     1     -13.409  16.679  27.040  0.00  0.00    +0.000 A 
ATOM     20  N   UNL     1     -14.293  16.277  27.994  0.00  0.00    +0.000 NA
ATOM     21  C   UNL     1     -13.782  15.646  29.074  0.00  0.00    +0.000 A 
ATOM     22  C   UNL     1     -12.436  15.389  29.258  0.00  0.00    +0.000 A 
ATOM     23  C   UNL     1     -11.557  15.808  28.268  0.00  0.00    +0.000 A 
ATOM     24  C   UNL     1     -12.040  16.462  27.142  0.00  0.00    +0.000 A 
ENDBRANCH   5  19
BRANCH  14  25
ATOM     25  O   UNL     1      -9.799  15.775  22.300  0.00  0.00    +0.000 OA
ATOM     26  C   UNL     1     -10.499  14.792  23.020  0.00  0.00    +0.000 C 
ENDBRANCH  14  25
BRANCH  15  27
ATOM     27  O   UNL     1      -9.389  16.770  19.674  0.00  0.00    +0.000 OA
ATOM     28  C   UNL     1      -9.589  17.123  18.328  0.00  0.00    +0.000 C 
ENDBRANCH  15  27
TORSDOF 3
ENDMDL
MODEL 9
REMARK VINA RESULT:      -5.5     20.875     21.890
REMARK  Name = CP466722.pdbqt.pdb
REMARK  3 active torsions:
REMARK  status: ('A' for Active; 'I' for Inactive)
REMARK    1  A    between atoms: C_5  and  C_23
REMARK    2  A    between atoms: C_14  and  O_16
REMARK    3  A    between atoms: C_15  and  O_18
REMARK                            x       y       z     vdW  Elec       q    Type
REMARK                         _______ _______ _______ _____ _____    ______ ____
ROOT
ATOM      1  N   UNL     1      -5.505  14.410  -0.857  0.00  0.00    +0.000 N 
ATOM      2  N   UNL     1      -5.587  15.407   0.054  0.00  0.00    +0.000 NA
ATOM      3  N   UNL     1      -4.188  13.773   0.801  0.00  0.00    +0.000 NA
ATOM      4  C   UNL     1      -4.631  13.430  -0.381  0.00  0.00    +0.000 A 
ATOM      5  C   UNL     1      -4.782  14.990   1.043  0.00  0.00    +0.000 A 
ATOM      6  C   UNL     1      -6.256  14.403  -2.080  0.00  0.00    +0.000 A 
ATOM      7  N   UNL     1      -6.182  13.278  -2.840  0.00  0.00    +0.000 NA
ATOM      8  C   UNL     1      -6.901  13.265  -3.967  0.00  0.00    +0.000 A 
ATOM      9  N   UNL     1      -7.686  14.257  -4.398  0.00  0.00    +0.000 NA
ATOM     10  C   UNL     1      -7.755  15.359  -3.649  0.00  0.00    +0.000 A 
ATOM     11  C   UNL     1      -7.044  15.512  -2.451  0.00  0.00    +0.000 A 
ATOM     12  C   UNL     1      -8.574  16.392  -4.082  0.00  0.00    +0.000 A 
ATOM     13  C   UNL     1      -7.164  16.736  -1.751  0.00  0.00    +0.000 A 
ATOM     14  C   UNL     1      -7.959  17.778  -2.214  0.00  0.00    +0.000 A 
ATOM     15  C   UNL     1      -8.714  17.581  -3.364  0.00  0.00    +0.000 A 
ATOM     16  N   UNL     1      -4.294  12.308  -1.047  0.00  0.00    +0.000 N 
ATOM     17  H   UNL     1      -3.852  11.557  -0.528  0.00  0.00    +0.000 HD
ATOM     18  H   UNL     1      -4.851  12.015  -1.850  0.00  0.00    +0.000 HD
ENDROOT
BRANCH   5  19
ATOM     19  C   UNL     1      -4.546  15.739   2.281  0.00  0.00    +0.000 A 
ATOM     20  N   UNL     1      -4.157  15.044   3.385  0.00  0.00    +0.000 NA
ATOM     21  C   UNL     1      -3.947  15.757   4.513  0.00  0.00    +0.000 A 
ATOM     22  C   UNL     1      -4.100  17.128   4.605  0.00  0.00    +0.000 A 
ATOM     23  C   UNL     1      -4.494  17.812   3.462  0.00  0.00    +0.000 A 
ATOM     24  C   UNL     1      -4.723  17.117   2.281  0.00  0.00    +0.000 A 
ENDBRANCH   5  19
BRANCH  14  25
ATOM     25  O   UNL     1      -8.036  18.920  -1.464  0.00  0.00    +0.000 OA
ATOM     26  C   UNL     1      -7.317  18.770  -0.265  0.00  0.00    +0.000 C 
ENDBRANCH  14  25
BRANCH  15  27
ATOM     27  O   UNL     1      -9.528  18.568  -3.851  0.00  0.00    +0.000 OA
ATOM     28  C   UNL     1     -10.079  18.177  -5.084  0.00  0.00    +0.000 C 
ENDBRANCH  15  27
TORSDOF 3
ENDMDL
