MODEL 1
REMARK VINA RESULT:      -6.4      0.000      0.000
REMARK  Name = Curcumin.pdbqt.pdb
REMARK  8 active torsions:
REMARK  status: ('A' for Active; 'I' for Inactive)
REMARK    1  A    between atoms: C_2  and  C_4
REMARK    2  A    between atoms: C_5  and  C_6
REMARK    3  A    between atoms: C_8  and  O_12
REMARK    4  A    between atoms: C_9  and  O_14
REMARK    5  A    between atoms: C_16  and  C_18
REMARK    6  A    between atoms: C_19  and  C_20
REMARK    7  A    between atoms: C_22  and  O_26
REMARK    8  A    between atoms: C_23  and  O_28
REMARK                            x       y       z     vdW  Elec       q    Type
REMARK                         _______ _______ _______ _____ _____    ______ ____
ROOT
ATOM      1  C   UNL     1     -22.653  12.204   7.823  0.00  0.00    +0.000 C 
ATOM      2  C   UNL     1     -22.416  10.809   7.995  0.00  0.00    +0.000 C 
ATOM      3  O   UNL     1     -21.591  10.432   8.813  0.00  0.00    +0.000 OA
ATOM      4  C   UNL     1     -22.886  13.599   7.649  0.00  0.00    +0.000 C 
ATOM      5  O   UNL     1     -23.459  13.998   6.645  0.00  0.00    +0.000 OA
ENDROOT
BRANCH   2   6
ATOM      6  C   UNL     1     -23.152   9.854   7.206  0.00  0.00    +0.000 C 
ATOM      7  C   UNL     1     -23.768   9.058   6.550  0.00  0.00    +0.000 C 
BRANCH   7   8
ATOM      8  C   UNL     1     -24.499   8.113   5.770  0.00  0.00    +0.000 A 
ATOM      9  C   UNL     1     -24.577   6.785   6.181  0.00  0.00    +0.000 A 
ATOM     10  C   UNL     1     -25.290   5.845   5.429  0.00  0.00    +0.000 A 
ATOM     11  C   UNL     1     -25.922   6.266   4.254  0.00  0.00    +0.000 A 
ATOM     12  C   UNL     1     -25.845   7.595   3.840  0.00  0.00    +0.000 A 
ATOM     13  C   UNL     1     -25.132   8.520   4.599  0.00  0.00    +0.000 A 
BRANCH  10  14
ATOM     14  O   UNL     1     -25.412   4.522   5.771  0.00  0.00    +0.000 OA
ATOM     15  C   UNL     1     -26.333   4.230   6.783  0.00  0.00    +0.000 C 
ENDBRANCH  10  14
BRANCH  11  16
ATOM     16  O   UNL     1     -26.640   5.422   3.454  0.00  0.00    +0.000 OA
ATOM     17  H   UNL     1     -26.771   5.812   2.573  0.00  0.00    +0.000 HD
ENDBRANCH  11  16
ENDBRANCH   7   8
ENDBRANCH   2   6
BRANCH   4  18
ATOM     18  C   UNL     1     -22.446  14.529   8.658  0.00  0.00    +0.000 C 
ATOM     19  C   UNL     1     -22.078  15.307   9.496  0.00  0.00    +0.000 C 
BRANCH  19  20
ATOM     20  C   UNL     1     -21.639  16.233  10.487  0.00  0.00    +0.000 A 
ATOM     21  C   UNL     1     -22.413  17.355  10.780  0.00  0.00    +0.000 A 
ATOM     22  C   UNL     1     -21.998  18.272  11.749  0.00  0.00    +0.000 A 
ATOM     23  C   UNL     1     -20.793  18.041  12.419  0.00  0.00    +0.000 A 
ATOM     24  C   UNL     1     -20.015  16.920  12.130  0.00  0.00    +0.000 A 
ATOM     25  C   UNL     1     -20.441  16.015  11.163  0.00  0.00    +0.000 A 
BRANCH  22  26
ATOM     26  O   UNL     1     -22.698  19.402  12.097  0.00  0.00    +0.000 OA
ATOM     27  C   UNL     1     -23.877  19.182  12.828  0.00  0.00    +0.000 C 
ENDBRANCH  22  26
BRANCH  23  28
ATOM     28  O   UNL     1     -20.369  18.927  13.371  0.00  0.00    +0.000 OA
ATOM     29  H   UNL     1     -19.470  19.225  13.141  0.00  0.00    +0.000 HD
ENDBRANCH  23  28
ENDBRANCH  19  20
ENDBRANCH   4  18
TORSDOF 8
ENDMDL
MODEL 2
REMARK VINA RESULT:      -5.6     17.246     19.492
REMARK  Name = Curcumin.pdbqt.pdb
REMARK  8 active torsions:
REMARK  status: ('A' for Active; 'I' for Inactive)
REMARK    1  A    between atoms: C_2  and  C_4
REMARK    2  A    between atoms: C_5  and  C_6
REMARK    3  A    between atoms: C_8  and  O_12
REMARK    4  A    between atoms: C_9  and  O_14
REMARK    5  A    between atoms: C_16  and  C_18
REMARK    6  A    between atoms: C_19  and  C_20
REMARK    7  A    between atoms: C_22  and  O_26
REMARK    8  A    between atoms: C_23  and  O_28
REMARK                            x       y       z     vdW  Elec       q    Type
REMARK                         _______ _______ _______ _____ _____    ______ ____
ROOT
ATOM      1  C   UNL     1     -12.195   3.607  20.090  0.00  0.00    +0.000 C 
ATOM      2  C   UNL     1     -12.735   4.753  20.742  0.00  0.00    +0.000 C 
ATOM      3  O   UNL     1     -12.020   5.720  20.958  0.00  0.00    +0.000 OA
ATOM      4  C   UNL     1     -11.653   2.459  19.441  0.00  0.00    +0.000 C 
ATOM      5  O   UNL     1     -12.248   1.392  19.498  0.00  0.00    +0.000 OA
ENDROOT
BRANCH   2   6
ATOM      6  C   UNL     1     -14.120   4.766  21.140  0.00  0.00    +0.000 C 
ATOM      7  C   UNL     1     -15.274   4.775  21.472  0.00  0.00    +0.000 C 
BRANCH   7   8
ATOM      8  C   UNL     1     -16.645   4.787  21.868  0.00  0.00    +0.000 A 
ATOM      9  C   UNL     1     -17.645   4.921  20.907  0.00  0.00    +0.000 A 
ATOM     10  C   UNL     1     -18.993   4.935  21.277  0.00  0.00    +0.000 A 
ATOM     11  C   UNL     1     -19.319   4.813  22.632  0.00  0.00    +0.000 A 
ATOM     12  C   UNL     1     -18.320   4.679  23.596  0.00  0.00    +0.000 A 
ATOM     13  C   UNL     1     -16.982   4.667  23.213  0.00  0.00    +0.000 A 
BRANCH  10  14
ATOM     14  O   UNL     1     -20.031   5.062  20.388  0.00  0.00    +0.000 OA
ATOM     15  C   UNL     1     -20.210   4.000  19.494  0.00  0.00    +0.000 C 
ENDBRANCH  10  14
BRANCH  11  16
ATOM     16  O   UNL     1     -20.608   4.816  23.089  0.00  0.00    +0.000 OA
ATOM     17  H   UNL     1     -21.121   5.523  22.664  0.00  0.00    +0.000 HD
ENDBRANCH  11  16
ENDBRANCH   7   8
ENDBRANCH   2   6
BRANCH   4  18
ATOM     18  C   UNL     1     -10.409   2.565  18.723  0.00  0.00    +0.000 C 
ATOM     19  C   UNL     1      -9.372   2.657  18.121  0.00  0.00    +0.000 C 
BRANCH  19  20
ATOM     20  C   UNL     1      -8.145   2.768  17.406  0.00  0.00    +0.000 A 
ATOM     21  C   UNL     1      -7.830   3.957  16.749  0.00  0.00    +0.000 A 
ATOM     22  C   UNL     1      -6.630   4.083  16.043  0.00  0.00    +0.000 A 
ATOM     23  C   UNL     1      -5.754   2.995  16.010  0.00  0.00    +0.000 A 
ATOM     24  C   UNL     1      -6.064   1.804  16.665  0.00  0.00    +0.000 A 
ATOM     25  C   UNL     1      -7.262   1.692  17.364  0.00  0.00    +0.000 A 
BRANCH  22  26
ATOM     26  O   UNL     1      -6.243   5.216  15.369  0.00  0.00    +0.000 OA
ATOM     27  C   UNL     1      -5.890   6.309  16.176  0.00  0.00    +0.000 C 
ENDBRANCH  22  26
BRANCH  23  28
ATOM     28  O   UNL     1      -4.575   3.098  15.324  0.00  0.00    +0.000 OA
ATOM     29  H   UNL     1      -4.700   3.715  14.580  0.00  0.00    +0.000 HD
ENDBRANCH  23  28
ENDBRANCH  19  20
ENDBRANCH   4  18
TORSDOF 8
ENDMDL
MODEL 3
REMARK VINA RESULT:      -5.5      1.733      2.563
REMARK  Name = Curcumin.pdbqt.pdb
REMARK  8 active torsions:
REMARK  status: ('A' for Active; 'I' for Inactive)
REMARK    1  A    between atoms: C_2  and  C_4
REMARK    2  A    between atoms: C_5  and  C_6
REMARK    3  A    between atoms: C_8  and  O_12
REMARK    4  A    between atoms: C_9  and  O_14
REMARK    5  A    between atoms: C_16  and  C_18
REMARK    6  A    between atoms: C_19  and  C_20
REMARK    7  A    between atoms: C_22  and  O_26
REMARK    8  A    between atoms: C_23  and  O_28
REMARK                            x       y       z     vdW  Elec       q    Type
REMARK                         _______ _______ _______ _____ _____    ______ ____
ROOT
ATOM      1  C   UNL     1     -23.405  11.398   7.062  0.00  0.00    +0.000 C 
ATOM      2  C   UNL     1     -22.946  10.087   7.378  0.00  0.00    +0.000 C 
ATOM      3  O   UNL     1     -21.945   9.945   8.065  0.00  0.00    +0.000 OA
ATOM      4  C   UNL     1     -23.860  12.711   6.744  0.00  0.00    +0.000 C 
ATOM      5  O   UNL     1     -24.650  12.873   5.824  0.00  0.00    +0.000 OA
ENDROOT
BRANCH   2   6
ATOM      6  C   UNL     1     -23.665   8.938   6.888  0.00  0.00    +0.000 C 
ATOM      7  C   UNL     1     -24.265   7.982   6.478  0.00  0.00    +0.000 C 
BRANCH   7   8
ATOM      8  C   UNL     1     -24.975   6.845   5.991  0.00  0.00    +0.000 A 
ATOM      9  C   UNL     1     -24.869   6.481   4.650  0.00  0.00    +0.000 A 
ATOM     10  C   UNL     1     -25.558   5.369   4.156  0.00  0.00    +0.000 A 
ATOM     11  C   UNL     1     -26.357   4.629   5.033  0.00  0.00    +0.000 A 
ATOM     12  C   UNL     1     -26.465   4.991   6.375  0.00  0.00    +0.000 A 
ATOM     13  C   UNL     1     -25.774   6.101   6.855  0.00  0.00    +0.000 A 
BRANCH  10  14
ATOM     14  O   UNL     1     -25.501   4.951   2.850  0.00  0.00    +0.000 OA
ATOM     15  C   UNL     1     -24.224   4.875   2.283  0.00  0.00    +0.000 C 
ENDBRANCH  10  14
BRANCH  11  16
ATOM     16  O   UNL     1     -27.068   3.529   4.642  0.00  0.00    +0.000 OA
ATOM     17  H   UNL     1     -27.902   3.791   4.217  0.00  0.00    +0.000 HD
ENDBRANCH  11  16
ENDBRANCH   7   8
ENDBRANCH   2   6
BRANCH   4  18
ATOM     18  C   UNL     1     -23.388  13.837   7.508  0.00  0.00    +0.000 C 
ATOM     19  C   UNL     1     -22.993  14.774   8.150  0.00  0.00    +0.000 C 
BRANCH  19  20
ATOM     20  C   UNL     1     -22.525  15.882   8.913  0.00  0.00    +0.000 A 
ATOM     21  C   UNL     1     -22.441  17.144   8.325  0.00  0.00    +0.000 A 
ATOM     22  C   UNL     1     -21.984  18.242   9.059  0.00  0.00    +0.000 A 
ATOM     23  C   UNL     1     -21.614  18.049  10.393  0.00  0.00    +0.000 A 
ATOM     24  C   UNL     1     -21.696  16.790  10.986  0.00  0.00    +0.000 A 
ATOM     25  C   UNL     1     -22.152  15.705  10.243  0.00  0.00    +0.000 A 
BRANCH  22  26
ATOM     26  O   UNL     1     -21.871  19.516   8.558  0.00  0.00    +0.000 OA
ATOM     27  C   UNL     1     -20.951  19.674   7.510  0.00  0.00    +0.000 C 
ENDBRANCH  22  26
BRANCH  23  28
ATOM     28  O   UNL     1     -21.164  19.111  11.129  0.00  0.00    +0.000 OA
ATOM     29  H   UNL     1     -20.743  18.772  11.940  0.00  0.00    +0.000 HD
ENDBRANCH  23  28
ENDBRANCH  19  20
ENDBRANCH   4  18
TORSDOF 8
ENDMDL
MODEL 4
REMARK VINA RESULT:      -5.5     17.751     20.189
REMARK  Name = Curcumin.pdbqt.pdb
REMARK  8 active torsions:
REMARK  status: ('A' for Active; 'I' for Inactive)
REMARK    1  A    between atoms: C_2  and  C_4
REMARK    2  A    between atoms: C_5  and  C_6
REMARK    3  A    between atoms: C_8  and  O_12
REMARK    4  A    between atoms: C_9  and  O_14
REMARK    5  A    between atoms: C_16  and  C_18
REMARK    6  A    between atoms: C_19  and  C_20
REMARK    7  A    between atoms: C_22  and  O_26
REMARK    8  A    between atoms: C_23  and  O_28
REMARK                            x       y       z     vdW  Elec       q    Type
REMARK                         _______ _______ _______ _____ _____    ______ ____
ROOT
ATOM      1  C   UNL     1     -12.136   3.734  19.990  0.00  0.00    +0.000 C 
ATOM      2  C   UNL     1     -12.691   4.875  20.637  0.00  0.00    +0.000 C 
ATOM      3  O   UNL     1     -12.004   5.873  20.801  0.00  0.00    +0.000 OA
ATOM      4  C   UNL     1     -11.577   2.592  19.346  0.00  0.00    +0.000 C 
ATOM      5  O   UNL     1     -12.128   1.505  19.451  0.00  0.00    +0.000 OA
ENDROOT
BRANCH   2   6
ATOM      6  C   UNL     1     -14.059   4.848  21.090  0.00  0.00    +0.000 C 
ATOM      7  C   UNL     1     -15.198   4.823  21.470  0.00  0.00    +0.000 C 
BRANCH   7   8
ATOM      8  C   UNL     1     -16.551   4.797  21.921  0.00  0.00    +0.000 A 
ATOM      9  C   UNL     1     -16.833   4.517  23.257  0.00  0.00    +0.000 A 
ATOM     10  C   UNL     1     -18.154   4.488  23.716  0.00  0.00    +0.000 A 
ATOM     11  C   UNL     1     -19.186   4.744  22.809  0.00  0.00    +0.000 A 
ATOM     12  C   UNL     1     -18.907   5.024  21.472  0.00  0.00    +0.000 A 
ATOM     13  C   UNL     1     -17.588   5.051  21.028  0.00  0.00    +0.000 A 
BRANCH  10  14
ATOM     14  O   UNL     1     -18.507   4.221  25.015  0.00  0.00    +0.000 OA
ATOM     15  C   UNL     1     -18.336   5.268  25.928  0.00  0.00    +0.000 C 
ENDBRANCH  10  14
BRANCH  11  16
ATOM     16  O   UNL     1     -20.507   4.737  23.165  0.00  0.00    +0.000 OA
ATOM     17  H   UNL     1     -20.648   4.181  23.949  0.00  0.00    +0.000 HD
ENDBRANCH  11  16
ENDBRANCH   7   8
ENDBRANCH   2   6
BRANCH   4  18
ATOM     18  C   UNL     1     -10.367   2.725  18.575  0.00  0.00    +0.000 C 
ATOM     19  C   UNL     1      -9.361   2.836  17.928  0.00  0.00    +0.000 C 
BRANCH  19  20
ATOM     20  C   UNL     1      -8.169   2.967  17.158  0.00  0.00    +0.000 A 
ATOM     21  C   UNL     1      -7.215   1.950  17.176  0.00  0.00    +0.000 A 
ATOM     22  C   UNL     1      -6.041   2.063  16.426  0.00  0.00    +0.000 A 
ATOM     23  C   UNL     1      -5.843   3.214  15.659  0.00  0.00    +0.000 A 
ATOM     24  C   UNL     1      -6.793   4.235  15.638  0.00  0.00    +0.000 A 
ATOM     25  C   UNL     1      -7.957   4.110  16.389  0.00  0.00    +0.000 A 
BRANCH  22  26
ATOM     26  O   UNL     1      -5.052   1.110  16.387  0.00  0.00    +0.000 OA
ATOM     27  C   UNL     1      -5.481  -0.196  16.100  0.00  0.00    +0.000 C 
ENDBRANCH  22  26
BRANCH  23  28
ATOM     28  O   UNL     1      -4.700   3.344  14.918  0.00  0.00    +0.000 OA
ATOM     29  H   UNL     1      -4.575   4.285  14.699  0.00  0.00    +0.000 HD
ENDBRANCH  23  28
ENDBRANCH  19  20
ENDBRANCH   4  18
TORSDOF 8
ENDMDL
MODEL 5
REMARK VINA RESULT:      -5.3     17.720     19.101
REMARK  Name = Curcumin.pdbqt.pdb
REMARK  8 active torsions:
REMARK  status: ('A' for Active; 'I' for Inactive)
REMARK    1  A    between atoms: C_2  and  C_4
REMARK    2  A    between atoms: C_5  and  C_6
REMARK    3  A    between atoms: C_8  and  O_12
REMARK    4  A    between atoms: C_9  and  O_14
REMARK    5  A    between atoms: C_16  and  C_18
REMARK    6  A    between atoms: C_19  and  C_20
REMARK    7  A    between atoms: C_22  and  O_26
REMARK    8  A    between atoms: C_23  and  O_28
REMARK                            x       y       z     vdW  Elec       q    Type
REMARK                         _______ _______ _______ _____ _____    ______ ____
ROOT
ATOM      1  C   UNL     1     -10.186  17.533  19.765  0.00  0.00    +0.000 C 
ATOM      2  C   UNL     1      -9.203  16.607  20.220  0.00  0.00    +0.000 C 
ATOM      3  O   UNL     1      -9.212  16.239  21.385  0.00  0.00    +0.000 OA
ATOM      4  C   UNL     1     -11.168  18.462  19.312  0.00  0.00    +0.000 C 
ATOM      5  O   UNL     1     -10.992  19.068  18.264  0.00  0.00    +0.000 OA
ENDROOT
BRANCH   2   6
ATOM      6  C   UNL     1      -8.209  16.109  19.304  0.00  0.00    +0.000 C 
ATOM      7  C   UNL     1      -7.379  15.696  18.540  0.00  0.00    +0.000 C 
BRANCH   7   8
ATOM      8  C   UNL     1      -6.393  15.204  17.634  0.00  0.00    +0.000 A 
ATOM      9  C   UNL     1      -6.466  13.892  17.172  0.00  0.00    +0.000 A 
ATOM     10  C   UNL     1      -5.508  13.393  16.283  0.00  0.00    +0.000 A 
ATOM     11  C   UNL     1      -4.474  14.238  15.868  0.00  0.00    +0.000 A 
ATOM     12  C   UNL     1      -4.398  15.551  16.330  0.00  0.00    +0.000 A 
ATOM     13  C   UNL     1      -5.358  16.035  17.214  0.00  0.00    +0.000 A 
BRANCH  10  14
ATOM     14  O   UNL     1      -5.517  12.115  15.786  0.00  0.00    +0.000 OA
ATOM     15  C   UNL     1      -6.304  11.189  16.480  0.00  0.00    +0.000 C 
ENDBRANCH  10  14
BRANCH  11  16
ATOM     16  O   UNL     1      -3.492  13.840  15.003  0.00  0.00    +0.000 OA
ATOM     17  H   UNL     1      -3.428  14.453  14.251  0.00  0.00    +0.000 HD
ENDBRANCH  11  16
ENDBRANCH   7   8
ENDBRANCH   2   6
BRANCH   4  18
ATOM     18  C   UNL     1     -12.360  18.679  20.090  0.00  0.00    +0.000 C 
ATOM     19  C   UNL     1     -13.358  18.861  20.736  0.00  0.00    +0.000 C 
BRANCH  19  20
ATOM     20  C   UNL     1     -14.542  19.077  21.498  0.00  0.00    +0.000 A 
ATOM     21  C   UNL     1     -14.598  18.659  22.827  0.00  0.00    +0.000 A 
ATOM     22  C   UNL     1     -15.752  18.864  23.589  0.00  0.00    +0.000 A 
ATOM     23  C   UNL     1     -16.846  19.496  22.992  0.00  0.00    +0.000 A 
ATOM     24  C   UNL     1     -16.796  19.916  21.664  0.00  0.00    +0.000 A 
ATOM     25  C   UNL     1     -15.641  19.706  20.917  0.00  0.00    +0.000 A 
BRANCH  22  26
ATOM     26  O   UNL     1     -15.891  18.484  24.902  0.00  0.00    +0.000 OA
ATOM     27  C   UNL     1     -14.721  18.544  25.676  0.00  0.00    +0.000 C 
ENDBRANCH  22  26
BRANCH  23  28
ATOM     28  O   UNL     1     -17.985  19.705  23.721  0.00  0.00    +0.000 OA
ATOM     29  H   UNL     1     -18.723  19.240  23.286  0.00  0.00    +0.000 HD
ENDBRANCH  23  28
ENDBRANCH  19  20
ENDBRANCH   4  18
TORSDOF 8
ENDMDL
MODEL 6
REMARK VINA RESULT:      -5.2     17.253     18.858
REMARK  Name = Curcumin.pdbqt.pdb
REMARK  8 active torsions:
REMARK  status: ('A' for Active; 'I' for Inactive)
REMARK    1  A    between atoms: C_2  and  C_4
REMARK    2  A    between atoms: C_5  and  C_6
REMARK    3  A    between atoms: C_8  and  O_12
REMARK    4  A    between atoms: C_9  and  O_14
REMARK    5  A    between atoms: C_16  and  C_18
REMARK    6  A    between atoms: C_19  and  C_20
REMARK    7  A    between atoms: C_22  and  O_26
REMARK    8  A    between atoms: C_23  and  O_28
REMARK                            x       y       z     vdW  Elec       q    Type
REMARK                         _______ _______ _______ _____ _____    ______ ____
ROOT
ATOM      1  C   UNL     1      -9.734  17.519  18.912  0.00  0.00    +0.000 C 
ATOM      2  C   UNL     1      -8.683  16.557  18.947  0.00  0.00    +0.000 C 
ATOM      3  O   UNL     1      -8.410  15.997  19.998  0.00  0.00    +0.000 OA
ATOM      4  C   UNL     1     -10.782  18.483  18.878  0.00  0.00    +0.000 C 
ATOM      5  O   UNL     1     -10.860  19.263  17.940  0.00  0.00    +0.000 OA
ENDROOT
BRANCH   2   6
ATOM      6  C   UNL     1      -7.951  16.249  17.744  0.00  0.00    +0.000 C 
ATOM      7  C   UNL     1      -7.343  15.994  16.740  0.00  0.00    +0.000 C 
BRANCH   7   8
ATOM      8  C   UNL     1      -6.618  15.692  15.549  0.00  0.00    +0.000 A 
ATOM      9  C   UNL     1      -6.113  16.725  14.762  0.00  0.00    +0.000 A 
ATOM     10  C   UNL     1      -5.400  16.447  13.592  0.00  0.00    +0.000 A 
ATOM     11  C   UNL     1      -5.205  15.112  13.225  0.00  0.00    +0.000 A 
ATOM     12  C   UNL     1      -5.710  14.076  14.011  0.00  0.00    +0.000 A 
ATOM     13  C   UNL     1      -6.418  14.367  15.174  0.00  0.00    +0.000 A 
BRANCH  10  14
ATOM     14  O   UNL     1      -4.872  17.411  12.769  0.00  0.00    +0.000 OA
ATOM     15  C   UNL     1      -4.330  18.534  13.404  0.00  0.00    +0.000 C 
ENDBRANCH  10  14
BRANCH  11  16
ATOM     16  O   UNL     1      -4.522  14.743  12.100  0.00  0.00    +0.000 OA
ATOM     17  H   UNL     1      -3.836  15.397  11.884  0.00  0.00    +0.000 HD
ENDBRANCH  11  16
ENDBRANCH   7   8
ENDBRANCH   2   6
BRANCH   4  18
ATOM     18  C   UNL     1     -11.743  18.532  19.951  0.00  0.00    +0.000 C 
ATOM     19  C   UNL     1     -12.548  18.571  20.843  0.00  0.00    +0.000 C 
BRANCH  19  20
ATOM     20  C   UNL     1     -13.504  18.615  21.898  0.00  0.00    +0.000 A 
ATOM     21  C   UNL     1     -14.784  19.112  21.655  0.00  0.00    +0.000 A 
ATOM     22  C   UNL     1     -15.734  19.162  22.679  0.00  0.00    +0.000 A 
ATOM     23  C   UNL     1     -15.375  18.704  23.950  0.00  0.00    +0.000 A 
ATOM     24  C   UNL     1     -14.097  18.206  24.199  0.00  0.00    +0.000 A 
ATOM     25  C   UNL     1     -13.161  18.162  23.170  0.00  0.00    +0.000 A 
BRANCH  22  26
ATOM     26  O   UNL     1     -17.015  19.635  22.525  0.00  0.00    +0.000 OA
ATOM     27  C   UNL     1     -17.735  19.092  21.450  0.00  0.00    +0.000 C 
ENDBRANCH  22  26
BRANCH  23  28
ATOM     28  O   UNL     1     -16.291  18.744  24.965  0.00  0.00    +0.000 OA
ATOM     29  H   UNL     1     -16.977  19.399  24.741  0.00  0.00    +0.000 HD
ENDBRANCH  23  28
ENDBRANCH  19  20
ENDBRANCH   4  18
TORSDOF 8
ENDMDL
MODEL 7
REMARK VINA RESULT:      -5.1      3.698     12.012
REMARK  Name = Curcumin.pdbqt.pdb
REMARK  8 active torsions:
REMARK  status: ('A' for Active; 'I' for Inactive)
REMARK    1  A    between atoms: C_2  and  C_4
REMARK    2  A    between atoms: C_5  and  C_6
REMARK    3  A    between atoms: C_8  and  O_12
REMARK    4  A    between atoms: C_9  and  O_14
REMARK    5  A    between atoms: C_16  and  C_18
REMARK    6  A    between atoms: C_19  and  C_20
REMARK    7  A    between atoms: C_22  and  O_26
REMARK    8  A    between atoms: C_23  and  O_28
REMARK                            x       y       z     vdW  Elec       q    Type
REMARK                         _______ _______ _______ _____ _____    ______ ____
ROOT
ATOM      1  C   UNL     1     -24.254  15.145  10.345  0.00  0.00    +0.000 C 
ATOM      2  C   UNL     1     -24.366  16.563  10.443  0.00  0.00    +0.000 C 
ATOM      3  O   UNL     1     -24.079  17.260   9.482  0.00  0.00    +0.000 OA
ATOM      4  C   UNL     1     -24.137  13.728  10.247  0.00  0.00    +0.000 C 
ATOM      5  O   UNL     1     -24.115  13.049  11.263  0.00  0.00    +0.000 OA
ENDROOT
BRANCH   2   6
ATOM      6  C   UNL     1     -24.818  17.162  11.673  0.00  0.00    +0.000 C 
ATOM      7  C   UNL     1     -25.197  17.664  12.697  0.00  0.00    +0.000 C 
BRANCH   7   8
ATOM      8  C   UNL     1     -25.647  18.257  13.913  0.00  0.00    +0.000 A 
ATOM      9  C   UNL     1     -24.726  18.615  14.895  0.00  0.00    +0.000 A 
ATOM     10  C   UNL     1     -25.149  19.198  16.093  0.00  0.00    +0.000 A 
ATOM     11  C   UNL     1     -26.517  19.415  16.288  0.00  0.00    +0.000 A 
ATOM     12  C   UNL     1     -27.441  19.059  15.307  0.00  0.00    +0.000 A 
ATOM     13  C   UNL     1     -27.006  18.479  14.118  0.00  0.00    +0.000 A 
BRANCH  10  14
ATOM     14  O   UNL     1     -24.301  19.576  17.103  0.00  0.00    +0.000 OA
ATOM     15  C   UNL     1     -23.301  20.492  16.758  0.00  0.00    +0.000 C 
ENDBRANCH  10  14
BRANCH  11  16
ATOM     16  O   UNL     1     -27.025  19.978  17.425  0.00  0.00    +0.000 OA
ATOM     17  H   UNL     1     -27.821  19.503  17.717  0.00  0.00    +0.000 HD
ENDBRANCH  11  16
ENDBRANCH   7   8
ENDBRANCH   2   6
BRANCH   4  18
ATOM     18  C   UNL     1     -24.048  13.106   8.950  0.00  0.00    +0.000 C 
ATOM     19  C   UNL     1     -23.977  12.589   7.868  0.00  0.00    +0.000 C 
BRANCH  19  20
ATOM     20  C   UNL     1     -23.897  11.975   6.584  0.00  0.00    +0.000 A 
ATOM     21  C   UNL     1     -23.831  12.768   5.439  0.00  0.00    +0.000 A 
ATOM     22  C   UNL     1     -23.752  12.183   4.172  0.00  0.00    +0.000 A 
ATOM     23  C   UNL     1     -23.740  10.788   4.077  0.00  0.00    +0.000 A 
ATOM     24  C   UNL     1     -23.807   9.991   5.219  0.00  0.00    +0.000 A 
ATOM     25  C   UNL     1     -23.885  10.587   6.474  0.00  0.00    +0.000 A 
BRANCH  22  26
ATOM     26  O   UNL     1     -23.683  12.888   2.996  0.00  0.00    +0.000 OA
ATOM     27  C   UNL     1     -22.479  13.574   2.771  0.00  0.00    +0.000 C 
ENDBRANCH  22  26
BRANCH  23  28
ATOM     28  O   UNL     1     -23.664  10.196   2.847  0.00  0.00    +0.000 OA
ATOM     29  H   UNL     1     -23.373  10.862   2.197  0.00  0.00    +0.000 HD
ENDBRANCH  23  28
ENDBRANCH  19  20
ENDBRANCH   4  18
TORSDOF 8
ENDMDL
MODEL 8
REMARK VINA RESULT:      -5.1     18.716     23.025
REMARK  Name = Curcumin.pdbqt.pdb
REMARK  8 active torsions:
REMARK  status: ('A' for Active; 'I' for Inactive)
REMARK    1  A    between atoms: C_2  and  C_4
REMARK    2  A    between atoms: C_5  and  C_6
REMARK    3  A    between atoms: C_8  and  O_12
REMARK    4  A    between atoms: C_9  and  O_14
REMARK    5  A    between atoms: C_16  and  C_18
REMARK    6  A    between atoms: C_19  and  C_20
REMARK    7  A    between atoms: C_22  and  O_26
REMARK    8  A    between atoms: C_23  and  O_28
REMARK                            x       y       z     vdW  Elec       q    Type
REMARK                         _______ _______ _______ _____ _____    ______ ____
ROOT
ATOM      1  C   UNL     1      -6.736   4.267  15.362  0.00  0.00    +0.000 C 
ATOM      2  C   UNL     1      -7.843   5.089  15.723  0.00  0.00    +0.000 C 
ATOM      3  O   UNL     1      -8.981   4.667  15.582  0.00  0.00    +0.000 OA
ATOM      4  C   UNL     1      -5.630   3.446  14.996  0.00  0.00    +0.000 C 
ATOM      5  O   UNL     1      -4.527   3.949  14.835  0.00  0.00    +0.000 OA
ENDROOT
BRANCH   2   6
ATOM      6  C   UNL     1      -7.612   6.408  16.255  0.00  0.00    +0.000 C 
ATOM      7  C   UNL     1      -7.419   7.508  16.698  0.00  0.00    +0.000 C 
BRANCH   7   8
ATOM      8  C   UNL     1      -7.191   8.815  17.222  0.00  0.00    +0.000 A 
ATOM      9  C   UNL     1      -7.569   9.115  18.529  0.00  0.00    +0.000 A 
ATOM     10  C   UNL     1      -7.353  10.390  19.060  0.00  0.00    +0.000 A 
ATOM     11  C   UNL     1      -6.750  11.360  18.252  0.00  0.00    +0.000 A 
ATOM     12  C   UNL     1      -6.371  11.063  16.944  0.00  0.00    +0.000 A 
ATOM     13  C   UNL     1      -6.592   9.788  16.428  0.00  0.00    +0.000 A 
BRANCH  10  14
ATOM     14  O   UNL     1      -7.697  10.758  20.336  0.00  0.00    +0.000 OA
ATOM     15  C   UNL     1      -8.087   9.721  21.192  0.00  0.00    +0.000 C 
ENDBRANCH  10  14
BRANCH  11  16
ATOM     16  O   UNL     1      -6.499  12.633  18.683  0.00  0.00    +0.000 OA
ATOM     17  H   UNL     1      -5.890  13.087  18.076  0.00  0.00    +0.000 HD
ENDBRANCH  11  16
ENDBRANCH   7   8
ENDBRANCH   2   6
BRANCH   4  18
ATOM     18  C   UNL     1      -5.820   2.029  14.818  0.00  0.00    +0.000 C 
ATOM     19  C   UNL     1      -5.976   0.847  14.665  0.00  0.00    +0.000 C 
BRANCH  19  20
ATOM     20  C   UNL     1      -6.161  -0.554  14.481  0.00  0.00    +0.000 A 
ATOM     21  C   UNL     1      -6.583  -1.042  13.245  0.00  0.00    +0.000 A 
ATOM     22  C   UNL     1      -6.769  -2.413  13.047  0.00  0.00    +0.000 A 
ATOM     23  C   UNL     1      -6.523  -3.284  14.112  0.00  0.00    +0.000 A 
ATOM     24  C   UNL     1      -6.101  -2.802  15.350  0.00  0.00    +0.000 A 
ATOM     25  C   UNL     1      -5.920  -1.434  15.534  0.00  0.00    +0.000 A 
BRANCH  22  26
ATOM     26  O   UNL     1      -7.181  -2.976  11.864  0.00  0.00    +0.000 OA
ATOM     27  C   UNL     1      -6.222  -3.001  10.839  0.00  0.00    +0.000 C 
ENDBRANCH  22  26
BRANCH  23  28
ATOM     28  O   UNL     1      -6.699  -4.629  13.939  0.00  0.00    +0.000 OA
ATOM     29  H   UNL     1      -6.685  -4.826  12.984  0.00  0.00    +0.000 HD
ENDBRANCH  23  28
ENDBRANCH  19  20
ENDBRANCH   4  18
TORSDOF 8
ENDMDL
MODEL 9
REMARK VINA RESULT:      -5.1      3.719      5.792
REMARK  Name = Curcumin.pdbqt.pdb
REMARK  8 active torsions:
REMARK  status: ('A' for Active; 'I' for Inactive)
REMARK    1  A    between atoms: C_2  and  C_4
REMARK    2  A    between atoms: C_5  and  C_6
REMARK    3  A    between atoms: C_8  and  O_12
REMARK    4  A    between atoms: C_9  and  O_14
REMARK    5  A    between atoms: C_16  and  C_18
REMARK    6  A    between atoms: C_19  and  C_20
REMARK    7  A    between atoms: C_22  and  O_26
REMARK    8  A    between atoms: C_23  and  O_28
REMARK                            x       y       z     vdW  Elec       q    Type
REMARK                         _______ _______ _______ _____ _____    ______ ____
ROOT
ATOM      1  C   UNL     1     -24.354  15.091  10.239  0.00  0.00    +0.000 C 
ATOM      2  C   UNL     1     -24.313  13.671  10.128  0.00  0.00    +0.000 C 
ATOM      3  O   UNL     1     -24.385  12.982  11.135  0.00  0.00    +0.000 OA
ATOM      4  C   UNL     1     -24.391  16.511  10.352  0.00  0.00    +0.000 C 
ATOM      5  O   UNL     1     -24.014  17.204   9.418  0.00  0.00    +0.000 OA
ENDROOT
BRANCH   2   6
ATOM      6  C   UNL     1     -24.192  13.057   8.830  0.00  0.00    +0.000 C 
ATOM      7  C   UNL     1     -24.092  12.543   7.749  0.00  0.00    +0.000 C 
BRANCH   7   8
ATOM      8  C   UNL     1     -23.974  11.934   6.464  0.00  0.00    +0.000 A 
ATOM      9  C   UNL     1     -23.886  12.730   5.324  0.00  0.00    +0.000 A 
ATOM     10  C   UNL     1     -23.769  12.151   4.056  0.00  0.00    +0.000 A 
ATOM     11  C   UNL     1     -23.744  10.757   3.955  0.00  0.00    +0.000 A 
ATOM     12  C   UNL     1     -23.831   9.958   5.095  0.00  0.00    +0.000 A 
ATOM     13  C   UNL     1     -23.947  10.548   6.350  0.00  0.00    +0.000 A 
BRANCH  10  14
ATOM     14  O   UNL     1     -23.677  12.870   2.891  0.00  0.00    +0.000 OA
ATOM     15  C   UNL     1     -23.464  14.246   3.031  0.00  0.00    +0.000 C 
ENDBRANCH  10  14
BRANCH  11  16
ATOM     16  O   UNL     1     -23.633  10.100   2.761  0.00  0.00    +0.000 OA
ATOM     17  H   UNL     1     -23.481  10.730   2.036  0.00  0.00    +0.000 HD
ENDBRANCH  11  16
ENDBRANCH   7   8
ENDBRANCH   2   6
BRANCH   4  18
ATOM     18  C   UNL     1     -24.873  17.120  11.566  0.00  0.00    +0.000 C 
ATOM     19  C   UNL     1     -25.270  17.628  12.580  0.00  0.00    +0.000 C 
BRANCH  19  20
ATOM     20  C   UNL     1     -25.738  18.231  13.783  0.00  0.00    +0.000 A 
ATOM     21  C   UNL     1     -24.827  18.616  14.767  0.00  0.00    +0.000 A 
ATOM     22  C   UNL     1     -25.270  19.209  15.953  0.00  0.00    +0.000 A 
ATOM     23  C   UNL     1     -26.641  19.409  16.132  0.00  0.00    +0.000 A 
ATOM     24  C   UNL     1     -27.556  19.027  15.152  0.00  0.00    +0.000 A 
ATOM     25  C   UNL     1     -27.102  18.437  13.976  0.00  0.00    +0.000 A 
BRANCH  22  26
ATOM     26  O   UNL     1     -24.442  19.616  16.971  0.00  0.00    +0.000 OA
ATOM     27  C   UNL     1     -23.249  20.238  16.569  0.00  0.00    +0.000 C 
ENDBRANCH  22  26
BRANCH  23  28
ATOM     28  O   UNL     1     -27.094  19.987  17.286  0.00  0.00    +0.000 OA
ATOM     29  H   UNL     1     -27.665  19.349  17.752  0.00  0.00    +0.000 HD
ENDBRANCH  23  28
ENDBRANCH  19  20
ENDBRANCH   4  18
TORSDOF 8
ENDMDL
