MODEL 1
REMARK VINA RESULT:      -9.1      0.000      0.000
REMARK  Name = Cyclosporin_A.pdbqt.pdb
REMARK  4 active torsions:
REMARK  status: ('A' for Active; 'I' for Inactive)
REMARK    1  A    between atoms: N_13  and  C_36
REMARK    2  A    between atoms: C_36  and  O_70
REMARK    3  A    between atoms: C_72  and  C_73
REMARK    4  A    between atoms: C_75  and  C_76
REMARK                            x       y       z     vdW  Elec       q    Type
REMARK                         _______ _______ _______ _____ _____    ______ ____
ROOT
ATOM      1  O   UNL     1     -12.589  -2.120  -2.096  0.00  0.00    +0.000 OA
ATOM      2  O   UNL     1     -15.959  -5.803  -0.914  0.00  0.00    +0.000 OA
ATOM      3  O   UNL     1     -18.912  -3.466   2.043  0.00  0.00    +0.000 OA
ATOM      4  O   UNL     1     -11.481   1.244   1.289  0.00  0.00    +0.000 OA
ATOM      5  O   UNL     1     -19.159  -4.056  -2.989  0.00  0.00    +0.000 OA
ATOM      6  O   UNL     1     -22.025   6.836  -3.488  0.00  0.00    +0.000 OA
ATOM      7  O   UNL     1     -12.218   2.924  -3.976  0.00  0.00    +0.000 OA
ATOM      8  O   UNL     1     -18.025   7.521  -0.695  0.00  0.00    +0.000 OA
ATOM      9  O   UNL     1     -24.001   2.417  -3.695  0.00  0.00    +0.000 OA
ATOM     10  O   UNL     1     -14.402   6.376  -2.254  0.00  0.00    +0.000 OA
ATOM     11  O   UNL     1     -21.120  -0.612  -4.757  0.00  0.00    +0.000 OA
ATOM     12  N   UNL     1     -15.110  -4.070  -0.754  0.00  0.00    +0.000 NA
ATOM     13  N   UNL     1     -13.776  -1.332  -0.157  0.00  0.00    +0.000 NA
ATOM     14  N   UNL     1     -17.915  -4.609   0.762  0.00  0.00    +0.000 NA
ATOM     15  N   UNL     1     -20.247  -3.139  -0.825  0.00  0.00    +0.000 NA
ATOM     16  N   UNL     1     -13.082   1.653  -0.505  0.00  0.00    +0.000 NA
ATOM     17  N   UNL     1     -22.224   5.226  -1.782  0.00  0.00    +0.000 N 
ATOM     18  N   UNL     1     -19.162   5.716  -1.657  0.00  0.00    +0.000 N 
ATOM     19  N   UNL     1     -16.296   5.845  -2.114  0.00  0.00    +0.000 NA
ATOM     20  N   UNL     1     -14.294   2.816  -3.052  0.00  0.00    +0.000 NA
ATOM     21  N   UNL     1     -20.105  -0.670  -2.492  0.00  0.00    +0.000 NA
ATOM     22  N   UNL     1     -21.677   2.437  -3.035  0.00  0.00    +0.000 NA
ATOM     23  C   UNL     1     -14.368  -3.350  -1.644  0.00  0.00    +0.000 C 
ATOM     24  C   UNL     1     -16.841  -3.888   0.429  0.00  0.00    +0.000 C 
ATOM     25  C   UNL     1     -12.721  -0.649   0.416  0.00  0.00    +0.000 C 
ATOM     26  C   UNL     1     -13.734  -3.914  -2.737  0.00  0.00    +0.000 C 
ATOM     27  C   UNL     1     -16.402  -3.572   1.807  0.00  0.00    +0.000 C 
ATOM     28  C   UNL     1     -13.667  -2.243  -1.213  0.00  0.00    +0.000 C 
ATOM     29  C   UNL     1     -16.367  -4.626  -0.603  0.00  0.00    +0.000 C 
ATOM     30  C   UNL     1     -19.713  -4.146  -0.190  0.00  0.00    +0.000 C 
ATOM     31  C   UNL     1     -18.862  -3.666   0.760  0.00  0.00    +0.000 C 
ATOM     32  C   UNL     1     -12.656   0.837   0.565  0.00  0.00    +0.000 C 
ATOM     33  C   UNL     1     -13.996  -5.297  -2.495  0.00  0.00    +0.000 C 
ATOM     34  C   UNL     1     -12.556  -3.258  -2.878  0.00  0.00    +0.000 C 
ATOM     35  C   UNL     1     -14.885  -5.253  -1.432  0.00  0.00    +0.000 C 
ATOM     36  C   UNL     1     -17.857  -4.399   2.166  0.00  0.00    +0.000 C 
ATOM     37  C   UNL     1     -12.262   2.099  -1.572  0.00  0.00    +0.000 C 
ATOM     38  C   UNL     1     -20.072   6.358  -2.456  0.00  0.00    +0.000 A 
ATOM     39  C   UNL     1     -19.457  -3.204  -1.893  0.00  0.00    +0.000 C 
ATOM     40  C   UNL     1     -23.054   4.287  -2.446  0.00  0.00    +0.000 C 
ATOM     41  C   UNL     1     -16.794   5.944  -0.857  0.00  0.00    +0.000 C 
ATOM     42  C   UNL     1     -21.532  -3.882  -0.871  0.00  0.00    +0.000 C 
ATOM     43  C   UNL     1     -19.864   7.396  -3.415  0.00  0.00    +0.000 A 
ATOM     44  C   UNL     1     -24.660   5.071  -2.146  0.00  0.00    +0.000 C 
ATOM     45  C   UNL     1     -19.666  -1.889  -2.565  0.00  0.00    +0.000 C 
ATOM     46  C   UNL     1     -16.615   7.396  -0.502  0.00  0.00    +0.000 C 
ATOM     47  C   UNL     1     -10.867   1.916  -1.332  0.00  0.00    +0.000 C 
ATOM     48  C   UNL     1     -21.430   6.062  -2.520  0.00  0.00    +0.000 A 
ATOM     49  C   UNL     1     -12.821   2.559  -2.719  0.00  0.00    +0.000 C 
ATOM     50  C   UNL     1     -18.110   6.290  -1.119  0.00  0.00    +0.000 C 
ATOM     51  C   UNL     1     -22.898   3.083  -3.093  0.00  0.00    +0.000 C 
ATOM     52  C   UNL     1     -14.767   4.016  -2.357  0.00  0.00    +0.000 C 
ATOM     53  C   UNL     1     -18.579   8.057  -3.836  0.00  0.00    +0.000 C 
ATOM     54  C   UNL     1     -21.070   7.648  -4.019  0.00  0.00    +0.000 A 
ATOM     55  C   UNL     1     -15.097   5.271  -1.782  0.00  0.00    +0.000 C 
ATOM     56  C   UNL     1     -21.402   1.303  -3.592  0.00  0.00    +0.000 C 
ATOM     57  C   UNL     1     -19.333  -2.899  -3.427  0.00  0.00    +0.000 C 
ATOM     58  C   UNL     1     -23.509   5.624  -1.645  0.00  0.00    +0.000 C 
ATOM     59  C   UNL     1     -10.077   1.465  -0.552  0.00  0.00    +0.000 C 
ATOM     60  C   UNL     1     -20.742  -0.057  -3.479  0.00  0.00    +0.000 C 
ATOM     61  C   UNL     1     -15.583   7.236  -2.214  0.00  0.00    +0.000 C 
ATOM     62  C   UNL     1     -13.447   3.056  -4.035  0.00  0.00    +0.000 C 
ATOM     63  C   UNL     1     -21.616   0.524  -4.681  0.00  0.00    +0.000 C 
ATOM     64  H   UNL     1     -13.972   1.329  -0.885  0.00  0.00    +0.000 HD
ATOM     65  H   UNL     1     -19.193   4.699  -1.670  0.00  0.00    +0.000 HD
ATOM     66  H   UNL     1     -20.184  -0.260  -1.566  0.00  0.00    +0.000 HD
ATOM     67  H   UNL     1     -21.142   2.738  -2.226  0.00  0.00    +0.000 HD
ATOM     68  C   UNL     1     -11.529  -1.166   0.535  0.00  0.00    +0.000 C 
ATOM     69  C   UNL     1     -10.201  -0.676   0.683  0.00  0.00    +0.000 C 
ATOM     70  C   UNL     1     -10.240   0.800   0.707  0.00  0.00    +0.000 C 
ATOM     71  C   UNL     1     -15.534  -4.277   3.052  0.00  0.00    +0.000 C 
ATOM     72  C   UNL     1     -14.714  -3.657   3.900  0.00  0.00    +0.000 C 
ATOM     73  C   UNL     1     -16.889  -4.618   3.066  0.00  0.00    +0.000 C 
ATOM     74  C   UNL     1     -20.957  -4.920  -0.075  0.00  0.00    +0.000 C 
ATOM     75  C   UNL     1     -21.906  -5.328  -1.002  0.00  0.00    +0.000 C 
ATOM     76  C   UNL     1     -23.264  -5.913  -0.558  0.00  0.00    +0.000 C 
ATOM     77  C   UNL     1     -22.070  -4.416  -2.027  0.00  0.00    +0.000 C 
ATOM     78  C   UNL     1     -15.560   8.464   0.052  0.00  0.00    +0.000 C 
ATOM     79  C   UNL     1     -15.647   9.593   0.750  0.00  0.00    +0.000 C 
ATOM     80  C   UNL     1     -15.202   8.134  -1.256  0.00  0.00    +0.000 C 
ATOM     81  C   UNL     1     -25.572   4.306  -2.752  0.00  0.00    +0.000 C 
ATOM     82  C   UNL     1     -27.029   4.628  -2.720  0.00  0.00    +0.000 C 
ATOM     83  C   UNL     1     -25.074   3.152  -3.404  0.00  0.00    +0.000 C 
ENDROOT
BRANCH  69  84
ATOM     84  C   UNL     1      -9.013  -1.402   0.433  0.00  0.00    +0.000 C 
ATOM     85  C   UNL     1      -8.001  -2.016   0.227  0.00  0.00    +0.000 C 
BRANCH  85  86
ATOM     86  C   UNL     1      -6.707  -2.795  -0.032  0.00  0.00    +0.000 C 
ATOM     87  C   UNL     1      -5.583  -3.475  -0.253  0.00  0.00    +0.000 C 
ENDBRANCH  85  86
ENDBRANCH  69  84
BRANCH  13  88
ATOM     88  C   UNL     1     -15.115  -0.871   0.171  0.00  0.00    +0.000 C 
BRANCH  88  89
ATOM     89  O   UNL     1     -16.326  -0.429   0.480  0.00  0.00    +0.000 OA
ATOM     90  H   UNL     1     -16.870  -1.161   0.823  0.00  0.00    +0.000 HD
ENDBRANCH  88  89
ENDBRANCH  13  88
TORSDOF 4
ENDMDL
MODEL 2
REMARK VINA RESULT:      -8.5     20.945     26.952
REMARK  Name = Cyclosporin_A.pdbqt.pdb
REMARK  4 active torsions:
REMARK  status: ('A' for Active; 'I' for Inactive)
REMARK    1  A    between atoms: N_13  and  C_36
REMARK    2  A    between atoms: C_36  and  O_70
REMARK    3  A    between atoms: C_72  and  C_73
REMARK    4  A    between atoms: C_75  and  C_76
REMARK                            x       y       z     vdW  Elec       q    Type
REMARK                         _______ _______ _______ _____ _____    ______ ____
ROOT
ATOM      1  O   UNL     1       4.322  19.555   1.283  0.00  0.00    +0.000 OA
ATOM      2  O   UNL     1       0.185  17.710  -1.122  0.00  0.00    +0.000 OA
ATOM      3  O   UNL     1      -0.645  13.705   1.366  0.00  0.00    +0.000 OA
ATOM      4  O   UNL     1       7.570  16.401   3.157  0.00  0.00    +0.000 OA
ATOM      5  O   UNL     1      -2.440  18.395   2.077  0.00  0.00    +0.000 OA
ATOM      6  O   UNL     1      -0.598  16.749  13.077  0.00  0.00    +0.000 OA
ATOM      7  O   UNL     1       6.218  20.906   6.152  0.00  0.00    +0.000 OA
ATOM      8  O   UNL     1       3.913  15.402  11.629  0.00  0.00    +0.000 OA
ATOM      9  O   UNL     1      -4.192  16.749   9.826  0.00  0.00    +0.000 OA
ATOM     10  O   UNL     1       6.189  18.197   9.660  0.00  0.00    +0.000 OA
ATOM     11  O   UNL     1      -3.206  19.029   6.301  0.00  0.00    +0.000 OA
ATOM     12  N   UNL     1       1.680  17.661   0.108  0.00  0.00    +0.000 NA
ATOM     13  N   UNL     1       4.126  17.259   1.974  0.00  0.00    +0.000 NA
ATOM     14  N   UNL     1      -0.586  15.359   0.271  0.00  0.00    +0.000 NA
ATOM     15  N   UNL     1      -2.437  15.908   2.798  0.00  0.00    +0.000 NA
ATOM     16  N   UNL     1       5.865  17.501   4.510  0.00  0.00    +0.000 NA
ATOM     17  N   UNL     1      -0.981  15.256  11.297  0.00  0.00    +0.000 N 
ATOM     18  N   UNL     1       1.924  16.112  10.621  0.00  0.00    +0.000 N 
ATOM     19  N   UNL     1       4.356  17.487   9.822  0.00  0.00    +0.000 NA
ATOM     20  N   UNL     1       4.609  19.357   6.581  0.00  0.00    +0.000 NA
ATOM     21  N   UNL     1      -1.742  17.255   5.366  0.00  0.00    +0.000 NA
ATOM     22  N   UNL     1      -1.982  16.907   8.865  0.00  0.00    +0.000 NA
ATOM     23  C   UNL     1       2.386  18.667   0.699  0.00  0.00    +0.000 C 
ATOM     24  C   UNL     1       0.559  15.954   0.617  0.00  0.00    +0.000 C 
ATOM     25  C   UNL     1       5.479  17.004   2.085  0.00  0.00    +0.000 C 
ATOM     26  C   UNL     1       2.418  19.962   0.214  0.00  0.00    +0.000 C 
ATOM     27  C   UNL     1       1.438  14.777   0.430  0.00  0.00    +0.000 C 
ATOM     28  C   UNL     1       3.567  18.380   1.353  0.00  0.00    +0.000 C 
ATOM     29  C   UNL     1       0.395  17.157   0.017  0.00  0.00    +0.000 C 
ATOM     30  C   UNL     1      -2.217  15.599   1.550  0.00  0.00    +0.000 C 
ATOM     31  C   UNL     1      -1.025  14.943   1.463  0.00  0.00    +0.000 C 
ATOM     32  C   UNL     1       6.186  16.729   3.373  0.00  0.00    +0.000 C 
ATOM     33  C   UNL     1       1.684  19.794  -1.000  0.00  0.00    +0.000 C 
ATOM     34  C   UNL     1       3.677  20.420   0.420  0.00  0.00    +0.000 C 
ATOM     35  C   UNL     1       1.210  18.496  -0.888  0.00  0.00    +0.000 C 
ATOM     36  C   UNL     1      -0.076  14.041   0.117  0.00  0.00    +0.000 C 
ATOM     37  C   UNL     1       6.480  18.727   4.867  0.00  0.00    +0.000 C 
ATOM     38  C   UNL     1       1.182  16.488  11.711  0.00  0.00    +0.000 A 
ATOM     39  C   UNL     1      -2.059  17.179   2.702  0.00  0.00    +0.000 C 
ATOM     40  C   UNL     1      -2.266  15.698  10.895  0.00  0.00    +0.000 C 
ATOM     41  C   UNL     1       4.297  16.133   9.800  0.00  0.00    +0.000 C 
ATOM     42  C   UNL     1      -3.876  15.599   2.594  0.00  0.00    +0.000 C 
ATOM     43  C   UNL     1       1.535  17.346  12.797  0.00  0.00    +0.000 A 
ATOM     44  C   UNL     1      -3.265  14.797  12.109  0.00  0.00    +0.000 C 
ATOM     45  C   UNL     1      -1.880  17.599   4.122  0.00  0.00    +0.000 C 
ATOM     46  C   UNL     1       5.143  15.707  10.969  0.00  0.00    +0.000 C 
ATOM     47  C   UNL     1       7.685  18.990   4.149  0.00  0.00    +0.000 C 
ATOM     48  C   UNL     1      -0.141  16.124  11.942  0.00  0.00    +0.000 A 
ATOM     49  C   UNL     1       5.877  19.566   5.747  0.00  0.00    +0.000 C 
ATOM     50  C   UNL     1       3.221  15.901  10.642  0.00  0.00    +0.000 C 
ATOM     51  C   UNL     1      -2.796  16.484   9.899  0.00  0.00    +0.000 C 
ATOM     52  C   UNL     1       4.874  18.420   7.677  0.00  0.00    +0.000 C 
ATOM     53  C   UNL     1       2.815  18.101  13.034  0.00  0.00    +0.000 C 
ATOM     54  C   UNL     1       0.427  17.480  13.594  0.00  0.00    +0.000 A 
ATOM     55  C   UNL     1       5.255  17.639   8.799  0.00  0.00    +0.000 C 
ATOM     56  C   UNL     1      -2.356  17.641   7.868  0.00  0.00    +0.000 C 
ATOM     57  C   UNL     1      -2.233  18.624   3.288  0.00  0.00    +0.000 C 
ATOM     58  C   UNL     1      -1.902  14.654  12.084  0.00  0.00    +0.000 C 
ATOM     59  C   UNL     1       8.396  18.572   3.280  0.00  0.00    +0.000 C 
ATOM     60  C   UNL     1      -2.309  17.900   6.375  0.00  0.00    +0.000 C 
ATOM     61  C   UNL     1       5.523  17.672  10.851  0.00  0.00    +0.000 C 
ATOM     62  C   UNL     1       5.185  20.535   6.723  0.00  0.00    +0.000 C 
ATOM     63  C   UNL     1      -3.152  18.671   7.489  0.00  0.00    +0.000 C 
ATOM     64  H   UNL     1       4.855  17.593   4.622  0.00  0.00    +0.000 HD
ATOM     65  H   UNL     1       1.477  16.222   9.714  0.00  0.00    +0.000 HD
ATOM     66  H   UNL     1      -1.397  16.317   5.552  0.00  0.00    +0.000 HD
ATOM     67  H   UNL     1      -1.177  16.297   8.761  0.00  0.00    +0.000 HD
ATOM     68  C   UNL     1       6.338  17.346   1.165  0.00  0.00    +0.000 C 
ATOM     69  C   UNL     1       7.737  17.601   1.101  0.00  0.00    +0.000 C 
ATOM     70  C   UNL     1       8.315  17.409   2.446  0.00  0.00    +0.000 C 
ATOM     71  C   UNL     1       2.236  13.977  -0.804  0.00  0.00    +0.000 C 
ATOM     72  C   UNL     1       3.431  13.393  -0.730  0.00  0.00    +0.000 C 
ATOM     73  C   UNL     1       0.917  13.547  -0.633  0.00  0.00    +0.000 C 
ATOM     74  C   UNL     1      -3.589  15.156   1.266  0.00  0.00    +0.000 C 
ATOM     75  C   UNL     1      -4.831  15.749   1.447  0.00  0.00    +0.000 C 
ATOM     76  C   UNL     1      -6.137  14.940   1.299  0.00  0.00    +0.000 C 
ATOM     77  C   UNL     1      -4.872  16.558   2.567  0.00  0.00    +0.000 C 
ATOM     78  C   UNL     1       6.649  15.428  11.433  0.00  0.00    +0.000 C 
ATOM     79  C   UNL     1       7.223  14.626  12.326  0.00  0.00    +0.000 C 
ATOM     80  C   UNL     1       6.478  16.808  11.308  0.00  0.00    +0.000 C 
ATOM     81  C   UNL     1      -4.536  15.140  11.881  0.00  0.00    +0.000 C 
ATOM     82  C   UNL     1      -5.666  14.587  12.684  0.00  0.00    +0.000 C 
ATOM     83  C   UNL     1      -4.749  16.039  10.808  0.00  0.00    +0.000 C 
ENDROOT
BRANCH  69  84
ATOM     84  C   UNL     1       8.409  18.310   0.077  0.00  0.00    +0.000 C 
ATOM     85  C   UNL     1       8.977  18.919  -0.788  0.00  0.00    +0.000 C 
BRANCH  85  86
ATOM     86  C   UNL     1       9.699  19.700  -1.891  0.00  0.00    +0.000 C 
ATOM     87  C   UNL     1      10.324  20.383  -2.849  0.00  0.00    +0.000 C 
ENDBRANCH  85  86
ENDBRANCH  69  84
BRANCH  13  88
ATOM     88  C   UNL     1       3.235  16.455   2.794  0.00  0.00    +0.000 C 
BRANCH  88  89
ATOM     89  O   UNL     1       2.441  15.716   3.557  0.00  0.00    +0.000 OA
ATOM     90  H   UNL     1       1.686  16.248   3.864  0.00  0.00    +0.000 HD
ENDBRANCH  88  89
ENDBRANCH  13  88
TORSDOF 4
ENDMDL
MODEL 3
REMARK VINA RESULT:      -8.3     23.955     28.723
REMARK  Name = Cyclosporin_A.pdbqt.pdb
REMARK  4 active torsions:
REMARK  status: ('A' for Active; 'I' for Inactive)
REMARK    1  A    between atoms: N_13  and  C_36
REMARK    2  A    between atoms: C_36  and  O_70
REMARK    3  A    between atoms: C_72  and  C_73
REMARK    4  A    between atoms: C_75  and  C_76
REMARK                            x       y       z     vdW  Elec       q    Type
REMARK                         _______ _______ _______ _____ _____    ______ ____
ROOT
ATOM      1  O   UNL     1      -4.810  14.387  22.851  0.00  0.00    +0.000 OA
ATOM      2  O   UNL     1      -3.105  12.684  18.323  0.00  0.00    +0.000 OA
ATOM      3  O   UNL     1      -7.103  12.826  15.694  0.00  0.00    +0.000 OA
ATOM      4  O   UNL     1      -9.392  13.308  24.209  0.00  0.00    +0.000 OA
ATOM      5  O   UNL     1      -3.531  16.365  16.358  0.00  0.00    +0.000 OA
ATOM      6  O   UNL     1     -11.958  23.802  17.241  0.00  0.00    +0.000 OA
ATOM      7  O   UNL     1      -7.482  18.455  25.184  0.00  0.00    +0.000 OA
ATOM      8  O   UNL     1     -13.763  20.637  20.557  0.00  0.00    +0.000 OA
ATOM      9  O   UNL     1      -8.652  22.228  14.068  0.00  0.00    +0.000 OA
ATOM     10  O   UNL     1     -11.478  19.862  23.881  0.00  0.00    +0.000 OA
ATOM     11  O   UNL     1      -5.312  20.307  16.007  0.00  0.00    +0.000 OA
ATOM     12  N   UNL     1      -4.442  13.215  19.619  0.00  0.00    +0.000 NA
ATOM     13  N   UNL     1      -6.770  13.798  21.586  0.00  0.00    +0.000 NA
ATOM     14  N   UNL     1      -5.304  12.795  16.531  0.00  0.00    +0.000 NA
ATOM     15  N   UNL     1      -5.719  15.643  15.177  0.00  0.00    +0.000 NA
ATOM     16  N   UNL     1      -8.774  15.460  23.241  0.00  0.00    +0.000 NA
ATOM     17  N   UNL     1     -11.806  21.703  16.185  0.00  0.00    +0.000 N 
ATOM     18  N   UNL     1     -11.902  20.772  19.143  0.00  0.00    +0.000 N 
ATOM     19  N   UNL     1     -11.379  20.149  21.932  0.00  0.00    +0.000 NA
ATOM     20  N   UNL     1      -8.221  18.453  23.032  0.00  0.00    +0.000 NA
ATOM     21  N   UNL     1      -6.564  18.208  16.442  0.00  0.00    +0.000 NA
ATOM     22  N   UNL     1      -8.807  20.903  16.082  0.00  0.00    +0.000 NA
ATOM     23  C   UNL     1      -4.353  14.012  20.723  0.00  0.00    +0.000 C 
ATOM     24  C   UNL     1      -5.525  13.054  17.822  0.00  0.00    +0.000 C 
ATOM     25  C   UNL     1      -7.531  13.365  22.654  0.00  0.00    +0.000 C 
ATOM     26  C   UNL     1      -3.160  14.291  21.366  0.00  0.00    +0.000 C 
ATOM     27  C   UNL     1      -6.579  12.036  18.033  0.00  0.00    +0.000 C 
ATOM     28  C   UNL     1      -5.394  14.047  21.626  0.00  0.00    +0.000 C 
ATOM     29  C   UNL     1      -4.255  13.249  18.249  0.00  0.00    +0.000 C 
ATOM     30  C   UNL     1      -5.277  14.416  15.218  0.00  0.00    +0.000 C 
ATOM     31  C   UNL     1      -6.142  13.661  15.952  0.00  0.00    +0.000 C 
ATOM     32  C   UNL     1      -8.763  14.051  23.149  0.00  0.00    +0.000 C 
ATOM     33  C   UNL     1      -2.275  13.440  20.636  0.00  0.00    +0.000 C 
ATOM     34  C   UNL     1      -3.439  14.333  22.692  0.00  0.00    +0.000 C 
ATOM     35  C   UNL     1      -3.079  12.988  19.600  0.00  0.00    +0.000 C 
ATOM     36  C   UNL     1      -6.338  11.836  16.350  0.00  0.00    +0.000 C 
ATOM     37  C   UNL     1      -8.354  16.210  24.368  0.00  0.00    +0.000 C 
ATOM     38  C   UNL     1     -12.005  22.057  18.675  0.00  0.00    +0.000 A 
ATOM     39  C   UNL     1      -4.908  16.122  16.115  0.00  0.00    +0.000 C 
ATOM     40  C   UNL     1     -10.764  21.982  15.264  0.00  0.00    +0.000 C 
ATOM     41  C   UNL     1     -12.300  19.441  21.234  0.00  0.00    +0.000 C 
ATOM     42  C   UNL     1      -5.269  15.732  13.764  0.00  0.00    +0.000 C 
ATOM     43  C   UNL     1     -12.181  23.275  19.399  0.00  0.00    +0.000 A 
ATOM     44  C   UNL     1     -11.744  22.773  13.962  0.00  0.00    +0.000 C 
ATOM     45  C   UNL     1      -5.527  17.429  16.480  0.00  0.00    +0.000 C 
ATOM     46  C   UNL     1     -13.621  19.913  21.780  0.00  0.00    +0.000 C 
ATOM     47  C   UNL     1      -8.199  15.424  25.549  0.00  0.00    +0.000 C 
ATOM     48  C   UNL     1     -11.896  22.432  17.340  0.00  0.00    +0.000 A 
ATOM     49  C   UNL     1      -8.057  17.528  24.242  0.00  0.00    +0.000 C 
ATOM     50  C   UNL     1     -12.557  20.305  20.182  0.00  0.00    +0.000 C 
ATOM     51  C   UNL     1      -9.412  21.746  15.169  0.00  0.00    +0.000 C 
ATOM     52  C   UNL     1      -9.637  18.766  22.823  0.00  0.00    +0.000 C 
ATOM     53  C   UNL     1     -12.276  23.491  20.886  0.00  0.00    +0.000 C 
ATOM     54  C   UNL     1     -12.140  24.304  18.493  0.00  0.00    +0.000 A 
ATOM     55  C   UNL     1     -11.003  19.149  22.790  0.00  0.00    +0.000 C 
ATOM     56  C   UNL     1      -7.551  20.594  16.099  0.00  0.00    +0.000 C 
ATOM     57  C   UNL     1      -4.170  17.397  16.655  0.00  0.00    +0.000 C 
ATOM     58  C   UNL     1     -12.350  22.286  15.092  0.00  0.00    +0.000 C 
ATOM     59  C   UNL     1      -8.246  14.303  25.971  0.00  0.00    +0.000 C 
ATOM     60  C   UNL     1      -6.495  19.518  16.257  0.00  0.00    +0.000 C 
ATOM     61  C   UNL     1     -12.306  20.736  23.051  0.00  0.00    +0.000 C 
ATOM     62  C   UNL     1      -7.692  19.017  24.101  0.00  0.00    +0.000 C 
ATOM     63  C   UNL     1      -6.294  21.058  15.889  0.00  0.00    +0.000 C 
ATOM     64  H   UNL     1      -8.391  15.888  22.398  0.00  0.00    +0.000 HD
ATOM     65  H   UNL     1     -11.113  20.230  18.798  0.00  0.00    +0.000 HD
ATOM     66  H   UNL     1      -7.469  17.768  16.299  0.00  0.00    +0.000 HD
ATOM     67  H   UNL     1      -9.482  20.269  16.498  0.00  0.00    +0.000 HD
ATOM     68  C   UNL     1      -7.067  12.558  23.568  0.00  0.00    +0.000 C 
ATOM     69  C   UNL     1      -7.381  12.237  24.919  0.00  0.00    +0.000 C 
ATOM     70  C   UNL     1      -8.539  13.050  25.341  0.00  0.00    +0.000 C 
ATOM     71  C   UNL     1      -6.712  10.398  18.347  0.00  0.00    +0.000 C 
ATOM     72  C   UNL     1      -7.624   9.808  19.118  0.00  0.00    +0.000 C 
ATOM     73  C   UNL     1      -6.617  10.690  16.983  0.00  0.00    +0.000 C 
ATOM     74  C   UNL     1      -4.898  14.352  13.799  0.00  0.00    +0.000 C 
ATOM     75  C   UNL     1      -4.115  15.165  12.992  0.00  0.00    +0.000 C 
ATOM     76  C   UNL     1      -4.101  15.000  11.457  0.00  0.00    +0.000 C 
ATOM     77  C   UNL     1      -4.196  16.498  13.346  0.00  0.00    +0.000 C 
ATOM     78  C   UNL     1     -14.668  19.706  22.973  0.00  0.00    +0.000 C 
ATOM     79  C   UNL     1     -15.985  19.838  23.099  0.00  0.00    +0.000 C 
ATOM     80  C   UNL     1     -13.553  20.376  23.481  0.00  0.00    +0.000 C 
ATOM     81  C   UNL     1     -10.883  23.134  13.008  0.00  0.00    +0.000 C 
ATOM     82  C   UNL     1     -11.323  23.816  11.754  0.00  0.00    +0.000 C 
ATOM     83  C   UNL     1      -9.526  22.805  13.244  0.00  0.00    +0.000 C 
ENDROOT
BRANCH  69  84
ATOM     84  C   UNL     1      -6.525  11.593  25.843  0.00  0.00    +0.000 C 
ATOM     85  C   UNL     1      -5.792  11.051  26.624  0.00  0.00    +0.000 C 
BRANCH  85  86
ATOM     86  C   UNL     1      -4.852  10.359  27.618  0.00  0.00    +0.000 C 
ATOM     87  C   UNL     1      -4.036   9.763  28.485  0.00  0.00    +0.000 C 
ENDBRANCH  85  86
ENDBRANCH  69  84
BRANCH  13  88
ATOM     88  C   UNL     1      -7.488  14.293  20.423  0.00  0.00    +0.000 C 
BRANCH  88  89
ATOM     89  O   UNL     1      -8.163  14.750  19.377  0.00  0.00    +0.000 OA
ATOM     90  H   UNL     1      -8.477  14.007  18.832  0.00  0.00    +0.000 HD
ENDBRANCH  88  89
ENDBRANCH  13  88
TORSDOF 4
ENDMDL
MODEL 4
REMARK VINA RESULT:      -8.3     18.785     23.668
REMARK  Name = Cyclosporin_A.pdbqt.pdb
REMARK  4 active torsions:
REMARK  status: ('A' for Active; 'I' for Inactive)
REMARK    1  A    between atoms: N_13  and  C_36
REMARK    2  A    between atoms: C_36  and  O_70
REMARK    3  A    between atoms: C_72  and  C_73
REMARK    4  A    between atoms: C_75  and  C_76
REMARK                            x       y       z     vdW  Elec       q    Type
REMARK                         _______ _______ _______ _____ _____    ______ ____
ROOT
ATOM      1  O   UNL     1      -4.483   4.360  19.488  0.00  0.00    +0.000 OA
ATOM      2  O   UNL     1      -8.584   6.540  21.667  0.00  0.00    +0.000 OA
ATOM      3  O   UNL     1     -12.111   4.935  18.856  0.00  0.00    +0.000 OA
ATOM      4  O   UNL     1      -4.455   3.704  14.633  0.00  0.00    +0.000 OA
ATOM      5  O   UNL     1     -10.193   2.945  23.109  0.00  0.00    +0.000 OA
ATOM      6  O   UNL     1     -10.698  -7.045  17.910  0.00  0.00    +0.000 OA
ATOM      7  O   UNL     1      -2.489  -0.387  17.872  0.00  0.00    +0.000 OA
ATOM      8  O   UNL     1      -8.302  -4.736  14.278  0.00  0.00    +0.000 OA
ATOM      9  O   UNL     1     -13.075  -4.394  21.196  0.00  0.00    +0.000 OA
ATOM     10  O   UNL     1      -4.607  -3.162  15.141  0.00  0.00    +0.000 OA
ATOM     11  O   UNL     1     -10.566  -1.376  22.985  0.00  0.00    +0.000 OA
ATOM     12  N   UNL     1      -7.621   5.566  20.298  0.00  0.00    +0.000 NA
ATOM     13  N   UNL     1      -6.259   4.187  17.875  0.00  0.00    +0.000 NA
ATOM     14  N   UNL     1     -10.853   5.625  20.228  0.00  0.00    +0.000 NA
ATOM     15  N   UNL     1     -11.960   2.814  21.221  0.00  0.00    +0.000 NA
ATOM     16  N   UNL     1      -5.001   1.920  16.204  0.00  0.00    +0.000 NA
ATOM     17  N   UNL     1     -11.896  -5.042  17.605  0.00  0.00    +0.000 N 
ATOM     18  N   UNL     1      -9.174  -4.192  16.380  0.00  0.00    +0.000 N 
ATOM     19  N   UNL     1      -6.426  -3.404  15.865  0.00  0.00    +0.000 NA
ATOM     20  N   UNL     1      -4.746  -0.668  17.801  0.00  0.00    +0.000 NA
ATOM     21  N   UNL     1     -10.687   0.125  21.011  0.00  0.00    +0.000 NA
ATOM     22  N   UNL     1     -11.319  -3.205  20.041  0.00  0.00    +0.000 NA
ATOM     23  C   UNL     1      -6.453   4.863  20.352  0.00  0.00    +0.000 C 
ATOM     24  C   UNL     1      -9.640   5.311  19.765  0.00  0.00    +0.000 C 
ATOM     25  C   UNL     1      -5.471   4.319  16.748  0.00  0.00    +0.000 C 
ATOM     26  C   UNL     1      -5.502   5.042  21.341  0.00  0.00    +0.000 C 
ATOM     27  C   UNL     1      -9.813   5.876  18.407  0.00  0.00    +0.000 C 
ATOM     28  C   UNL     1      -5.845   4.457  19.183  0.00  0.00    +0.000 C 
ATOM     29  C   UNL     1      -8.887   5.595  20.853  0.00  0.00    +0.000 C 
ATOM     30  C   UNL     1     -11.938   4.117  21.178  0.00  0.00    +0.000 C 
ATOM     31  C   UNL     1     -11.531   4.510  19.938  0.00  0.00    +0.000 C 
ATOM     32  C   UNL     1      -5.235   3.235  15.748  0.00  0.00    +0.000 C 
ATOM     33  C   UNL     1      -6.070   6.153  22.038  0.00  0.00    +0.000 C 
ATOM     34  C   UNL     1      -4.294   4.909  20.742  0.00  0.00    +0.000 C 
ATOM     35  C   UNL     1      -7.317   6.275  21.445  0.00  0.00    +0.000 C 
ATOM     36  C   UNL     1     -11.391   6.140  19.017  0.00  0.00    +0.000 C 
ATOM     37  C   UNL     1      -3.732   1.380  16.532  0.00  0.00    +0.000 C 
ATOM     38  C   UNL     1      -9.515  -5.429  16.865  0.00  0.00    +0.000 A 
ATOM     39  C   UNL     1     -10.801   2.669  21.857  0.00  0.00    +0.000 C 
ATOM     40  C   UNL     1     -12.487  -4.927  18.889  0.00  0.00    +0.000 C 
ATOM     41  C   UNL     1      -7.405  -3.085  14.985  0.00  0.00    +0.000 C 
ATOM     42  C   UNL     1     -13.194   2.887  22.044  0.00  0.00    +0.000 C 
ATOM     43  C   UNL     1      -8.735  -6.623  16.933  0.00  0.00    +0.000 A 
ATOM     44  C   UNL     1     -13.905  -6.029  18.644  0.00  0.00    +0.000 C 
ATOM     45  C   UNL     1     -10.470   1.228  21.658  0.00  0.00    +0.000 C 
ATOM     46  C   UNL     1      -7.166  -4.002  13.816  0.00  0.00    +0.000 C 
ATOM     47  C   UNL     1      -2.640   2.176  16.072  0.00  0.00    +0.000 C 
ATOM     48  C   UNL     1     -10.731  -5.747  17.461  0.00  0.00    +0.000 A 
ATOM     49  C   UNL     1      -3.638   0.261  17.292  0.00  0.00    +0.000 C 
ATOM     50  C   UNL     1      -8.391  -3.990  15.345  0.00  0.00    +0.000 C 
ATOM     51  C   UNL     1     -12.261  -4.216  20.043  0.00  0.00    +0.000 C 
ATOM     52  C   UNL     1      -5.273  -1.477  16.699  0.00  0.00    +0.000 C 
ATOM     53  C   UNL     1      -7.307  -6.850  16.515  0.00  0.00    +0.000 C 
ATOM     54  C   UNL     1      -9.487  -7.571  17.578  0.00  0.00    +0.000 A 
ATOM     55  C   UNL     1      -5.611  -2.331  15.617  0.00  0.00    +0.000 C 
ATOM     56  C   UNL     1     -11.016  -2.459  21.054  0.00  0.00    +0.000 C 
ATOM     57  C   UNL     1      -9.961   1.753  22.815  0.00  0.00    +0.000 C 
ATOM     58  C   UNL     1     -13.024  -5.789  17.621  0.00  0.00    +0.000 C 
ATOM     59  C   UNL     1      -2.365   3.205  15.523  0.00  0.00    +0.000 C 
ATOM     60  C   UNL     1     -10.709  -1.071  21.581  0.00  0.00    +0.000 C 
ATOM     61  C   UNL     1      -5.524  -4.282  14.932  0.00  0.00    +0.000 C 
ATOM     62  C   UNL     1      -3.524  -0.993  18.178  0.00  0.00    +0.000 C 
ATOM     63  C   UNL     1     -10.850  -2.434  22.399  0.00  0.00    +0.000 C 
ATOM     64  H   UNL     1      -5.670   1.655  16.928  0.00  0.00    +0.000 HD
ATOM     65  H   UNL     1      -9.363  -3.402  16.993  0.00  0.00    +0.000 HD
ATOM     66  H   UNL     1     -11.101   0.204  20.086  0.00  0.00    +0.000 HD
ATOM     67  H   UNL     1     -11.157  -2.857  19.101  0.00  0.00    +0.000 HD
ATOM     68  C   UNL     1      -4.560   5.245  16.631  0.00  0.00    +0.000 C 
ATOM     69  C   UNL     1      -3.375   5.438  15.867  0.00  0.00    +0.000 C 
ATOM     70  C   UNL     1      -3.177   4.262  14.996  0.00  0.00    +0.000 C 
ATOM     71  C   UNL     1      -9.718   7.355  17.631  0.00  0.00    +0.000 C 
ATOM     72  C   UNL     1      -9.270   7.576  16.396  0.00  0.00    +0.000 C 
ATOM     73  C   UNL     1     -10.974   7.110  18.193  0.00  0.00    +0.000 C 
ATOM     74  C   UNL     1     -13.212   4.307  21.885  0.00  0.00    +0.000 C 
ATOM     75  C   UNL     1     -13.704   3.830  23.092  0.00  0.00    +0.000 C 
ATOM     76  C   UNL     1     -15.193   3.980  23.469  0.00  0.00    +0.000 C 
ATOM     77  C   UNL     1     -13.243   2.561  23.387  0.00  0.00    +0.000 C 
ATOM     78  C   UNL     1      -6.306  -4.184  12.478  0.00  0.00    +0.000 C 
ATOM     79  C   UNL     1      -6.507  -4.787  11.309  0.00  0.00    +0.000 C 
ATOM     80  C   UNL     1      -5.465  -4.399  13.571  0.00  0.00    +0.000 C 
ATOM     81  C   UNL     1     -14.566  -6.058  19.804  0.00  0.00    +0.000 C 
ATOM     82  C   UNL     1     -15.810  -6.860  19.992  0.00  0.00    +0.000 C 
ATOM     83  C   UNL     1     -14.028  -5.255  20.840  0.00  0.00    +0.000 C 
ENDROOT
BRANCH  69  84
ATOM     84  C   UNL     1      -2.337   6.355  16.155  0.00  0.00    +0.000 C 
ATOM     85  C   UNL     1      -1.459   7.139  16.393  0.00  0.00    +0.000 C 
BRANCH  85  86
ATOM     86  C   UNL     1      -0.338   8.140  16.693  0.00  0.00    +0.000 C 
ATOM     87  C   UNL     1       0.640   9.006  16.953  0.00  0.00    +0.000 C 
ENDBRANCH  85  86
ENDBRANCH  69  84
BRANCH  13  88
ATOM     88  C   UNL     1      -7.507   3.458  17.723  0.00  0.00    +0.000 C 
BRANCH  88  89
ATOM     89  O   UNL     1      -8.634   2.772  17.582  0.00  0.00    +0.000 OA
ATOM     90  H   UNL     1      -9.360   3.224  18.047  0.00  0.00    +0.000 HD
ENDBRANCH  88  89
ENDBRANCH  13  88
TORSDOF 4
ENDMDL
MODEL 5
REMARK VINA RESULT:      -8.2     22.760     28.444
REMARK  Name = Cyclosporin_A.pdbqt.pdb
REMARK  4 active torsions:
REMARK  status: ('A' for Active; 'I' for Inactive)
REMARK    1  A    between atoms: N_13  and  C_36
REMARK    2  A    between atoms: C_36  and  O_70
REMARK    3  A    between atoms: C_72  and  C_73
REMARK    4  A    between atoms: C_75  and  C_76
REMARK                            x       y       z     vdW  Elec       q    Type
REMARK                         _______ _______ _______ _____ _____    ______ ____
ROOT
ATOM      1  O   UNL     1      -4.474  14.854  19.207  0.00  0.00    +0.000 OA
ATOM      2  O   UNL     1      -6.371  17.196  23.358  0.00  0.00    +0.000 OA
ATOM      3  O   UNL     1     -10.764  15.307  23.582  0.00  0.00    +0.000 OA
ATOM      4  O   UNL     1      -7.509  13.748  15.523  0.00  0.00    +0.000 OA
ATOM      5  O   UNL     1      -6.446  13.738  25.732  0.00  0.00    +0.000 OA
ATOM      6  O   UNL     1      -9.494   3.302  22.748  0.00  0.00    +0.000 OA
ATOM      7  O   UNL     1      -3.664   9.993  17.008  0.00  0.00    +0.000 OA
ATOM      8  O   UNL     1     -10.129   5.282  18.281  0.00  0.00    +0.000 OA
ATOM      9  O   UNL     1      -9.394   6.230  26.607  0.00  0.00    +0.000 OA
ATOM     10  O   UNL     1      -6.849   6.959  16.465  0.00  0.00    +0.000 OA
ATOM     11  O   UNL     1      -6.527   9.421  26.163  0.00  0.00    +0.000 OA
ATOM     12  N   UNL     1      -6.442  16.106  21.759  0.00  0.00    +0.000 NA
ATOM     13  N   UNL     1      -6.854  14.517  19.125  0.00  0.00    +0.000 NA
ATOM     14  N   UNL     1      -8.969  16.132  23.777  0.00  0.00    +0.000 NA
ATOM     15  N   UNL     1      -8.998  13.417  25.432  0.00  0.00    +0.000 NA
ATOM     16  N   UNL     1      -6.807  12.114  17.192  0.00  0.00    +0.000 NA
ATOM     17  N   UNL     1     -10.740   5.259  23.151  0.00  0.00    +0.000 N 
ATOM     18  N   UNL     1      -9.491   6.013  20.412  0.00  0.00    +0.000 N 
ATOM     19  N   UNL     1      -7.765   6.770  18.201  0.00  0.00    +0.000 NA
ATOM     20  N   UNL     1      -5.421   9.689  18.420  0.00  0.00    +0.000 NA
ATOM     21  N   UNL     1      -7.979  10.730  24.633  0.00  0.00    +0.000 NA
ATOM     22  N   UNL     1      -8.862   7.320  24.519  0.00  0.00    +0.000 NA
ATOM     23  C   UNL     1      -5.465  15.420  21.098  0.00  0.00    +0.000 C 
ATOM     24  C   UNL     1      -8.314  15.786  22.665  0.00  0.00    +0.000 C 
ATOM     25  C   UNL     1      -6.979  14.550  17.750  0.00  0.00    +0.000 C 
ATOM     26  C   UNL     1      -4.117  15.698  21.231  0.00  0.00    +0.000 C 
ATOM     27  C   UNL     1      -9.351  16.220  21.702  0.00  0.00    +0.000 C 
ATOM     28  C   UNL     1      -5.719  14.911  19.841  0.00  0.00    +0.000 C 
ATOM     29  C   UNL     1      -7.060  16.176  22.994  0.00  0.00    +0.000 C 
ATOM     30  C   UNL     1      -9.094  14.710  25.299  0.00  0.00    +0.000 C 
ATOM     31  C   UNL     1      -9.600  14.989  24.064  0.00  0.00    +0.000 C 
ATOM     32  C   UNL     1      -7.365  13.379  16.906  0.00  0.00    +0.000 C 
ATOM     33  C   UNL     1      -4.180  16.865  22.053  0.00  0.00    +0.000 C 
ATOM     34  C   UNL     1      -3.565  15.520  20.006  0.00  0.00    +0.000 C 
ATOM     35  C   UNL     1      -5.523  16.921  22.393  0.00  0.00    +0.000 C 
ATOM     36  C   UNL     1     -10.189  16.527  23.162  0.00  0.00    +0.000 C 
ATOM     37  C   UNL     1      -5.589  11.618  16.664  0.00  0.00    +0.000 C 
ATOM     38  C   UNL     1      -9.361   4.824  21.083  0.00  0.00    +0.000 A 
ATOM     39  C   UNL     1      -7.694  13.341  25.184  0.00  0.00    +0.000 C 
ATOM     40  C   UNL     1     -10.381   5.488  24.503  0.00  0.00    +0.000 C 
ATOM     41  C   UNL     1      -9.099   6.998  18.136  0.00  0.00    +0.000 C 
ATOM     42  C   UNL     1      -9.424  13.556  26.848  0.00  0.00    +0.000 C 
ATOM     43  C   UNL     1      -8.640   3.647  20.713  0.00  0.00    +0.000 A 
ATOM     44  C   UNL     1     -11.552   4.357  25.299  0.00  0.00    +0.000 C 
ATOM     45  C   UNL     1      -7.472  11.891  24.915  0.00  0.00    +0.000 C 
ATOM     46  C   UNL     1      -9.601   5.978  17.151  0.00  0.00    +0.000 C 
ATOM     47  C   UNL     1      -5.097  12.376  15.559  0.00  0.00    +0.000 C 
ATOM     48  C   UNL     1      -9.892   4.553  22.339  0.00  0.00    +0.000 A 
ATOM     49  C   UNL     1      -4.958  10.575  17.259  0.00  0.00    +0.000 C 
ATOM     50  C   UNL     1      -9.565   6.123  19.104  0.00  0.00    +0.000 C 
ATOM     51  C   UNL     1      -9.517   6.306  25.193  0.00  0.00    +0.000 C 
ATOM     52  C   UNL     1      -6.475   8.777  17.970  0.00  0.00    +0.000 C 
ATOM     53  C   UNL     1      -7.798   3.394  19.492  0.00  0.00    +0.000 C 
ATOM     54  C   UNL     1      -8.743   2.757  21.752  0.00  0.00    +0.000 A 
ATOM     55  C   UNL     1      -7.369   7.823  17.418  0.00  0.00    +0.000 C 
ATOM     56  C   UNL     1      -8.033   8.159  25.049  0.00  0.00    +0.000 C 
ATOM     57  C   UNL     1      -6.377  12.525  25.437  0.00  0.00    +0.000 C 
ATOM     58  C   UNL     1     -11.545   4.507  23.936  0.00  0.00    +0.000 C 
ATOM     59  C   UNL     1      -5.305  13.351  14.894  0.00  0.00    +0.000 C 
ATOM     60  C   UNL     1      -7.553   9.593  25.163  0.00  0.00    +0.000 C 
ATOM     61  C   UNL     1      -7.611   5.817  16.968  0.00  0.00    +0.000 C 
ATOM     62  C   UNL     1      -4.222   9.410  17.945  0.00  0.00    +0.000 C 
ATOM     63  C   UNL     1      -7.048   8.310  25.968  0.00  0.00    +0.000 C 
ATOM     64  H   UNL     1      -6.840  11.913  18.192  0.00  0.00    +0.000 HD
ATOM     65  H   UNL     1      -9.297   6.854  20.949  0.00  0.00    +0.000 HD
ATOM     66  H   UNL     1      -8.892  10.719  24.187  0.00  0.00    +0.000 HD
ATOM     67  H   UNL     1      -9.362   7.579  23.673  0.00  0.00    +0.000 HD
ATOM     68  C   UNL     1      -6.415  15.469  17.014  0.00  0.00    +0.000 C 
ATOM     69  C   UNL     1      -6.008  15.598  15.657  0.00  0.00    +0.000 C 
ATOM     70  C   UNL     1      -6.334  14.348  14.943  0.00  0.00    +0.000 C 
ATOM     71  C   UNL     1      -9.871  17.621  20.949  0.00  0.00    +0.000 C 
ATOM     72  C   UNL     1     -10.331  17.730  19.703  0.00  0.00    +0.000 C 
ATOM     73  C   UNL     1     -10.459  17.419  22.201  0.00  0.00    +0.000 C 
ATOM     74  C   UNL     1      -9.633  14.955  26.644  0.00  0.00    +0.000 C 
ATOM     75  C   UNL     1      -9.207  14.589  27.914  0.00  0.00    +0.000 C 
ATOM     76  C   UNL     1     -10.119  14.761  29.148  0.00  0.00    +0.000 C 
ATOM     77  C   UNL     1      -8.582  13.357  27.927  0.00  0.00    +0.000 C 
ATOM     78  C   UNL     1      -9.784   5.679  15.589  0.00  0.00    +0.000 C 
ATOM     79  C   UNL     1     -10.645   4.969  14.865  0.00  0.00    +0.000 C 
ATOM     80  C   UNL     1      -8.427   5.574  15.898  0.00  0.00    +0.000 C 
ATOM     81  C   UNL     1     -11.316   4.431  26.611  0.00  0.00    +0.000 C 
ATOM     82  C   UNL     1     -12.097   3.640  27.607  0.00  0.00    +0.000 C 
ATOM     83  C   UNL     1     -10.295   5.331  27.004  0.00  0.00    +0.000 C 
ENDROOT
BRANCH  69  84
ATOM     84  C   UNL     1      -5.088  16.547  15.150  0.00  0.00    +0.000 C 
ATOM     85  C   UNL     1      -4.312  17.352  14.713  0.00  0.00    +0.000 C 
BRANCH  85  86
ATOM     86  C   UNL     1      -3.323  18.379  14.151  0.00  0.00    +0.000 C 
ATOM     87  C   UNL     1      -2.466  19.275  13.663  0.00  0.00    +0.000 C 
ENDBRANCH  85  86
ENDBRANCH  69  84
BRANCH  13  88
ATOM     88  C   UNL     1      -7.860  13.767  19.859  0.00  0.00    +0.000 C 
BRANCH  88  89
ATOM     89  O   UNL     1      -8.766  13.062  20.524  0.00  0.00    +0.000 OA
ATOM     90  H   UNL     1      -8.336  12.552  21.233  0.00  0.00    +0.000 HD
ENDBRANCH  88  89
ENDBRANCH  13  88
TORSDOF 4
ENDMDL
MODEL 6
REMARK VINA RESULT:      -8.1     16.697     25.147
REMARK  Name = Cyclosporin_A.pdbqt.pdb
REMARK  4 active torsions:
REMARK  status: ('A' for Active; 'I' for Inactive)
REMARK    1  A    between atoms: N_13  and  C_36
REMARK    2  A    between atoms: C_36  and  O_70
REMARK    3  A    between atoms: C_72  and  C_73
REMARK    4  A    between atoms: C_75  and  C_76
REMARK                            x       y       z     vdW  Elec       q    Type
REMARK                         _______ _______ _______ _____ _____    ______ ____
ROOT
ATOM      1  O   UNL     1      -1.535  15.449  -2.754  0.00  0.00    +0.000 OA
ATOM      2  O   UNL     1       1.408  18.871  -0.317  0.00  0.00    +0.000 OA
ATOM      3  O   UNL     1       1.905  16.805   3.972  0.00  0.00    +0.000 OA
ATOM      4  O   UNL     1      -4.857  12.930  -0.179  0.00  0.00    +0.000 OA
ATOM      5  O   UNL     1       4.800  16.408  -0.173  0.00  0.00    +0.000 OA
ATOM      6  O   UNL     1       5.299   5.358   2.007  0.00  0.00    +0.000 OA
ATOM      7  O   UNL     1      -1.881  10.218  -4.037  0.00  0.00    +0.000 OA
ATOM      8  O   UNL     1       0.391   5.678   2.275  0.00  0.00    +0.000 OA
ATOM      9  O   UNL     1       7.931   9.401   2.460  0.00  0.00    +0.000 OA
ATOM     10  O   UNL     1      -1.616   6.922  -1.086  0.00  0.00    +0.000 OA
ATOM     11  O   UNL     1       6.663  12.490  -0.270  0.00  0.00    +0.000 OA
ATOM     12  N   UNL     1       0.273  17.309  -0.469  0.00  0.00    +0.000 NA
ATOM     13  N   UNL     1      -1.689  14.906  -0.415  0.00  0.00    +0.000 NA
ATOM     14  N   UNL     1       1.952  17.794   2.253  0.00  0.00    +0.000 NA
ATOM     15  N   UNL     1       4.422  15.793   2.314  0.00  0.00    +0.000 NA
ATOM     16  N   UNL     1      -2.681  12.009  -0.787  0.00  0.00    +0.000 NA
ATOM     17  N   UNL     1       4.913   7.226   3.387  0.00  0.00    +0.000 N 
ATOM     18  N   UNL     1       2.191   7.126   1.900  0.00  0.00    +0.000 N 
ATOM     19  N   UNL     1       0.001   7.246  -0.005  0.00  0.00    +0.000 NA
ATOM     20  N   UNL     1      -0.595  10.257  -2.161  0.00  0.00    +0.000 NA
ATOM     21  N   UNL     1       4.668  13.089   1.080  0.00  0.00    +0.000 NA
ATOM     22  N   UNL     1       5.647   9.774   1.771  0.00  0.00    +0.000 NA
ATOM     23  C   UNL     1      -0.035  16.527  -1.543  0.00  0.00    +0.000 C 
ATOM     24  C   UNL     1       1.081  17.154   1.468  0.00  0.00    +0.000 C 
ATOM     25  C   UNL     1      -2.999  14.469  -0.433  0.00  0.00    +0.000 C 
ATOM     26  C   UNL     1       0.105  16.945  -2.854  0.00  0.00    +0.000 C 
ATOM     27  C   UNL     1      -0.054  17.155   2.420  0.00  0.00    +0.000 C 
ATOM     28  C   UNL     1      -1.060  15.609  -1.448  0.00  0.00    +0.000 C 
ATOM     29  C   UNL     1       1.358  17.735   0.277  0.00  0.00    +0.000 C 
ATOM     30  C   UNL     1       3.851  16.956   2.462  0.00  0.00    +0.000 C 
ATOM     31  C   UNL     1       2.558  16.765   2.851  0.00  0.00    +0.000 C 
ATOM     32  C   UNL     1      -3.423  13.056  -0.198  0.00  0.00    +0.000 C 
ATOM     33  C   UNL     1       0.474  18.309  -2.646  0.00  0.00    +0.000 C 
ATOM     34  C   UNL     1      -0.938  16.416  -3.539  0.00  0.00    +0.000 C 
ATOM     35  C   UNL     1       0.666  18.363  -1.273  0.00  0.00    +0.000 C 
ATOM     36  C   UNL     1       1.144  17.860   3.420  0.00  0.00    +0.000 C 
ATOM     37  C   UNL     1      -2.910  11.469  -2.077  0.00  0.00    +0.000 C 
ATOM     38  C   UNL     1       3.234   6.244   1.780  0.00  0.00    +0.000 A 
ATOM     39  C   UNL     1       4.321  15.748   0.989  0.00  0.00    +0.000 C 
ATOM     40  C   UNL     1       6.131   7.921   3.183  0.00  0.00    +0.000 C 
ATOM     41  C   UNL     1      -0.245   7.327   1.325  0.00  0.00    +0.000 C 
ATOM     42  C   UNL     1       5.668  16.360   2.891  0.00  0.00    +0.000 C 
ATOM     43  C   UNL     1       3.345   5.076   0.965  0.00  0.00    +0.000 A 
ATOM     44  C   UNL     1       7.167   7.026   4.371  0.00  0.00    +0.000 C 
ATOM     45  C   UNL     1       4.579  14.315   0.666  0.00  0.00    +0.000 C 
ATOM     46  C   UNL     1      -0.863   5.999   1.669  0.00  0.00    +0.000 C 
ATOM     47  C   UNL     1      -4.163  11.854  -2.641  0.00  0.00    +0.000 C 
ATOM     48  C   UNL     1       4.460   6.363   2.425  0.00  0.00    +0.000 A 
ATOM     49  C   UNL     1      -1.947  10.741  -2.696  0.00  0.00    +0.000 C 
ATOM     50  C   UNL     1       0.922   6.789   1.843  0.00  0.00    +0.000 C 
ATOM     51  C   UNL     1       6.570   8.991   2.439  0.00  0.00    +0.000 C 
ATOM     52  C   UNL     1      -0.792   9.161  -1.207  0.00  0.00    +0.000 C 
ATOM     53  C   UNL     1       2.354   4.502  -0.012  0.00  0.00    +0.000 C 
ATOM     54  C   UNL     1       4.612   4.577   1.129  0.00  0.00    +0.000 A 
ATOM     55  C   UNL     1      -1.058   8.007  -0.426  0.00  0.00    +0.000 C 
ATOM     56  C   UNL     1       5.926  10.808   1.045  0.00  0.00    +0.000 C 
ATOM     57  C   UNL     1       4.941  15.177  -0.334  0.00  0.00    +0.000 C 
ATOM     58  C   UNL     1       5.839   6.714   4.230  0.00  0.00    +0.000 C 
ATOM     59  C   UNL     1      -5.133  12.532  -2.454  0.00  0.00    +0.000 C 
ATOM     60  C   UNL     1       5.584  12.232   0.654  0.00  0.00    +0.000 C 
ATOM     61  C   UNL     1      -0.819   5.953  -0.335  0.00  0.00    +0.000 C 
ATOM     62  C   UNL     1      -0.849   9.936  -3.415  0.00  0.00    +0.000 C 
ATOM     63  C   UNL     1       6.815  11.338   0.171  0.00  0.00    +0.000 C 
ATOM     64  H   UNL     1      -1.678  12.150  -0.661  0.00  0.00    +0.000 HD
ATOM     65  H   UNL     1       2.424   8.112   1.807  0.00  0.00    +0.000 HD
ATOM     66  H   UNL     1       4.180  12.854   1.940  0.00  0.00    +0.000 HD
ATOM     67  H   UNL     1       4.726   9.694   2.192  0.00  0.00    +0.000 HD
ATOM     68  C   UNL     1      -3.955  15.134  -1.022  0.00  0.00    +0.000 C 
ATOM     69  C   UNL     1      -5.238  14.837  -1.561  0.00  0.00    +0.000 C 
ATOM     70  C   UNL     1      -5.509  13.398  -1.376  0.00  0.00    +0.000 C 
ATOM     71  C   UNL     1      -1.276  18.176   2.931  0.00  0.00    +0.000 C 
ATOM     72  C   UNL     1      -2.518  17.826   3.263  0.00  0.00    +0.000 C 
ATOM     73  C   UNL     1      -0.082  18.355   3.635  0.00  0.00    +0.000 C 
ATOM     74  C   UNL     1       4.985  17.588   3.150  0.00  0.00    +0.000 C 
ATOM     75  C   UNL     1       6.334  17.703   2.840  0.00  0.00    +0.000 C 
ATOM     76  C   UNL     1       7.358  18.199   3.883  0.00  0.00    +0.000 C 
ATOM     77  C   UNL     1       6.815  16.602   2.157  0.00  0.00    +0.000 C 
ATOM     78  C   UNL     1      -2.240   5.183   1.673  0.00  0.00    +0.000 C 
ATOM     79  C   UNL     1      -2.747   4.203   2.415  0.00  0.00    +0.000 C 
ATOM     80  C   UNL     1      -1.805   5.301   0.352  0.00  0.00    +0.000 C 
ATOM     81  C   UNL     1       8.390   7.553   4.277  0.00  0.00    +0.000 C 
ATOM     82  C   UNL     1       9.529   7.076   5.116  0.00  0.00    +0.000 C 
ATOM     83  C   UNL     1       8.536   8.614   3.350  0.00  0.00    +0.000 C 
ENDROOT
BRANCH  69  84
ATOM     84  C   UNL     1      -5.961  15.637  -2.478  0.00  0.00    +0.000 C 
ATOM     85  C   UNL     1      -6.577  16.320  -3.251  0.00  0.00    +0.000 C 
BRANCH  85  86
ATOM     86  C   UNL     1      -7.365  17.193  -4.232  0.00  0.00    +0.000 C 
ATOM     87  C   UNL     1      -8.054  17.953  -5.082  0.00  0.00    +0.000 C 
ENDBRANCH  85  86
ENDBRANCH  69  84
BRANCH  13  88
ATOM     88  C   UNL     1      -0.827  14.362   0.622  0.00  0.00    +0.000 C 
BRANCH  88  89
ATOM     89  O   UNL     1      -0.054  13.844   1.567  0.00  0.00    +0.000 OA
ATOM     90  H   UNL     1       0.130  12.908   1.371  0.00  0.00    +0.000 HD
ENDBRANCH  88  89
ENDBRANCH  13  88
TORSDOF 4
ENDMDL
MODEL 7
REMARK VINA RESULT:      -7.9     26.312     30.486
REMARK  Name = Cyclosporin_A.pdbqt.pdb
REMARK  4 active torsions:
REMARK  status: ('A' for Active; 'I' for Inactive)
REMARK    1  A    between atoms: N_13  and  C_36
REMARK    2  A    between atoms: C_36  and  O_70
REMARK    3  A    between atoms: C_72  and  C_73
REMARK    4  A    between atoms: C_75  and  C_76
REMARK                            x       y       z     vdW  Elec       q    Type
REMARK                         _______ _______ _______ _____ _____    ______ ____
ROOT
ATOM      1  O   UNL     1     -12.987   4.317  29.861  0.00  0.00    +0.000 OA
ATOM      2  O   UNL     1     -12.900   2.025  25.273  0.00  0.00    +0.000 OA
ATOM      3  O   UNL     1     -14.616   5.493  22.453  0.00  0.00    +0.000 OA
ATOM      4  O   UNL     1     -16.542   7.549  30.822  0.00  0.00    +0.000 OA
ATOM      5  O   UNL     1      -9.824   4.419  23.721  0.00  0.00    +0.000 OA
ATOM      6  O   UNL     1      -8.333  15.524  24.968  0.00  0.00    +0.000 OA
ATOM      7  O   UNL     1     -11.356   8.740  32.488  0.00  0.00    +0.000 OA
ATOM      8  O   UNL     1     -12.362  15.262  27.790  0.00  0.00    +0.000 OA
ATOM      9  O   UNL     1      -7.443  11.941  21.830  0.00  0.00    +0.000 OA
ATOM     10  O   UNL     1     -12.189  12.876  31.129  0.00  0.00    +0.000 OA
ATOM     11  O   UNL     1      -7.473   8.066  23.723  0.00  0.00    +0.000 OA
ATOM     12  N   UNL     1     -13.350   3.417  26.543  0.00  0.00    +0.000 NA
ATOM     13  N   UNL     1     -14.379   5.657  28.427  0.00  0.00    +0.000 NA
ATOM     14  N   UNL     1     -13.773   3.955  23.382  0.00  0.00    +0.000 NA
ATOM     15  N   UNL     1     -11.461   5.876  22.343  0.00  0.00    +0.000 NA
ATOM     16  N   UNL     1     -14.297   8.218  30.144  0.00  0.00    +0.000 NA
ATOM     17  N   UNL     1      -9.859  14.267  23.688  0.00  0.00    +0.000 N 
ATOM     18  N   UNL     1     -11.061  13.797  26.510  0.00  0.00    +0.000 N 
ATOM     19  N   UNL     1     -11.650  12.978  29.235  0.00  0.00    +0.000 NA
ATOM     20  N   UNL     1     -11.484   9.390  30.312  0.00  0.00    +0.000 NA
ATOM     21  N   UNL     1      -9.951   7.964  23.843  0.00  0.00    +0.000 NA
ATOM     22  N   UNL     1      -8.883  11.319  23.666  0.00  0.00    +0.000 NA
ATOM     23  C   UNL     1     -12.780   3.760  27.734  0.00  0.00    +0.000 C 
ATOM     24  C   UNL     1     -13.842   4.263  24.680  0.00  0.00    +0.000 C 
ATOM     25  C   UNL     1     -15.287   6.043  29.393  0.00  0.00    +0.000 C 
ATOM     26  C   UNL     1     -11.983   2.904  28.472  0.00  0.00    +0.000 C 
ATOM     27  C   UNL     1     -15.286   4.588  24.712  0.00  0.00    +0.000 C 
ATOM     28  C   UNL     1     -13.431   4.639  28.574  0.00  0.00    +0.000 C 
ATOM     29  C   UNL     1     -13.046   3.299  25.199  0.00  0.00    +0.000 C 
ATOM     30  C   UNL     1     -12.245   4.836  22.267  0.00  0.00    +0.000 C 
ATOM     31  C   UNL     1     -13.435   5.138  22.860  0.00  0.00    +0.000 C 
ATOM     32  C   UNL     1     -15.449   7.442  29.892  0.00  0.00    +0.000 C 
ATOM     33  C   UNL     1     -12.117   1.708  27.701  0.00  0.00    +0.000 C 
ATOM     34  C   UNL     1     -12.268   3.141  29.775  0.00  0.00    +0.000 C 
ATOM     35  C   UNL     1     -12.796   2.150  26.576  0.00  0.00    +0.000 C 
ATOM     36  C   UNL     1     -15.107   4.301  23.034  0.00  0.00    +0.000 C 
ATOM     37  C   UNL     1     -13.589   8.259  31.372  0.00  0.00    +0.000 C 
ATOM     38  C   UNL     1      -9.990  14.590  26.187  0.00  0.00    +0.000 A 
ATOM     39  C   UNL     1     -10.743   5.444  23.374  0.00  0.00    +0.000 C 
ATOM     40  C   UNL     1      -8.945  13.559  22.867  0.00  0.00    +0.000 C 
ATOM     41  C   UNL     1     -12.648  13.374  28.409  0.00  0.00    +0.000 C 
ATOM     42  C   UNL     1     -10.963   5.568  20.977  0.00  0.00    +0.000 C 
ATOM     43  C   UNL     1      -9.166  15.392  27.035  0.00  0.00    +0.000 A 
ATOM     44  C   UNL     1      -8.654  14.832  21.610  0.00  0.00    +0.000 C 
ATOM     45  C   UNL     1     -10.039   6.670  23.850  0.00  0.00    +0.000 C 
ATOM     46  C   UNL     1     -13.042  14.730  28.929  0.00  0.00    +0.000 C 
ATOM     47  C   UNL     1     -14.308   7.683  32.462  0.00  0.00    +0.000 C 
ATOM     48  C   UNL     1      -9.449  14.724  24.913  0.00  0.00    +0.000 A 
ATOM     49  C   UNL     1     -12.318   8.730  31.415  0.00  0.00    +0.000 C 
ATOM     50  C   UNL     1     -11.936  14.076  27.450  0.00  0.00    +0.000 C 
ATOM     51  C   UNL     1      -8.395  12.299  22.823  0.00  0.00    +0.000 C 
ATOM     52  C   UNL     1     -11.966  10.751  30.060  0.00  0.00    +0.000 C 
ATOM     53  C   UNL     1      -9.227  15.567  28.529  0.00  0.00    +0.000 C 
ATOM     54  C   UNL     1      -8.174  15.931  26.257  0.00  0.00    +0.000 A 
ATOM     55  C   UNL     1     -12.385  12.105  29.992  0.00  0.00    +0.000 C 
ATOM     56  C   UNL     1      -8.460  10.098  23.719  0.00  0.00    +0.000 C 
ATOM     57  C   UNL     1      -9.352   5.513  24.098  0.00  0.00    +0.000 C 
ATOM     58  C   UNL     1      -9.531  15.057  22.640  0.00  0.00    +0.000 C 
ATOM     59  C   UNL     1     -15.318   7.105  32.749  0.00  0.00    +0.000 C 
ATOM     60  C   UNL     1      -8.801   8.623  23.813  0.00  0.00    +0.000 C 
ATOM     61  C   UNL     1     -11.808  14.058  30.358  0.00  0.00    +0.000 C 
ATOM     62  C   UNL     1     -10.865   9.238  31.467  0.00  0.00    +0.000 C 
ATOM     63  C   UNL     1      -7.367   9.300  23.636  0.00  0.00    +0.000 C 
ATOM     64  H   UNL     1     -13.626   8.143  29.379  0.00  0.00    +0.000 HD
ATOM     65  H   UNL     1     -11.039  12.846  26.151  0.00  0.00    +0.000 HD
ATOM     66  H   UNL     1     -10.789   8.485  23.599  0.00  0.00    +0.000 HD
ATOM     67  H   UNL     1      -9.829  11.533  23.967  0.00  0.00    +0.000 HD
ATOM     68  C   UNL     1     -15.822   5.201  30.234  0.00  0.00    +0.000 C 
ATOM     69  C   UNL     1     -16.430   5.269  31.518  0.00  0.00    +0.000 C 
ATOM     70  C   UNL     1     -16.438   6.677  31.964  0.00  0.00    +0.000 C 
ATOM     71  C   UNL     1     -16.758   3.802  24.828  0.00  0.00    +0.000 C 
ATOM     72  C   UNL     1     -17.841   4.233  25.473  0.00  0.00    +0.000 C 
ATOM     73  C   UNL     1     -16.291   3.901  23.514  0.00  0.00    +0.000 C 
ATOM     74  C   UNL     1     -11.912   4.504  20.875  0.00  0.00    +0.000 C 
ATOM     75  C   UNL     1     -10.709   4.303  20.212  0.00  0.00    +0.000 C 
ATOM     76  C   UNL     1     -10.644   4.224  18.672  0.00  0.00    +0.000 C 
ATOM     77  C   UNL     1      -9.692   5.093  20.712  0.00  0.00    +0.000 C 
ATOM     78  C   UNL     1     -13.934  15.477  30.028  0.00  0.00    +0.000 C 
ATOM     79  C   UNL     1     -14.555  16.652  30.092  0.00  0.00    +0.000 C 
ATOM     80  C   UNL     1     -12.838  14.901  30.672  0.00  0.00    +0.000 C 
ATOM     81  C   UNL     1      -7.765  14.321  20.754  0.00  0.00    +0.000 C 
ATOM     82  C   UNL     1      -7.279  15.080  19.565  0.00  0.00    +0.000 C 
ATOM     83  C   UNL     1      -7.333  13.001  21.029  0.00  0.00    +0.000 C 
ENDROOT
BRANCH  69  84
ATOM     84  C   UNL     1     -16.619   4.187  32.410  0.00  0.00    +0.000 C 
ATOM     85  C   UNL     1     -16.773   3.263  33.161  0.00  0.00    +0.000 C 
BRANCH  85  86
ATOM     86  C   UNL     1     -16.970   2.082  34.117  0.00  0.00    +0.000 C 
ATOM     87  C   UNL     1     -17.135   1.055  34.950  0.00  0.00    +0.000 C 
ENDBRANCH  85  86
ENDBRANCH  69  84
BRANCH  13  88
ATOM     88  C   UNL     1     -14.210   6.546  27.289  0.00  0.00    +0.000 C 
BRANCH  88  89
ATOM     89  O   UNL     1     -14.049   7.337  26.237  0.00  0.00    +0.000 OA
ATOM     90  H   UNL     1     -13.734   6.819  25.475  0.00  0.00    +0.000 HD
ENDBRANCH  88  89
ENDBRANCH  13  88
TORSDOF 4
ENDMDL
MODEL 8
REMARK VINA RESULT:      -7.5     17.297     24.931
REMARK  Name = Cyclosporin_A.pdbqt.pdb
REMARK  4 active torsions:
REMARK  status: ('A' for Active; 'I' for Inactive)
REMARK    1  A    between atoms: N_13  and  C_36
REMARK    2  A    between atoms: C_36  and  O_70
REMARK    3  A    between atoms: C_72  and  C_73
REMARK    4  A    between atoms: C_75  and  C_76
REMARK                            x       y       z     vdW  Elec       q    Type
REMARK                         _______ _______ _______ _____ _____    ______ ____
ROOT
ATOM      1  O   UNL     1     -11.590  24.927  -3.981  0.00  0.00    +0.000 OA
ATOM      2  O   UNL     1     -12.421  26.805   0.720  0.00  0.00    +0.000 OA
ATOM      3  O   UNL     1     -12.891  22.783   3.273  0.00  0.00    +0.000 OA
ATOM      4  O   UNL     1     -13.772  20.734  -5.270  0.00  0.00    +0.000 OA
ATOM      5  O   UNL     1      -8.743  25.530   2.283  0.00  0.00    +0.000 OA
ATOM      6  O   UNL     1      -3.447  15.733   0.530  0.00  0.00    +0.000 OA
ATOM      7  O   UNL     1      -8.456  21.522  -6.757  0.00  0.00    +0.000 OA
ATOM      8  O   UNL     1      -7.244  14.766  -2.456  0.00  0.00    +0.000 OA
ATOM      9  O   UNL     1      -3.939  19.191   3.888  0.00  0.00    +0.000 OA
ATOM     10  O   UNL     1      -7.830  17.275  -5.655  0.00  0.00    +0.000 OA
ATOM     11  O   UNL     1      -5.270  22.930   2.199  0.00  0.00    +0.000 OA
ATOM     12  N   UNL     1     -12.326  25.430  -0.640  0.00  0.00    +0.000 NA
ATOM     13  N   UNL     1     -12.463  23.099  -2.684  0.00  0.00    +0.000 NA
ATOM     14  N   UNL     1     -12.613  24.574   2.465  0.00  0.00    +0.000 NA
ATOM     15  N   UNL     1      -9.804  23.510   3.508  0.00  0.00    +0.000 NA
ATOM     16  N   UNL     1     -11.452  20.841  -4.526  0.00  0.00    +0.000 NA
ATOM     17  N   UNL     1      -5.346  16.298   1.802  0.00  0.00    +0.000 N 
ATOM     18  N   UNL     1      -6.567  16.505  -1.044  0.00  0.00    +0.000 N 
ATOM     19  N   UNL     1      -7.336  17.244  -3.746  0.00  0.00    +0.000 NA
ATOM     20  N   UNL     1      -8.404  20.729  -4.626  0.00  0.00    +0.000 NA
ATOM     21  N   UNL     1      -7.624  22.175   1.972  0.00  0.00    +0.000 NA
ATOM     22  N   UNL     1      -5.459  19.394   2.023  0.00  0.00    +0.000 NA
ATOM     23  C   UNL     1     -11.643  25.382  -1.820  0.00  0.00    +0.000 C 
ATOM     24  C   UNL     1     -12.539  24.346   1.151  0.00  0.00    +0.000 C 
ATOM     25  C   UNL     1     -13.156  22.485  -3.709  0.00  0.00    +0.000 C 
ATOM     26  C   UNL     1     -11.176  26.508  -2.475  0.00  0.00    +0.000 C 
ATOM     27  C   UNL     1     -13.778  23.544   1.037  0.00  0.00    +0.000 C 
ATOM     28  C   UNL     1     -11.926  24.389  -2.734  0.00  0.00    +0.000 C 
ATOM     29  C   UNL     1     -12.116  25.558   0.721  0.00  0.00    +0.000 C 
ATOM     30  C   UNL     1     -10.902  24.207   3.601  0.00  0.00    +0.000 C 
ATOM     31  C   UNL     1     -11.897  23.551   2.940  0.00  0.00    +0.000 C 
ATOM     32  C   UNL     1     -12.808  21.152  -4.287  0.00  0.00    +0.000 C 
ATOM     33  C   UNL     1     -11.737  27.530  -1.650  0.00  0.00    +0.000 C 
ATOM     34  C   UNL     1     -11.329  26.271  -3.801  0.00  0.00    +0.000 C 
ATOM     35  C   UNL     1     -12.248  26.809  -0.582  0.00  0.00    +0.000 C 
ATOM     36  C   UNL     1     -13.751  23.766   2.734  0.00  0.00    +0.000 C 
ATOM     37  C   UNL     1     -10.744  21.127  -5.721  0.00  0.00    +0.000 C 
ATOM     38  C   UNL     1      -5.295  16.112  -0.714  0.00  0.00    +0.000 A 
ATOM     39  C   UNL     1      -9.256  24.229   2.534  0.00  0.00    +0.000 C 
ATOM     40  C   UNL     1      -4.757  17.224   2.700  0.00  0.00    +0.000 C 
ATOM     41  C   UNL     1      -8.154  16.474  -2.988  0.00  0.00    +0.000 C 
ATOM     42  C   UNL     1      -9.478  23.882   4.909  0.00  0.00    +0.000 C 
ATOM     43  C   UNL     1      -4.223  15.702  -1.564  0.00  0.00    +0.000 A 
ATOM     44  C   UNL     1      -4.073  16.052   3.901  0.00  0.00    +0.000 C 
ATOM     45  C   UNL     1      -8.158  23.356   2.028  0.00  0.00    +0.000 C 
ATOM     46  C   UNL     1      -8.038  15.102  -3.595  0.00  0.00    +0.000 C 
ATOM     47  C   UNL     1     -11.591  21.488  -6.812  0.00  0.00    +0.000 C 
ATOM     48  C   UNL     1      -4.773  16.091   0.576  0.00  0.00    +0.000 A 
ATOM     49  C   UNL     1      -9.388  21.129  -5.730  0.00  0.00    +0.000 C 
ATOM     50  C   UNL     1      -7.266  16.001  -2.035  0.00  0.00    +0.000 C 
ATOM     51  C   UNL     1      -4.682  18.590   2.835  0.00  0.00    +0.000 C 
ATOM     52  C   UNL     1      -8.388  19.272  -4.467  0.00  0.00    +0.000 C 
ATOM     53  C   UNL     1      -4.182  15.613  -3.066  0.00  0.00    +0.000 C 
ATOM     54  C   UNL     1      -3.124  15.490  -0.770  0.00  0.00    +0.000 A 
ATOM     55  C   UNL     1      -8.311  17.855  -4.490  0.00  0.00    +0.000 C 
ATOM     56  C   UNL     1      -5.487  20.687   2.052  0.00  0.00    +0.000 C 
ATOM     57  C   UNL     1      -7.910  24.694   1.873  0.00  0.00    +0.000 C 
ATOM     58  C   UNL     1      -4.790  15.604   2.822  0.00  0.00    +0.000 C 
ATOM     59  C   UNL     1     -12.732  21.698  -7.114  0.00  0.00    +0.000 C 
ATOM     60  C   UNL     1      -6.318  21.954   2.020  0.00  0.00    +0.000 C 
ATOM     61  C   UNL     1      -7.080  16.250  -4.930  0.00  0.00    +0.000 C 
ATOM     62  C   UNL     1      -7.848  21.160  -5.742  0.00  0.00    +0.000 C 
ATOM     63  C   UNL     1      -4.743  21.806   2.226  0.00  0.00    +0.000 C 
ATOM     64  H   UNL     1     -10.868  21.094  -3.728  0.00  0.00    +0.000 HD
ATOM     65  H   UNL     1      -6.886  17.379  -0.634  0.00  0.00    +0.000 HD
ATOM     66  H   UNL     1      -8.234  21.382   2.150  0.00  0.00    +0.000 HD
ATOM     67  H   UNL     1      -6.264  18.886   1.667  0.00  0.00    +0.000 HD
ATOM     68  C   UNL     1     -13.930  23.143  -4.528  0.00  0.00    +0.000 C 
ATOM     69  C   UNL     1     -14.444  22.951  -5.841  0.00  0.00    +0.000 C 
ATOM     70  C   UNL     1     -13.950  21.660  -6.360  0.00  0.00    +0.000 C 
ATOM     71  C   UNL     1     -15.428  23.778   0.895  0.00  0.00    +0.000 C 
ATOM     72  C   UNL     1     -16.277  23.041   0.179  0.00  0.00    +0.000 C 
ATOM     73  C   UNL     1     -14.988  23.762   2.221  0.00  0.00    +0.000 C 
ATOM     74  C   UNL     1     -10.741  24.542   5.023  0.00  0.00    +0.000 C 
ATOM     75  C   UNL     1      -9.700  25.104   5.750  0.00  0.00    +0.000 C 
ATOM     76  C   UNL     1      -9.704  25.101   7.293  0.00  0.00    +0.000 C 
ATOM     77  C   UNL     1      -8.459  24.750   5.256  0.00  0.00    +0.000 C 
ATOM     78  C   UNL     1      -8.586  14.165  -4.772  0.00  0.00    +0.000 C 
ATOM     79  C   UNL     1      -8.757  12.855  -4.925  0.00  0.00    +0.000 C 
ATOM     80  C   UNL     1      -7.744  15.126  -5.334  0.00  0.00    +0.000 C 
ATOM     81  C   UNL     1      -3.439  16.782   4.822  0.00  0.00    +0.000 C 
ATOM     82  C   UNL     1      -2.748  16.164   5.992  0.00  0.00    +0.000 C 
ATOM     83  C   UNL     1      -3.486  18.185   4.636  0.00  0.00    +0.000 C 
ENDROOT
BRANCH  69  84
ATOM     84  C   UNL     1     -14.976  23.957  -6.683  0.00  0.00    +0.000 C 
ATOM     85  C   UNL     1     -15.419  24.812  -7.400  0.00  0.00    +0.000 C 
BRANCH  85  86
ATOM     86  C   UNL     1     -15.980  25.904  -8.316  0.00  0.00    +0.000 C 
ATOM     87  C   UNL     1     -16.463  26.855  -9.114  0.00  0.00    +0.000 C 
ENDBRANCH  85  86
ENDBRANCH  69  84
BRANCH  13  88
ATOM     88  C   UNL     1     -12.024  22.251  -1.587  0.00  0.00    +0.000 C 
BRANCH  88  89
ATOM     89  O   UNL     1     -11.622  21.459  -0.602  0.00  0.00    +0.000 OA
ATOM     90  H   UNL     1     -12.226  20.700  -0.519  0.00  0.00    +0.000 HD
ENDBRANCH  88  89
ENDBRANCH  13  88
TORSDOF 4
ENDMDL
MODEL 9
REMARK VINA RESULT:      -7.5      6.851     13.423
REMARK  Name = Cyclosporin_A.pdbqt.pdb
REMARK  4 active torsions:
REMARK  status: ('A' for Active; 'I' for Inactive)
REMARK    1  A    between atoms: N_13  and  C_36
REMARK    2  A    between atoms: C_36  and  O_70
REMARK    3  A    between atoms: C_72  and  C_73
REMARK    4  A    between atoms: C_75  and  C_76
REMARK                            x       y       z     vdW  Elec       q    Type
REMARK                         _______ _______ _______ _____ _____    ______ ____
ROOT
ATOM      1  O   UNL     1     -19.866  11.770  -7.482  0.00  0.00    +0.000 OA
ATOM      2  O   UNL     1     -17.598   7.260  -6.573  0.00  0.00    +0.000 OA
ATOM      3  O   UNL     1     -16.490   7.678  -1.935  0.00  0.00    +0.000 OA
ATOM      4  O   UNL     1     -18.297  15.734  -5.066  0.00  0.00    +0.000 OA
ATOM      5  O   UNL     1     -20.663   5.792  -4.115  0.00  0.00    +0.000 OA
ATOM      6  O   UNL     1     -26.517  11.320   3.777  0.00  0.00    +0.000 OA
ATOM      7  O   UNL     1     -23.790  15.037  -5.733  0.00  0.00    +0.000 OA
ATOM      8  O   UNL     1     -23.833  15.201   2.365  0.00  0.00    +0.000 OA
ATOM      9  O   UNL     1     -24.934   6.869   2.700  0.00  0.00    +0.000 OA
ATOM     10  O   UNL     1     -24.172  16.424  -1.541  0.00  0.00    +0.000 OA
ATOM     11  O   UNL     1     -24.071   6.414  -1.502  0.00  0.00    +0.000 OA
ATOM     12  N   UNL     1     -18.139   9.076  -6.173  0.00  0.00    +0.000 NA
ATOM     13  N   UNL     1     -18.694  12.029  -5.397  0.00  0.00    +0.000 NA
ATOM     14  N   UNL     1     -16.949   7.217  -3.809  0.00  0.00    +0.000 NA
ATOM     15  N   UNL     1     -19.339   6.265  -1.940  0.00  0.00    +0.000 NA
ATOM     16  N   UNL     1     -20.279  14.479  -4.399  0.00  0.00    +0.000 NA
ATOM     17  N   UNL     1     -24.307  10.510   3.725  0.00  0.00    +0.000 N 
ATOM     18  N   UNL     1     -24.001  12.934   1.811  0.00  0.00    +0.000 N 
ATOM     19  N   UNL     1     -24.065  14.824  -0.394  0.00  0.00    +0.000 NA
ATOM     20  N   UNL     1     -23.216  13.813  -3.904  0.00  0.00    +0.000 NA
ATOM     21  N   UNL     1     -21.919   7.643  -1.358  0.00  0.00    +0.000 NA
ATOM     22  N   UNL     1     -24.045   8.610   1.282  0.00  0.00    +0.000 NA
ATOM     23  C   UNL     1     -19.149   9.841  -6.679  0.00  0.00    +0.000 C 
ATOM     24  C   UNL     1     -17.424   8.351  -4.331  0.00  0.00    +0.000 C 
ATOM     25  C   UNL     1     -18.362  13.360  -5.558  0.00  0.00    +0.000 C 
ATOM     26  C   UNL     1     -19.760   9.590  -7.894  0.00  0.00    +0.000 C 
ATOM     27  C   UNL     1     -16.302   9.224  -3.920  0.00  0.00    +0.000 C 
ATOM     28  C   UNL     1     -19.184  11.193  -6.405  0.00  0.00    +0.000 C 
ATOM     29  C   UNL     1     -17.924   7.886  -5.501  0.00  0.00    +0.000 C 
ATOM     30  C   UNL     1     -18.245   6.087  -2.628  0.00  0.00    +0.000 C 
ATOM     31  C   UNL     1     -17.516   7.239  -2.599  0.00  0.00    +0.000 C 
ATOM     32  C   UNL     1     -18.907  14.475  -4.727  0.00  0.00    +0.000 C 
ATOM     33  C   UNL     1     -18.946   8.514  -8.367  0.00  0.00    +0.000 C 
ATOM     34  C   UNL     1     -20.023  10.797  -8.450  0.00  0.00    +0.000 C 
ATOM     35  C   UNL     1     -18.157   8.226  -7.264  0.00  0.00    +0.000 C 
ATOM     36  C   UNL     1     -15.806   7.768  -3.168  0.00  0.00    +0.000 C 
ATOM     37  C   UNL     1     -21.307  15.060  -5.183  0.00  0.00    +0.000 C 
ATOM     38  C   UNL     1     -25.123  12.563   2.506  0.00  0.00    +0.000 A 
ATOM     39  C   UNL     1     -20.136   6.470  -2.984  0.00  0.00    +0.000 C 
ATOM     40  C   UNL     1     -24.570   9.128   3.544  0.00  0.00    +0.000 C 
ATOM     41  C   UNL     1     -23.078  14.887   0.532  0.00  0.00    +0.000 C 
ATOM     42  C   UNL     1     -19.214   4.876  -1.430  0.00  0.00    +0.000 C 
ATOM     43  C   UNL     1     -26.414  13.174   2.538  0.00  0.00    +0.000 A 
ATOM     44  C   UNL     1     -24.891   8.676   5.270  0.00  0.00    +0.000 C 
ATOM     45  C   UNL     1     -21.360   7.070  -2.379  0.00  0.00    +0.000 C 
ATOM     46  C   UNL     1     -23.411  16.109   1.345  0.00  0.00    +0.000 C 
ATOM     47  C   UNL     1     -20.820  15.929  -6.205  0.00  0.00    +0.000 C 
ATOM     48  C   UNL     1     -25.230  11.431   3.308  0.00  0.00    +0.000 A 
ATOM     49  C   UNL     1     -22.602  14.707  -4.986  0.00  0.00    +0.000 C 
ATOM     50  C   UNL     1     -23.649  14.178   1.577  0.00  0.00    +0.000 C 
ATOM     51  C   UNL     1     -24.562   8.228   2.505  0.00  0.00    +0.000 C 
ATOM     52  C   UNL     1     -23.225  14.512  -2.616  0.00  0.00    +0.000 C 
ATOM     53  C   UNL     1     -26.910  14.385   1.793  0.00  0.00    +0.000 C 
ATOM     54  C   UNL     1     -27.225  12.385   3.312  0.00  0.00    +0.000 A 
ATOM     55  C   UNL     1     -23.345  15.314  -1.451  0.00  0.00    +0.000 C 
ATOM     56  C   UNL     1     -23.972   7.860   0.231  0.00  0.00    +0.000 C 
ATOM     57  C   UNL     1     -21.605   6.366  -3.527  0.00  0.00    +0.000 C 
ATOM     58  C   UNL     1     -24.547   9.962   4.938  0.00  0.00    +0.000 C 
ATOM     59  C   UNL     1     -19.820  16.348  -6.714  0.00  0.00    +0.000 C 
ATOM     60  C   UNL     1     -23.155   7.386  -0.955  0.00  0.00    +0.000 C 
ATOM     61  C   UNL     1     -24.696  16.243  -0.188  0.00  0.00    +0.000 C 
ATOM     62  C   UNL     1     -24.071  14.291  -4.787  0.00  0.00    +0.000 C 
ATOM     63  C   UNL     1     -24.597   6.892  -0.482  0.00  0.00    +0.000 C 
ATOM     64  H   UNL     1     -20.586  13.559  -4.081  0.00  0.00    +0.000 HD
ATOM     65  H   UNL     1     -23.547  12.203   1.268  0.00  0.00    +0.000 HD
ATOM     66  H   UNL     1     -21.307   8.117  -0.699  0.00  0.00    +0.000 HD
ATOM     67  H   UNL     1     -23.400   9.388   1.385  0.00  0.00    +0.000 HD
ATOM     68  C   UNL     1     -17.854  13.829  -6.665  0.00  0.00    +0.000 C 
ATOM     69  C   UNL     1     -17.767  15.097  -7.304  0.00  0.00    +0.000 C 
ATOM     70  C   UNL     1     -18.432  16.104  -6.453  0.00  0.00    +0.000 C 
ATOM     71  C   UNL     1     -14.766   9.639  -4.438  0.00  0.00    +0.000 C 
ATOM     72  C   UNL     1     -14.195  10.840  -4.352  0.00  0.00    +0.000 C 
ATOM     73  C   UNL     1     -14.784   8.497  -3.631  0.00  0.00    +0.000 C 
ATOM     74  C   UNL     1     -17.959   4.746  -2.099  0.00  0.00    +0.000 C 
ATOM     75  C   UNL     1     -18.714   3.585  -2.007  0.00  0.00    +0.000 C 
ATOM     76  C   UNL     1     -18.242   2.385  -1.159  0.00  0.00    +0.000 C 
ATOM     77  C   UNL     1     -20.056   3.843  -1.800  0.00  0.00    +0.000 C 
ATOM     78  C   UNL     1     -23.273  17.703   1.388  0.00  0.00    +0.000 C 
ATOM     79  C   UNL     1     -23.193  18.612   2.356  0.00  0.00    +0.000 C 
ATOM     80  C   UNL     1     -24.218  17.372   0.416  0.00  0.00    +0.000 C 
ATOM     81  C   UNL     1     -25.195   7.376   5.269  0.00  0.00    +0.000 C 
ATOM     82  C   UNL     1     -25.517   6.633   6.523  0.00  0.00    +0.000 C 
ATOM     83  C   UNL     1     -25.166   6.737   4.006  0.00  0.00    +0.000 C 
ENDROOT
BRANCH  69  84
ATOM     84  C   UNL     1     -17.488  15.323  -8.673  0.00  0.00    +0.000 C 
ATOM     85  C   UNL     1     -17.259  15.515  -9.836  0.00  0.00    +0.000 C 
BRANCH  85  86
ATOM     86  C   UNL     1     -16.971  15.758 -11.321  0.00  0.00    +0.000 C 
ATOM     87  C   UNL     1     -16.718  15.975 -12.611  0.00  0.00    +0.000 C 
ENDBRANCH  85  86
ENDBRANCH  69  84
BRANCH  13  88
ATOM     88  C   UNL     1     -18.804  11.538  -4.033  0.00  0.00    +0.000 C 
BRANCH  88  89
ATOM     89  O   UNL     1     -18.926  11.104  -2.785  0.00  0.00    +0.000 OA
ATOM     90  H   UNL     1     -19.064  10.141  -2.780  0.00  0.00    +0.000 HD
ENDBRANCH  88  89
ENDBRANCH  13  88
TORSDOF 4
ENDMDL
