MODEL 1
REMARK VINA RESULT:      -5.7      0.000      0.000
REMARK  Name = Danazol.pdbqt.pdb
REMARK  2 active torsions:
REMARK  status: ('A' for Active; 'I' for Inactive)
REMARK    1  A    between atoms: C_9  and  O_23
REMARK    2  A    between atoms: C_9  and  C_25
REMARK                            x       y       z     vdW  Elec       q    Type
REMARK                         _______ _______ _______ _____ _____    ______ ____
ROOT
ATOM      1  O   UNL     1     -17.832   5.509  23.313  0.00  0.00    +0.000 OA
ATOM      2  N   UNL     1     -18.721   5.481  22.217  0.00  0.00    +0.000 NA
ATOM      3  C   UNL     1     -12.189   0.565  22.023  0.00  0.00    +0.000 C 
ATOM      4  C   UNL     1     -12.080  -0.066  20.538  0.00  0.00    +0.000 C 
ATOM      5  C   UNL     1     -12.805   1.879  22.290  0.00  0.00    +0.000 C 
ATOM      6  C   UNL     1     -13.538   2.737  21.295  0.00  0.00    +0.000 C 
ATOM      7  C   UNL     1     -14.046   4.167  21.592  0.00  0.00    +0.000 C 
ATOM      8  C   UNL     1     -12.930   0.793  19.698  0.00  0.00    +0.000 C 
ATOM      9  C   UNL     1     -12.588  -1.605  20.733  0.00  0.00    +0.000 C 
ATOM     10  C   UNL     1     -13.600   2.104  20.023  0.00  0.00    +0.000 C 
ATOM     11  C   UNL     1     -12.248  -0.491  22.976  0.00  0.00    +0.000 C 
ATOM     12  C   UNL     1     -12.862   2.410  23.600  0.00  0.00    +0.000 C 
ATOM     13  C   UNL     1     -12.455  -1.756  22.197  0.00  0.00    +0.000 C 
ATOM     14  C   UNL     1     -14.242   4.518  23.203  0.00  0.00    +0.000 C 
ATOM     15  C   UNL     1     -10.569   0.069  20.125  0.00  0.00    +0.000 C 
ATOM     16  C   UNL     1     -13.536   3.660  24.082  0.00  0.00    +0.000 C 
ATOM     17  C   UNL     1     -15.424   4.356  21.015  0.00  0.00    +0.000 C 
ATOM     18  C   UNL     1     -13.038   5.203  21.018  0.00  0.00    +0.000 C 
ATOM     19  C   UNL     1     -15.429   4.945  23.573  0.00  0.00    +0.000 C 
ATOM     20  C   UNL     1     -16.678   4.801  21.526  0.00  0.00    +0.000 A 
ATOM     21  C   UNL     1     -16.640   5.105  22.859  0.00  0.00    +0.000 A 
ATOM     22  C   UNL     1     -17.996   5.058  21.160  0.00  0.00    +0.000 A 
ENDROOT
BRANCH   9  23
ATOM     23  O   UNL     1     -11.777  -2.596  20.083  0.00  0.00    +0.000 OA
ATOM     24  H   UNL     1     -11.983  -2.567  19.132  0.00  0.00    +0.000 HD
ENDBRANCH   9  23
BRANCH   9  25
ATOM     25  C   UNL     1     -13.999  -1.765  20.303  0.00  0.00    +0.000 C 
ATOM     26  C   UNL     1     -15.138  -1.914  19.975  0.00  0.00    +0.000 C 
ENDBRANCH   9  25
TORSDOF 2
ENDMDL
MODEL 2
REMARK VINA RESULT:      -5.5     25.046     26.665
REMARK  Name = Danazol.pdbqt.pdb
REMARK  2 active torsions:
REMARK  status: ('A' for Active; 'I' for Inactive)
REMARK    1  A    between atoms: C_9  and  O_23
REMARK    2  A    between atoms: C_9  and  C_25
REMARK                            x       y       z     vdW  Elec       q    Type
REMARK                         _______ _______ _______ _____ _____    ______ ____
ROOT
ATOM      1  O   UNL     1     -17.181   7.603  -8.592  0.00  0.00    +0.000 OA
ATOM      2  N   UNL     1     -16.555   6.342  -8.684  0.00  0.00    +0.000 NA
ATOM      3  C   UNL     1     -16.974   9.926  -1.346  0.00  0.00    +0.000 C 
ATOM      4  C   UNL     1     -16.044   9.086  -0.323  0.00  0.00    +0.000 C 
ATOM      5  C   UNL     1     -16.714   9.988  -2.797  0.00  0.00    +0.000 C 
ATOM      6  C   UNL     1     -15.682   9.192  -3.550  0.00  0.00    +0.000 C 
ATOM      7  C   UNL     1     -15.357   9.395  -5.048  0.00  0.00    +0.000 C 
ATOM      8  C   UNL     1     -15.173   8.272  -1.185  0.00  0.00    +0.000 C 
ATOM      9  C   UNL     1     -17.118   8.264   0.591  0.00  0.00    +0.000 C 
ATOM     10  C   UNL     1     -14.977   8.317  -2.679  0.00  0.00    +0.000 C 
ATOM     11  C   UNL     1     -18.298   9.994  -0.825  0.00  0.00    +0.000 C 
ATOM     12  C   UNL     1     -17.535  10.752  -3.657  0.00  0.00    +0.000 C 
ATOM     13  C   UNL     1     -18.352   9.033   0.325  0.00  0.00    +0.000 C 
ATOM     14  C   UNL     1     -16.555  10.134  -5.929  0.00  0.00    +0.000 C 
ATOM     15  C   UNL     1     -15.205  10.154   0.469  0.00  0.00    +0.000 C 
ATOM     16  C   UNL     1     -17.499  10.850  -5.153  0.00  0.00    +0.000 C 
ATOM     17  C   UNL     1     -15.187   8.060  -5.724  0.00  0.00    +0.000 C 
ATOM     18  C   UNL     1     -14.080  10.273  -5.186  0.00  0.00    +0.000 C 
ATOM     19  C   UNL     1     -16.985   9.491  -6.993  0.00  0.00    +0.000 C 
ATOM     20  C   UNL     1     -15.743   7.438  -6.880  0.00  0.00    +0.000 A 
ATOM     21  C   UNL     1     -16.669   8.217  -7.518  0.00  0.00    +0.000 A 
ATOM     22  C   UNL     1     -15.693   6.277  -7.646  0.00  0.00    +0.000 A 
ENDROOT
BRANCH   9  23
ATOM     23  O   UNL     1     -16.849   8.280   2.001  0.00  0.00    +0.000 OA
ATOM     24  H   UNL     1     -15.883   8.248   2.117  0.00  0.00    +0.000 HD
ENDBRANCH   9  23
BRANCH   9  25
ATOM     25  C   UNL     1     -17.252   6.860   0.131  0.00  0.00    +0.000 C 
ATOM     26  C   UNL     1     -17.386   5.729  -0.232  0.00  0.00    +0.000 C 
ENDBRANCH   9  25
TORSDOF 2
ENDMDL
MODEL 3
REMARK VINA RESULT:      -5.5      5.014      6.981
REMARK  Name = Danazol.pdbqt.pdb
REMARK  2 active torsions:
REMARK  status: ('A' for Active; 'I' for Inactive)
REMARK    1  A    between atoms: C_9  and  O_23
REMARK    2  A    between atoms: C_9  and  C_25
REMARK                            x       y       z     vdW  Elec       q    Type
REMARK                         _______ _______ _______ _____ _____    ______ ____
ROOT
ATOM      1  O   UNL     1     -10.365   5.250  25.209  0.00  0.00    +0.000 OA
ATOM      2  N   UNL     1     -10.133   3.896  25.534  0.00  0.00    +0.000 NA
ATOM      3  C   UNL     1      -9.775   6.101  17.668  0.00  0.00    +0.000 C 
ATOM      4  C   UNL     1      -9.696   4.756  16.773  0.00  0.00    +0.000 C 
ATOM      5  C   UNL     1     -10.430   6.145  18.989  0.00  0.00    +0.000 C 
ATOM      6  C   UNL     1     -10.968   4.966  19.754  0.00  0.00    +0.000 C 
ATOM      7  C   UNL     1     -11.768   5.083  21.074  0.00  0.00    +0.000 C 
ATOM      8  C   UNL     1     -10.133   3.677  17.671  0.00  0.00    +0.000 C 
ATOM      9  C   UNL     1      -8.137   4.702  16.293  0.00  0.00    +0.000 C 
ATOM     10  C   UNL     1     -10.742   3.753  19.049  0.00  0.00    +0.000 C 
ATOM     11  C   UNL     1      -8.659   6.931  17.364  0.00  0.00    +0.000 C 
ATOM     12  C   UNL     1     -10.500   7.345  19.733  0.00  0.00    +0.000 C 
ATOM     13  C   UNL     1      -7.724   6.100  16.535  0.00  0.00    +0.000 C 
ATOM     14  C   UNL     1     -11.543   6.503  21.903  0.00  0.00    +0.000 C 
ATOM     15  C   UNL     1     -10.726   4.959  15.602  0.00  0.00    +0.000 C 
ATOM     16  C   UNL     1     -11.019   7.563  21.124  0.00  0.00    +0.000 C 
ATOM     17  C   UNL     1     -11.315   4.024  22.045  0.00  0.00    +0.000 C 
ATOM     18  C   UNL     1     -13.288   4.966  20.768  0.00  0.00    +0.000 C 
ATOM     19  C   UNL     1     -11.150   6.398  23.154  0.00  0.00    +0.000 C 
ATOM     20  C   UNL     1     -10.866   4.026  23.398  0.00  0.00    +0.000 A 
ATOM     21  C   UNL     1     -10.800   5.279  23.944  0.00  0.00    +0.000 A 
ATOM     22  C   UNL     1     -10.449   3.188  24.428  0.00  0.00    +0.000 A 
ENDROOT
BRANCH   9  23
ATOM     23  O   UNL     1      -7.942   4.388  14.905  0.00  0.00    +0.000 OA
ATOM     24  H   UNL     1      -7.868   5.229  14.421  0.00  0.00    +0.000 HD
ENDBRANCH   9  23
BRANCH   9  25
ATOM     25  C   UNL     1      -7.350   3.759  17.126  0.00  0.00    +0.000 C 
ATOM     26  C   UNL     1      -6.696   3.017  17.796  0.00  0.00    +0.000 C 
ENDBRANCH   9  25
TORSDOF 2
ENDMDL
MODEL 4
REMARK VINA RESULT:      -5.3     19.353     22.045
REMARK  Name = Danazol.pdbqt.pdb
REMARK  2 active torsions:
REMARK  status: ('A' for Active; 'I' for Inactive)
REMARK    1  A    between atoms: C_9  and  O_23
REMARK    2  A    between atoms: C_9  and  C_25
REMARK                            x       y       z     vdW  Elec       q    Type
REMARK                         _______ _______ _______ _____ _____    ______ ____
ROOT
ATOM      1  O   UNL     1       0.395   4.431   4.260  0.00  0.00    +0.000 OA
ATOM      2  N   UNL     1      -0.175   5.693   4.533  0.00  0.00    +0.000 NA
ATOM      3  C   UNL     1      -5.164  -0.422   2.394  0.00  0.00    +0.000 C 
ATOM      4  C   UNL     1      -6.633   0.199   2.126  0.00  0.00    +0.000 C 
ATOM      5  C   UNL     1      -3.922   0.352   2.207  0.00  0.00    +0.000 C 
ATOM      6  C   UNL     1      -3.828   1.823   1.903  0.00  0.00    +0.000 C 
ATOM      7  C   UNL     1      -2.505   2.558   1.582  0.00  0.00    +0.000 C 
ATOM      8  C   UNL     1      -6.410   1.644   1.964  0.00  0.00    +0.000 C 
ATOM      9  C   UNL     1      -7.490  -0.251   3.440  0.00  0.00    +0.000 C 
ATOM     10  C   UNL     1      -5.119   2.415   1.840  0.00  0.00    +0.000 C 
ATOM     11  C   UNL     1      -5.262  -1.443   3.381  0.00  0.00    +0.000 C 
ATOM     12  C   UNL     1      -2.654  -0.231   2.429  0.00  0.00    +0.000 C 
ATOM     13  C   UNL     1      -6.641  -1.342   3.963  0.00  0.00    +0.000 C 
ATOM     14  C   UNL     1      -1.134   1.792   2.118  0.00  0.00    +0.000 C 
ATOM     15  C   UNL     1      -7.131  -0.442   0.779  0.00  0.00    +0.000 C 
ATOM     16  C   UNL     1      -1.301   0.414   2.400  0.00  0.00    +0.000 C 
ATOM     17  C   UNL     1      -2.472   3.889   2.285  0.00  0.00    +0.000 C 
ATOM     18  C   UNL     1      -2.366   2.721   0.041  0.00  0.00    +0.000 C 
ATOM     19  C   UNL     1      -0.334   2.492   2.893  0.00  0.00    +0.000 C 
ATOM     20  C   UNL     1      -1.550   4.547   3.150  0.00  0.00    +0.000 A 
ATOM     21  C   UNL     1      -0.446   3.792   3.438  0.00  0.00    +0.000 A 
ATOM     22  C   UNL     1      -1.337   5.733   3.847  0.00  0.00    +0.000 A 
ENDROOT
BRANCH   9  23
ATOM     23  O   UNL     1      -8.800  -0.767   3.160  0.00  0.00    +0.000 OA
ATOM     24  H   UNL     1      -8.759  -1.735   3.242  0.00  0.00    +0.000 HD
ENDBRANCH   9  23
BRANCH   9  25
ATOM     25  C   UNL     1      -7.597   0.860   4.418  0.00  0.00    +0.000 C 
ATOM     26  C   UNL     1      -7.656   1.756   5.207  0.00  0.00    +0.000 C 
ENDBRANCH   9  25
TORSDOF 2
ENDMDL
MODEL 5
REMARK VINA RESULT:      -5.1     17.888     20.232
REMARK  Name = Danazol.pdbqt.pdb
REMARK  2 active torsions:
REMARK  status: ('A' for Active; 'I' for Inactive)
REMARK    1  A    between atoms: C_9  and  O_23
REMARK    2  A    between atoms: C_9  and  C_25
REMARK                            x       y       z     vdW  Elec       q    Type
REMARK                         _______ _______ _______ _____ _____    ______ ____
ROOT
ATOM      1  O   UNL     1      -7.068  19.218  13.228  0.00  0.00    +0.000 OA
ATOM      2  N   UNL     1      -7.102  19.380  14.629  0.00  0.00    +0.000 NA
ATOM      3  C   UNL     1      -1.110  14.847  11.400  0.00  0.00    +0.000 C 
ATOM      4  C   UNL     1      -0.341  14.098  12.610  0.00  0.00    +0.000 C 
ATOM      5  C   UNL     1      -2.531  15.239  11.477  0.00  0.00    +0.000 C 
ATOM      6  C   UNL     1      -3.413  15.150  12.693  0.00  0.00    +0.000 C 
ATOM      7  C   UNL     1      -4.932  15.445  12.684  0.00  0.00    +0.000 C 
ATOM      8  C   UNL     1      -1.258  14.187  13.756  0.00  0.00    +0.000 C 
ATOM      9  C   UNL     1       1.061  14.923  12.747  0.00  0.00    +0.000 C 
ATOM     10  C   UNL     1      -2.691  14.655  13.813  0.00  0.00    +0.000 C 
ATOM     11  C   UNL     1      -0.170  15.607  10.648  0.00  0.00    +0.000 C 
ATOM     12  C   UNL     1      -3.177  15.872  10.391  0.00  0.00    +0.000 C 
ATOM     13  C   UNL     1       1.103  15.616  11.442  0.00  0.00    +0.000 C 
ATOM     14  C   UNL     1      -5.452  16.388  11.421  0.00  0.00    +0.000 C 
ATOM     15  C   UNL     1      -0.170  12.604  12.148  0.00  0.00    +0.000 C 
ATOM     16  C   UNL     1      -4.564  16.438  10.319  0.00  0.00    +0.000 C 
ATOM     17  C   UNL     1      -5.309  16.243  13.906  0.00  0.00    +0.000 C 
ATOM     18  C   UNL     1      -5.718  14.106  12.610  0.00  0.00    +0.000 C 
ATOM     19  C   UNL     1      -6.114  17.481  11.735  0.00  0.00    +0.000 C 
ATOM     20  C   UNL     1      -6.012  17.461  14.135  0.00  0.00    +0.000 A 
ATOM     21  C   UNL     1      -6.422  18.073  12.982  0.00  0.00    +0.000 A 
ATOM     22  C   UNL     1      -6.465  18.306  15.144  0.00  0.00    +0.000 A 
ENDROOT
BRANCH   9  23
ATOM     23  O   UNL     1       2.233  14.104  12.883  0.00  0.00    +0.000 OA
ATOM     24  H   UNL     1       2.140  13.353  12.271  0.00  0.00    +0.000 HD
ENDBRANCH   9  23
BRANCH   9  25
ATOM     25  C   UNL     1       1.006  15.893  13.868  0.00  0.00    +0.000 C 
ATOM     26  C   UNL     1       0.967  16.695  14.754  0.00  0.00    +0.000 C 
ENDBRANCH   9  25
TORSDOF 2
ENDMDL
MODEL 6
REMARK VINA RESULT:      -5.1     19.795     22.444
REMARK  Name = Danazol.pdbqt.pdb
REMARK  2 active torsions:
REMARK  status: ('A' for Active; 'I' for Inactive)
REMARK    1  A    between atoms: C_9  and  O_23
REMARK    2  A    between atoms: C_9  and  C_25
REMARK                            x       y       z     vdW  Elec       q    Type
REMARK                         _______ _______ _______ _____ _____    ______ ____
ROOT
ATOM      1  O   UNL     1      -8.366  -1.572   0.842  0.00  0.00    +0.000 OA
ATOM      2  N   UNL     1      -8.998  -0.767  -0.128  0.00  0.00    +0.000 NA
ATOM      3  C   UNL     1      -1.922   1.832   3.041  0.00  0.00    +0.000 C 
ATOM      4  C   UNL     1      -1.688   3.359   2.561  0.00  0.00    +0.000 C 
ATOM      5  C   UNL     1      -3.264   1.240   3.199  0.00  0.00    +0.000 C 
ATOM      6  C   UNL     1      -4.570   1.879   2.810  0.00  0.00    +0.000 C 
ATOM      7  C   UNL     1      -5.958   1.273   3.123  0.00  0.00    +0.000 C 
ATOM      8  C   UNL     1      -3.008   3.817   2.101  0.00  0.00    +0.000 C 
ATOM      9  C   UNL     1      -0.533   3.232   1.415  0.00  0.00    +0.000 C 
ATOM     10  C   UNL     1      -4.358   3.156   2.222  0.00  0.00    +0.000 C 
ATOM     11  C   UNL     1      -0.804   1.043   2.649  0.00  0.00    +0.000 C 
ATOM     12  C   UNL     1      -3.431  -0.092   3.643  0.00  0.00    +0.000 C 
ATOM     13  C   UNL     1       0.011   1.891   1.718  0.00  0.00    +0.000 C 
ATOM     14  C   UNL     1      -5.957  -0.361   3.414  0.00  0.00    +0.000 C 
ATOM     15  C   UNL     1      -1.241   4.147   3.846  0.00  0.00    +0.000 C 
ATOM     16  C   UNL     1      -4.691  -0.896   3.759  0.00  0.00    +0.000 C 
ATOM     17  C   UNL     1      -6.867   1.424   1.931  0.00  0.00    +0.000 C 
ATOM     18  C   UNL     1      -6.550   1.963   4.385  0.00  0.00    +0.000 C 
ATOM     19  C   UNL     1      -6.759  -1.092   2.672  0.00  0.00    +0.000 C 
ATOM     20  C   UNL     1      -7.679   0.537   1.166  0.00  0.00    +0.000 A 
ATOM     21  C   UNL     1      -7.603  -0.763   1.586  0.00  0.00    +0.000 A 
ATOM     22  C   UNL     1      -8.570   0.494   0.098  0.00  0.00    +0.000 A 
ENDROOT
BRANCH   9  23
ATOM     23  O   UNL     1       0.523   4.200   1.512  0.00  0.00    +0.000 OA
ATOM     24  H   UNL     1       1.283   3.858   1.011  0.00  0.00    +0.000 HD
ENDBRANCH   9  23
BRANCH   9  25
ATOM     25  C   UNL     1      -1.120   3.278   0.053  0.00  0.00    +0.000 C 
ATOM     26  C   UNL     1      -1.568   3.307  -1.054  0.00  0.00    +0.000 C 
ENDBRANCH   9  25
TORSDOF 2
ENDMDL
MODEL 7
REMARK VINA RESULT:      -4.9     19.016     21.789
REMARK  Name = Danazol.pdbqt.pdb
REMARK  2 active torsions:
REMARK  status: ('A' for Active; 'I' for Inactive)
REMARK    1  A    between atoms: C_9  and  O_23
REMARK    2  A    between atoms: C_9  and  C_25
REMARK                            x       y       z     vdW  Elec       q    Type
REMARK                         _______ _______ _______ _____ _____    ______ ____
ROOT
ATOM      1  O   UNL     1       3.955  16.983  12.479  0.00  0.00    +0.000 OA
ATOM      2  N   UNL     1       4.328  16.603  11.173  0.00  0.00    +0.000 NA
ATOM      3  C   UNL     1      -3.547  15.978  13.284  0.00  0.00    +0.000 C 
ATOM      4  C   UNL     1      -4.316  15.165  12.116  0.00  0.00    +0.000 C 
ATOM      5  C   UNL     1      -2.114  15.787  13.581  0.00  0.00    +0.000 C 
ATOM      6  C   UNL     1      -1.144  14.958  12.784  0.00  0.00    +0.000 C 
ATOM      7  C   UNL     1       0.316  14.680  13.216  0.00  0.00    +0.000 C 
ATOM      8  C   UNL     1      -3.250  14.503  11.350  0.00  0.00    +0.000 C 
ATOM      9  C   UNL     1      -5.155  16.321  11.327  0.00  0.00    +0.000 C 
ATOM     10  C   UNL     1      -1.777  14.380  11.650  0.00  0.00    +0.000 C 
ATOM     11  C   UNL     1      -4.183  17.238  13.472  0.00  0.00    +0.000 C 
ATOM     12  C   UNL     1      -1.481  16.499  14.625  0.00  0.00    +0.000 C 
ATOM     13  C   UNL     1      -5.140  17.407  12.329  0.00  0.00    +0.000 C 
ATOM     14  C   UNL     1       0.941  15.768  14.302  0.00  0.00    +0.000 C 
ATOM     15  C   UNL     1      -5.214  14.105  12.853  0.00  0.00    +0.000 C 
ATOM     16  C   UNL     1      -0.030  16.524  15.004  0.00  0.00    +0.000 C 
ATOM     17  C   UNL     1       1.235  14.792  12.027  0.00  0.00    +0.000 C 
ATOM     18  C   UNL     1       0.400  13.274  13.875  0.00  0.00    +0.000 C 
ATOM     19  C   UNL     1       2.063  16.363  13.960  0.00  0.00    +0.000 C 
ATOM     20  C   UNL     1       2.432  15.512  11.745  0.00  0.00    +0.000 A 
ATOM     21  C   UNL     1       2.837  16.313  12.777  0.00  0.00    +0.000 A 
ATOM     22  C   UNL     1       3.397  15.714  10.763  0.00  0.00    +0.000 A 
ENDROOT
BRANCH   9  23
ATOM     23  O   UNL     1      -6.516  15.979  11.023  0.00  0.00    +0.000 OA
ATOM     24  H   UNL     1      -6.621  15.024  11.176  0.00  0.00    +0.000 HD
ENDBRANCH   9  23
BRANCH   9  25
ATOM     25  C   UNL     1      -4.461  16.732  10.081  0.00  0.00    +0.000 C 
ATOM     26  C   UNL     1      -3.879  17.054   9.088  0.00  0.00    +0.000 C 
ENDBRANCH   9  25
TORSDOF 2
ENDMDL
MODEL 8
REMARK VINA RESULT:      -4.8     19.043     21.877
REMARK  Name = Danazol.pdbqt.pdb
REMARK  2 active torsions:
REMARK  status: ('A' for Active; 'I' for Inactive)
REMARK    1  A    between atoms: C_9  and  O_23
REMARK    2  A    between atoms: C_9  and  C_25
REMARK                            x       y       z     vdW  Elec       q    Type
REMARK                         _______ _______ _______ _____ _____    ______ ____
ROOT
ATOM      1  O   UNL     1       3.066  15.755  15.049  0.00  0.00    +0.000 OA
ATOM      2  N   UNL     1       3.127  17.016  15.678  0.00  0.00    +0.000 NA
ATOM      3  C   UNL     1      -3.479  15.246  11.197  0.00  0.00    +0.000 C 
ATOM      4  C   UNL     1      -4.347  16.600  11.026  0.00  0.00    +0.000 C 
ATOM      5  C   UNL     1      -2.016  15.253  11.388  0.00  0.00    +0.000 C 
ATOM      6  C   UNL     1      -1.153  16.467  11.601  0.00  0.00    +0.000 C 
ATOM      7  C   UNL     1       0.393  16.431  11.660  0.00  0.00    +0.000 C 
ATOM      8  C   UNL     1      -3.423  17.689  11.376  0.00  0.00    +0.000 C 
ATOM      9  C   UNL     1      -5.611  16.380  12.036  0.00  0.00    +0.000 C 
ATOM     10  C   UNL     1      -1.937  17.652  11.629  0.00  0.00    +0.000 C 
ATOM     11  C   UNL     1      -4.299  14.235  11.774  0.00  0.00    +0.000 C 
ATOM     12  C   UNL     1      -1.287  14.048  11.510  0.00  0.00    +0.000 C 
ATOM     13  C   UNL     1      -5.554  14.916  12.235  0.00  0.00    +0.000 C 
ATOM     14  C   UNL     1       1.043  14.948  12.026  0.00  0.00    +0.000 C 
ATOM     15  C   UNL     1      -4.740  16.669   9.505  0.00  0.00    +0.000 C 
ATOM     16  C   UNL     1       0.168  13.854  11.816  0.00  0.00    +0.000 C 
ATOM     17  C   UNL     1       0.887  17.323  12.768  0.00  0.00    +0.000 C 
ATOM     18  C   UNL     1       0.971  16.856  10.280  0.00  0.00    +0.000 C 
ATOM     19  C   UNL     1       1.860  14.901  13.055  0.00  0.00    +0.000 C 
ATOM     20  C   UNL     1       1.764  17.155  13.879  0.00  0.00    +0.000 A 
ATOM     21  C   UNL     1       2.256  15.884  13.992  0.00  0.00    +0.000 A 
ATOM     22  C   UNL     1       2.340  17.836  14.948  0.00  0.00    +0.000 A 
ENDROOT
BRANCH   9  23
ATOM     23  O   UNL     1      -6.891  16.730  11.487  0.00  0.00    +0.000 OA
ATOM     24  H   UNL     1      -7.312  17.358  12.100  0.00  0.00    +0.000 HD
ENDBRANCH   9  23
BRANCH   9  25
ATOM     25  C   UNL     1      -5.409  17.103  13.316  0.00  0.00    +0.000 C 
ATOM     26  C   UNL     1      -5.250  17.662  14.360  0.00  0.00    +0.000 C 
ENDBRANCH   9  25
TORSDOF 2
ENDMDL
MODEL 9
REMARK VINA RESULT:      -4.8     20.360     24.204
REMARK  Name = Danazol.pdbqt.pdb
REMARK  2 active torsions:
REMARK  status: ('A' for Active; 'I' for Inactive)
REMARK    1  A    between atoms: C_9  and  O_23
REMARK    2  A    between atoms: C_9  and  C_25
REMARK                            x       y       z     vdW  Elec       q    Type
REMARK                         _______ _______ _______ _____ _____    ______ ____
ROOT
ATOM      1  O   UNL     1     -17.651  27.885  27.033  0.00  0.00    +0.000 OA
ATOM      2  N   UNL     1     -16.684  27.660  28.035  0.00  0.00    +0.000 NA
ATOM      3  C   UNL     1     -22.879  22.363  27.376  0.00  0.00    +0.000 C 
ATOM      4  C   UNL     1     -22.841  21.383  28.663  0.00  0.00    +0.000 C 
ATOM      5  C   UNL     1     -22.364  23.745  27.408  0.00  0.00    +0.000 C 
ATOM      6  C   UNL     1     -21.612  24.388  28.542  0.00  0.00    +0.000 C 
ATOM      7  C   UNL     1     -21.214  25.882  28.580  0.00  0.00    +0.000 C 
ATOM      8  C   UNL     1     -21.985  22.074  29.639  0.00  0.00    +0.000 C 
ATOM      9  C   UNL     1     -22.258  19.981  28.064  0.00  0.00    +0.000 C 
ATOM     10  C   UNL     1     -21.419  23.471  29.612  0.00  0.00    +0.000 C 
ATOM     11  C   UNL     1     -22.828  21.578  26.190  0.00  0.00    +0.000 C 
ATOM     12  C   UNL     1     -22.436  24.581  26.270  0.00  0.00    +0.000 C 
ATOM     13  C   UNL     1     -22.489  20.181  26.618  0.00  0.00    +0.000 C 
ATOM     14  C   UNL     1     -21.159  26.628  27.098  0.00  0.00    +0.000 C 
ATOM     15  C   UNL     1     -24.323  21.299  29.181  0.00  0.00    +0.000 C 
ATOM     16  C   UNL     1     -21.875  25.958  26.075  0.00  0.00    +0.000 C 
ATOM     17  C   UNL     1     -19.810  26.029  29.107  0.00  0.00    +0.000 C 
ATOM     18  C   UNL     1     -22.236  26.668  29.449  0.00  0.00    +0.000 C 
ATOM     19  C   UNL     1     -20.029  27.221  26.779  0.00  0.00    +0.000 C 
ATOM     20  C   UNL     1     -18.626  26.678  28.651  0.00  0.00    +0.000 A 
ATOM     21  C   UNL     1     -18.781  27.294  27.440  0.00  0.00    +0.000 A 
ATOM     22  C   UNL     1     -17.303  26.938  28.995  0.00  0.00    +0.000 A 
ENDROOT
BRANCH   9  23
ATOM     23  O   UNL     1     -22.959  18.803  28.493  0.00  0.00    +0.000 OA
ATOM     24  H   UNL     1     -23.076  18.866  29.457  0.00  0.00    +0.000 HD
ENDBRANCH   9  23
BRANCH   9  25
ATOM     25  C   UNL     1     -20.812  19.829  28.360  0.00  0.00    +0.000 C 
ATOM     26  C   UNL     1     -19.651  19.723  28.621  0.00  0.00    +0.000 C 
ENDBRANCH   9  25
TORSDOF 2
ENDMDL
