MODEL 1
REMARK VINA RESULT:      -5.0      0.000      0.000
REMARK  Name = Decitabine.pdbqt.pdb
REMARK  4 active torsions:
REMARK  status: ('A' for Active; 'I' for Inactive)
REMARK    1  A    between atoms: N_2  and  C1*_8
REMARK    2  A    between atoms: C4*_10  and  C5*_13
REMARK    3  A    between atoms: C3*_11  and  O3*_16
REMARK    4  A    between atoms: C5*_13  and  O5*_14
REMARK                            x       y       z     vdW  Elec       q    Type
REMARK                         _______ _______ _______ _____ _____    ______ ____
ROOT
ATOM      1  O   UNL     1     -25.184   8.076  15.857  0.00  0.00    +0.000 OA
ATOM      2  N   UNL     1     -24.015   9.172  17.528  0.00  0.00    +0.000 N 
ATOM      3  N   UNL     1     -26.335   9.427  17.299  0.00  0.00    +0.000 NA
ATOM      4  N   UNL     1     -25.148  10.579  19.011  0.00  0.00    +0.000 NA
ATOM      5  C   UNL     1     -25.166   8.831  16.824  0.00  0.00    +0.000 A 
ATOM      6  C   UNL     1     -24.248  10.016  18.530  0.00  0.00    +0.000 A 
ATOM      7  C   UNL     1     -26.302  10.230  18.331  0.00  0.00    +0.000 A 
ATOM      8  N   UNL     1     -27.468  10.779  18.759  0.00  0.00    +0.000 N 
ATOM      9  H   UNL     1     -27.361  11.660  19.245  0.00  0.00    +0.000 HD
ATOM     10  H   UNL     1     -28.198  10.765  18.057  0.00  0.00    +0.000 HD
ENDROOT
BRANCH   2  11
ATOM     11  C1* UNL     1     -22.755   8.733  17.274  0.00  0.00    +0.000 A 
ATOM     12  O4* UNL     1     -21.897   9.404  16.395  0.00  0.00    +0.000 OA
ATOM     13  C4* UNL     1     -20.693   8.688  16.377  0.00  0.00    +0.000 A 
ATOM     14  C3* UNL     1     -20.806   7.551  17.253  0.00  0.00    +0.000 A 
ATOM     15  C2* UNL     1     -22.095   7.609  17.810  0.00  0.00    +0.000 A 
BRANCH  14  16
ATOM     16  O3* UNL     1     -19.712   7.049  17.900  0.00  0.00    +0.000 OA
ATOM     17  H3* UNL     1     -19.303   6.329  17.387  0.00  0.00    +0.000 HD
ENDBRANCH  14  16
BRANCH  13  18
ATOM     18  C5* UNL     1     -19.537   9.167  15.731  0.00  0.00    +0.000 C 
BRANCH  18  19
ATOM     19  O5* UNL     1     -18.442   9.616  15.124  0.00  0.00    +0.000 OA
ATOM     20  H5* UNL     1     -17.853  10.046  15.768  0.00  0.00    +0.000 HD
ENDBRANCH  18  19
ENDBRANCH  13  18
ENDBRANCH   2  11
TORSDOF 4
ENDMDL
MODEL 2
REMARK VINA RESULT:      -4.9      4.063      5.623
REMARK  Name = Decitabine.pdbqt.pdb
REMARK  4 active torsions:
REMARK  status: ('A' for Active; 'I' for Inactive)
REMARK    1  A    between atoms: N_2  and  C1*_8
REMARK    2  A    between atoms: C4*_10  and  C5*_13
REMARK    3  A    between atoms: C3*_11  and  O3*_16
REMARK    4  A    between atoms: C5*_13  and  O5*_14
REMARK                            x       y       z     vdW  Elec       q    Type
REMARK                         _______ _______ _______ _____ _____    ______ ____
ROOT
ATOM      1  O   UNL     1     -20.623   4.079  18.983  0.00  0.00    +0.000 OA
ATOM      2  N   UNL     1     -21.765   4.859  17.126  0.00  0.00    +0.000 N 
ATOM      3  N   UNL     1     -21.912   2.616  17.789  0.00  0.00    +0.000 NA
ATOM      4  N   UNL     1     -23.077   3.394  15.864  0.00  0.00    +0.000 NA
ATOM      5  C   UNL     1     -21.377   3.880  18.035  0.00  0.00    +0.000 A 
ATOM      6  C   UNL     1     -22.577   4.400  16.179  0.00  0.00    +0.000 A 
ATOM      7  C   UNL     1     -22.715   2.417  16.775  0.00  0.00    +0.000 A 
ATOM      8  N   UNL     1     -23.214   1.170  16.582  0.00  0.00    +0.000 N 
ATOM      9  H   UNL     1     -23.463   0.962  15.624  0.00  0.00    +0.000 HD
ATOM     10  H   UNL     1     -22.680   0.447  17.049  0.00  0.00    +0.000 HD
ENDROOT
BRANCH   2  11
ATOM     11  C1* UNL     1     -21.389   6.166  17.140  0.00  0.00    +0.000 A 
ATOM     12  O4* UNL     1     -20.327   6.641  16.363  0.00  0.00    +0.000 OA
ATOM     13  C4* UNL     1     -20.223   8.015  16.613  0.00  0.00    +0.000 A 
ATOM     14  C3* UNL     1     -21.233   8.399  17.566  0.00  0.00    +0.000 A 
ATOM     15  C2* UNL     1     -21.955   7.231  17.868  0.00  0.00    +0.000 A 
BRANCH  14  16
ATOM     16  O3* UNL     1     -21.774   9.654  17.552  0.00  0.00    +0.000 OA
ATOM     17  H3* UNL     1     -22.655   9.659  17.964  0.00  0.00    +0.000 HD
ENDBRANCH  14  16
BRANCH  13  18
ATOM     18  C5* UNL     1     -19.370   8.858  15.875  0.00  0.00    +0.000 C 
BRANCH  18  19
ATOM     19  O5* UNL     1     -18.567   9.659  15.179  0.00  0.00    +0.000 OA
ATOM     20  H5* UNL     1     -17.926   9.132  14.672  0.00  0.00    +0.000 HD
ENDBRANCH  18  19
ENDBRANCH  13  18
ENDBRANCH   2  11
TORSDOF 4
ENDMDL
MODEL 3
REMARK VINA RESULT:      -4.7      3.186      4.315
REMARK  Name = Decitabine.pdbqt.pdb
REMARK  4 active torsions:
REMARK  status: ('A' for Active; 'I' for Inactive)
REMARK    1  A    between atoms: N_2  and  C1*_8
REMARK    2  A    between atoms: C4*_10  and  C5*_13
REMARK    3  A    between atoms: C3*_11  and  O3*_16
REMARK    4  A    between atoms: C5*_13  and  O5*_14
REMARK                            x       y       z     vdW  Elec       q    Type
REMARK                         _______ _______ _______ _____ _____    ______ ____
ROOT
ATOM      1  O   UNL     1     -20.667   7.932  17.567  0.00  0.00    +0.000 OA
ATOM      2  N   UNL     1     -22.886   7.282  17.473  0.00  0.00    +0.000 N 
ATOM      3  N   UNL     1     -22.286   9.481  18.022  0.00  0.00    +0.000 NA
ATOM      4  N   UNL     1     -24.574   8.826  17.951  0.00  0.00    +0.000 NA
ATOM      5  C   UNL     1     -21.859   8.198  17.674  0.00  0.00    +0.000 A 
ATOM      6  C   UNL     1     -24.095   7.804  17.658  0.00  0.00    +0.000 A 
ATOM      7  C   UNL     1     -23.561   9.752  18.132  0.00  0.00    +0.000 A 
ATOM      8  N   UNL     1     -23.925  11.016  18.466  0.00  0.00    +0.000 N 
ATOM      9  H   UNL     1     -24.821  11.085  18.931  0.00  0.00    +0.000 HD
ATOM     10  H   UNL     1     -23.179  11.547  18.901  0.00  0.00    +0.000 HD
ENDROOT
BRANCH   2  11
ATOM     11  C1* UNL     1     -22.744   5.975  17.128  0.00  0.00    +0.000 A 
ATOM     12  O4* UNL     1     -22.978   5.520  15.826  0.00  0.00    +0.000 OA
ATOM     13  C4* UNL     1     -22.732   4.142  15.826  0.00  0.00    +0.000 A 
ATOM     14  C3* UNL     1     -22.345   3.731  17.152  0.00  0.00    +0.000 A 
ATOM     15  C2* UNL     1     -22.347   4.894  17.941  0.00  0.00    +0.000 A 
BRANCH  14  16
ATOM     16  O3* UNL     1     -21.500   2.674  17.343  0.00  0.00    +0.000 OA
ATOM     17  H3* UNL     1     -21.743   1.925  16.772  0.00  0.00    +0.000 HD
ENDBRANCH  14  16
BRANCH  13  18
ATOM     18  C5* UNL     1     -22.702   3.376  14.644  0.00  0.00    +0.000 C 
BRANCH  18  19
ATOM     19  O5* UNL     1     -22.669   2.653  13.529  0.00  0.00    +0.000 OA
ATOM     20  H5* UNL     1     -23.566   2.553  13.166  0.00  0.00    +0.000 HD
ENDBRANCH  18  19
ENDBRANCH  13  18
ENDBRANCH   2  11
TORSDOF 4
ENDMDL
MODEL 4
REMARK VINA RESULT:      -4.5      9.387     10.363
REMARK  Name = Decitabine.pdbqt.pdb
REMARK  4 active torsions:
REMARK  status: ('A' for Active; 'I' for Inactive)
REMARK    1  A    between atoms: N_2  and  C1*_8
REMARK    2  A    between atoms: C4*_10  and  C5*_13
REMARK    3  A    between atoms: C3*_11  and  O3*_16
REMARK    4  A    between atoms: C5*_13  and  O5*_14
REMARK                            x       y       z     vdW  Elec       q    Type
REMARK                         _______ _______ _______ _____ _____    ______ ____
ROOT
ATOM      1  O   UNL     1     -24.929  13.572   7.034  0.00  0.00    +0.000 OA
ATOM      2  N   UNL     1     -23.402  12.428   8.346  0.00  0.00    +0.000 N 
ATOM      3  N   UNL     1     -24.273  11.479   6.387  0.00  0.00    +0.000 NA
ATOM      4  N   UNL     1     -22.720  10.278   7.735  0.00  0.00    +0.000 NA
ATOM      5  C   UNL     1     -24.246  12.575   7.250  0.00  0.00    +0.000 A 
ATOM      6  C   UNL     1     -22.777  11.255   8.369  0.00  0.00    +0.000 A 
ATOM      7  C   UNL     1     -23.541  10.422   6.629  0.00  0.00    +0.000 A 
ATOM      8  N   UNL     1     -23.597   9.384   5.756  0.00  0.00    +0.000 N 
ATOM      9  H   UNL     1     -23.374   8.485   6.160  0.00  0.00    +0.000 HD
ATOM     10  H   UNL     1     -24.426   9.395   5.174  0.00  0.00    +0.000 HD
ENDROOT
BRANCH   2  11
ATOM     11  C1* UNL     1     -23.193  13.342   9.330  0.00  0.00    +0.000 A 
ATOM     12  O4* UNL     1     -22.217  14.339   9.223  0.00  0.00    +0.000 OA
ATOM     13  C4* UNL     1     -22.281  15.098  10.399  0.00  0.00    +0.000 A 
ATOM     14  C3* UNL     1     -23.309  14.560  11.253  0.00  0.00    +0.000 A 
ATOM     15  C2* UNL     1     -23.871  13.475  10.558  0.00  0.00    +0.000 A 
BRANCH  14  16
ATOM     16  O3* UNL     1     -24.003  15.365  12.112  0.00  0.00    +0.000 OA
ATOM     17  H3* UNL     1     -24.300  14.867  12.894  0.00  0.00    +0.000 HD
ENDBRANCH  14  16
BRANCH  13  18
ATOM     18  C5* UNL     1     -21.559  16.295  10.569  0.00  0.00    +0.000 C 
BRANCH  18  19
ATOM     19  O5* UNL     1     -20.877  17.425  10.734  0.00  0.00    +0.000 OA
ATOM     20  H5* UNL     1     -20.159  17.483  10.081  0.00  0.00    +0.000 HD
ENDBRANCH  18  19
ENDBRANCH  13  18
ENDBRANCH   2  11
TORSDOF 4
ENDMDL
MODEL 5
REMARK VINA RESULT:      -4.5      3.723      5.696
REMARK  Name = Decitabine.pdbqt.pdb
REMARK  4 active torsions:
REMARK  status: ('A' for Active; 'I' for Inactive)
REMARK    1  A    between atoms: N_2  and  C1*_8
REMARK    2  A    between atoms: C4*_10  and  C5*_13
REMARK    3  A    between atoms: C3*_11  and  O3*_16
REMARK    4  A    between atoms: C5*_13  and  O5*_14
REMARK                            x       y       z     vdW  Elec       q    Type
REMARK                         _______ _______ _______ _____ _____    ______ ____
ROOT
ATOM      1  O   UNL     1     -24.462   6.399  13.991  0.00  0.00    +0.000 OA
ATOM      2  N   UNL     1     -23.438   5.963  16.021  0.00  0.00    +0.000 N 
ATOM      3  N   UNL     1     -23.676   4.290  14.396  0.00  0.00    +0.000 NA
ATOM      4  N   UNL     1     -22.639   3.817  16.486  0.00  0.00    +0.000 NA
ATOM      5  C   UNL     1     -23.898   5.621  14.753  0.00  0.00    +0.000 A 
ATOM      6  C   UNL     1     -22.872   4.946  16.663  0.00  0.00    +0.000 A 
ATOM      7  C   UNL     1     -23.073   3.470  15.218  0.00  0.00    +0.000 A 
ATOM      8  N   UNL     1     -22.875   2.188  14.821  0.00  0.00    +0.000 N 
ATOM      9  H   UNL     1     -22.804   1.521  15.579  0.00  0.00    +0.000 HD
ATOM     10  H   UNL     1     -23.483   1.905  14.061  0.00  0.00    +0.000 HD
ENDROOT
BRANCH   2  11
ATOM     11  C1* UNL     1     -23.528   7.186  16.607  0.00  0.00    +0.000 A 
ATOM     12  O4* UNL     1     -24.752   7.727  17.013  0.00  0.00    +0.000 OA
ATOM     13  C4* UNL     1     -24.476   8.980  17.576  0.00  0.00    +0.000 A 
ATOM     14  C3* UNL     1     -23.058   9.224  17.514  0.00  0.00    +0.000 A 
ATOM     15  C2* UNL     1     -22.488   8.086  16.918  0.00  0.00    +0.000 A 
BRANCH  14  16
ATOM     16  O3* UNL     1     -22.434   9.992  18.455  0.00  0.00    +0.000 OA
ATOM     17  H3* UNL     1     -22.871   9.908  19.321  0.00  0.00    +0.000 HD
ENDBRANCH  14  16
BRANCH  13  18
ATOM     18  C5* UNL     1     -25.453   9.741  18.249  0.00  0.00    +0.000 C 
BRANCH  18  19
ATOM     19  O5* UNL     1     -26.377  10.459  18.879  0.00  0.00    +0.000 OA
ATOM     20  H5* UNL     1     -26.503  10.126  19.784  0.00  0.00    +0.000 HD
ENDBRANCH  18  19
ENDBRANCH  13  18
ENDBRANCH   2  11
TORSDOF 4
ENDMDL
MODEL 6
REMARK VINA RESULT:      -4.5     24.812     25.990
REMARK  Name = Decitabine.pdbqt.pdb
REMARK  4 active torsions:
REMARK  status: ('A' for Active; 'I' for Inactive)
REMARK    1  A    between atoms: N_2  and  C1*_8
REMARK    2  A    between atoms: C4*_10  and  C5*_13
REMARK    3  A    between atoms: C3*_11  and  O3*_16
REMARK    4  A    between atoms: C5*_13  and  O5*_14
REMARK                            x       y       z     vdW  Elec       q    Type
REMARK                         _______ _______ _______ _____ _____    ______ ____
ROOT
ATOM      1  O   UNL     1      -3.035  13.935   4.621  0.00  0.00    +0.000 OA
ATOM      2  N   UNL     1      -2.756  15.551   2.987  0.00  0.00    +0.000 N 
ATOM      3  N   UNL     1      -1.402  15.511   4.900  0.00  0.00    +0.000 NA
ATOM      4  N   UNL     1      -1.113  17.194   3.242  0.00  0.00    +0.000 NA
ATOM      5  C   UNL     1      -2.449  14.923   4.190  0.00  0.00    +0.000 A 
ATOM      6  C   UNL     1      -1.989  16.609   2.740  0.00  0.00    +0.000 A 
ATOM      7  C   UNL     1      -0.785  16.564   4.430  0.00  0.00    +0.000 A 
ATOM      8  N   UNL     1       0.232  17.095   5.156  0.00  0.00    +0.000 N 
ATOM      9  H   UNL     1       0.391  18.081   4.995  0.00  0.00    +0.000 HD
ATOM     10  H   UNL     1       0.213  16.821   6.131  0.00  0.00    +0.000 HD
ENDROOT
BRANCH   2  11
ATOM     11  C1* UNL     1      -3.725  15.181   2.109  0.00  0.00    +0.000 A 
ATOM     12  O4* UNL     1      -3.480  14.282   1.066  0.00  0.00    +0.000 OA
ATOM     13  C4* UNL     1      -4.686  14.125   0.372  0.00  0.00    +0.000 A 
ATOM     14  C3* UNL     1      -5.698  14.944   0.991  0.00  0.00    +0.000 A 
ATOM     15  C2* UNL     1      -5.076  15.581   2.079  0.00  0.00    +0.000 A 
BRANCH  14  16
ATOM     16  O3* UNL     1      -7.013  14.578   0.964  0.00  0.00    +0.000 OA
ATOM     17  H3* UNL     1      -7.513  15.021   1.672  0.00  0.00    +0.000 HD
ENDBRANCH  14  16
BRANCH  13  18
ATOM     18  C5* UNL     1      -4.859  13.160  -0.639  0.00  0.00    +0.000 C 
BRANCH  18  19
ATOM     19  O5* UNL     1      -5.018  12.247  -1.593  0.00  0.00    +0.000 OA
ATOM     20  H5* UNL     1      -5.159  12.680  -2.453  0.00  0.00    +0.000 HD
ENDBRANCH  18  19
ENDBRANCH  13  18
ENDBRANCH   2  11
TORSDOF 4
ENDMDL
MODEL 7
REMARK VINA RESULT:      -4.5      1.670      2.531
REMARK  Name = Decitabine.pdbqt.pdb
REMARK  4 active torsions:
REMARK  status: ('A' for Active; 'I' for Inactive)
REMARK    1  A    between atoms: N_2  and  C1*_8
REMARK    2  A    between atoms: C4*_10  and  C5*_13
REMARK    3  A    between atoms: C3*_11  and  O3*_16
REMARK    4  A    between atoms: C5*_13  and  O5*_14
REMARK                            x       y       z     vdW  Elec       q    Type
REMARK                         _______ _______ _______ _____ _____    ______ ____
ROOT
ATOM      1  O   UNL     1     -24.538   6.629  15.243  0.00  0.00    +0.000 OA
ATOM      2  N   UNL     1     -24.023   8.134  16.925  0.00  0.00    +0.000 N 
ATOM      3  N   UNL     1     -26.191   7.990  16.046  0.00  0.00    +0.000 NA
ATOM      4  N   UNL     1     -25.676   9.559  17.761  0.00  0.00    +0.000 NA
ATOM      5  C   UNL     1     -24.879   7.516  16.019  0.00  0.00    +0.000 A 
ATOM      6  C   UNL     1     -24.621   9.074  17.650  0.00  0.00    +0.000 A 
ATOM      7  C   UNL     1     -26.542   8.936  16.878  0.00  0.00    +0.000 A 
ATOM      8  N   UNL     1     -27.832   9.358  16.870  0.00  0.00    +0.000 N 
ATOM      9  H   UNL     1     -27.964  10.308  17.190  0.00  0.00    +0.000 HD
ATOM     10  H   UNL     1     -28.324   9.124  16.016  0.00  0.00    +0.000 HD
ENDROOT
BRANCH   2  11
ATOM     11  C1* UNL     1     -22.703   7.860  17.102  0.00  0.00    +0.000 A 
ATOM     12  O4* UNL     1     -22.264   6.685  17.720  0.00  0.00    +0.000 OA
ATOM     13  C4* UNL     1     -20.864   6.727  17.727  0.00  0.00    +0.000 A 
ATOM     14  C3* UNL     1     -20.425   7.952  17.108  0.00  0.00    +0.000 A 
ATOM     15  C2* UNL     1     -21.590   8.633  16.715  0.00  0.00    +0.000 A 
BRANCH  14  16
ATOM     16  O3* UNL     1     -19.236   8.017  16.441  0.00  0.00    +0.000 OA
ATOM     17  H3* UNL     1     -18.954   7.134  16.144  0.00  0.00    +0.000 HD
ENDBRANCH  14  16
BRANCH  13  18
ATOM     18  C5* UNL     1     -20.074   5.629  18.120  0.00  0.00    +0.000 C 
BRANCH  18  19
ATOM     19  O5* UNL     1     -19.330   4.590  18.487  0.00  0.00    +0.000 OA
ATOM     20  H5* UNL     1     -18.872   4.783  19.322  0.00  0.00    +0.000 HD
ENDBRANCH  18  19
ENDBRANCH  13  18
ENDBRANCH   2  11
TORSDOF 4
ENDMDL
MODEL 8
REMARK VINA RESULT:      -4.1     25.145     27.262
REMARK  Name = Decitabine.pdbqt.pdb
REMARK  4 active torsions:
REMARK  status: ('A' for Active; 'I' for Inactive)
REMARK    1  A    between atoms: N_2  and  C1*_8
REMARK    2  A    between atoms: C4*_10  and  C5*_13
REMARK    3  A    between atoms: C3*_11  and  O3*_16
REMARK    4  A    between atoms: C5*_13  and  O5*_14
REMARK                            x       y       z     vdW  Elec       q    Type
REMARK                         _______ _______ _______ _____ _____    ______ ____
ROOT
ATOM      1  O   UNL     1      -0.798  17.392   1.524  0.00  0.00    +0.000 OA
ATOM      2  N   UNL     1      -1.449  15.245   2.096  0.00  0.00    +0.000 N 
ATOM      3  N   UNL     1       0.407  16.261   3.105  0.00  0.00    +0.000 NA
ATOM      4  N   UNL     1      -0.234  14.044   3.691  0.00  0.00    +0.000 NA
ATOM      5  C   UNL     1      -0.638  16.372   2.187  0.00  0.00    +0.000 A 
ATOM      6  C   UNL     1      -1.069  14.261   2.905  0.00  0.00    +0.000 A 
ATOM      7  C   UNL     1       0.567  15.168   3.805  0.00  0.00    +0.000 A 
ATOM      8  N   UNL     1       1.595  15.112   4.690  0.00  0.00    +0.000 N 
ATOM      9  H   UNL     1       1.928  14.177   4.885  0.00  0.00    +0.000 HD
ATOM     10  H   UNL     1       2.321  15.793   4.503  0.00  0.00    +0.000 HD
ENDROOT
BRANCH   2  11
ATOM     11  C1* UNL     1      -2.529  15.093   1.285  0.00  0.00    +0.000 A 
ATOM     12  O4* UNL     1      -3.817  14.889   1.792  0.00  0.00    +0.000 OA
ATOM     13  C4* UNL     1      -4.676  14.783   0.691  0.00  0.00    +0.000 A 
ATOM     14  C3* UNL     1      -3.910  14.919  -0.521  0.00  0.00    +0.000 A 
ATOM     15  C2* UNL     1      -2.577  15.125  -0.123  0.00  0.00    +0.000 A 
BRANCH  14  16
ATOM     16  O3* UNL     1      -4.465  15.451  -1.650  0.00  0.00    +0.000 OA
ATOM     17  H3* UNL     1      -5.423  15.578  -1.541  0.00  0.00    +0.000 HD
ENDBRANCH  14  16
BRANCH  13  18
ATOM     18  C5* UNL     1      -6.078  14.743   0.824  0.00  0.00    +0.000 C 
BRANCH  18  19
ATOM     19  O5* UNL     1      -7.401  14.710   0.950  0.00  0.00    +0.000 OA
ATOM     20  H5* UNL     1      -7.824  14.826   0.082  0.00  0.00    +0.000 HD
ENDBRANCH  18  19
ENDBRANCH  13  18
ENDBRANCH   2  11
TORSDOF 4
ENDMDL
MODEL 9
REMARK VINA RESULT:      -4.1      9.324     10.515
REMARK  Name = Decitabine.pdbqt.pdb
REMARK  4 active torsions:
REMARK  status: ('A' for Active; 'I' for Inactive)
REMARK    1  A    between atoms: N_2  and  C1*_8
REMARK    2  A    between atoms: C4*_10  and  C5*_13
REMARK    3  A    between atoms: C3*_11  and  O3*_16
REMARK    4  A    between atoms: C5*_13  and  O5*_14
REMARK                            x       y       z     vdW  Elec       q    Type
REMARK                         _______ _______ _______ _____ _____    ______ ____
ROOT
ATOM      1  O   UNL     1     -26.195  16.530  25.937  0.00  0.00    +0.000 OA
ATOM      2  N   UNL     1     -25.997  14.481  24.879  0.00  0.00    +0.000 N 
ATOM      3  N   UNL     1     -25.010  14.869  26.969  0.00  0.00    +0.000 NA
ATOM      4  N   UNL     1     -24.777  12.761  25.887  0.00  0.00    +0.000 NA
ATOM      5  C   UNL     1     -25.773  15.378  25.918  0.00  0.00    +0.000 A 
ATOM      6  C   UNL     1     -25.430  13.295  25.081  0.00  0.00    +0.000 A 
ATOM      7  C   UNL     1     -24.567  13.639  26.937  0.00  0.00    +0.000 A 
ATOM      8  N   UNL     1     -23.833  13.189  27.987  0.00  0.00    +0.000 N 
ATOM      9  H   UNL     1     -23.192  12.441  27.759  0.00  0.00    +0.000 HD
ATOM     10  H   UNL     1     -23.436  13.934  28.547  0.00  0.00    +0.000 HD
ENDROOT
BRANCH   2  11
ATOM     11  C1* UNL     1     -26.706  14.722  23.745  0.00  0.00    +0.000 A 
ATOM     12  O4* UNL     1     -26.198  15.508  22.704  0.00  0.00    +0.000 OA
ATOM     13  C4* UNL     1     -27.178  15.540  21.704  0.00  0.00    +0.000 A 
ATOM     14  C3* UNL     1     -28.315  14.766  22.131  0.00  0.00    +0.000 A 
ATOM     15  C2* UNL     1     -27.990  14.256  23.400  0.00  0.00    +0.000 A 
BRANCH  14  16
ATOM     16  O3* UNL     1     -29.109  14.122  21.225  0.00  0.00    +0.000 OA
ATOM     17  H3* UNL     1     -28.616  13.917  20.411  0.00  0.00    +0.000 HD
ENDBRANCH  14  16
BRANCH  13  18
ATOM     18  C5* UNL     1     -26.944  16.098  20.432  0.00  0.00    +0.000 C 
BRANCH  18  19
ATOM     19  O5* UNL     1     -26.727  16.629  19.232  0.00  0.00    +0.000 OA
ATOM     20  H5* UNL     1     -27.410  16.335  18.605  0.00  0.00    +0.000 HD
ENDBRANCH  18  19
ENDBRANCH  13  18
ENDBRANCH   2  11
TORSDOF 4
ENDMDL
