MODEL 1
REMARK VINA RESULT:      -4.5      0.000      0.000
REMARK  Name = Deferoxamine.pdbqt.pdb
REMARK  19 active torsions:
REMARK  status: ('A' for Active; 'I' for Inactive)
REMARK    1  A    between atoms: C_1  and  C_2
REMARK    2  A    between atoms: C_3  and  C_4
REMARK    3  A    between atoms: C_4  and  N_5
REMARK    4  A    between atoms: C_6  and  C_9
REMARK    5  A    between atoms: C_10  and  C_11
REMARK    6  A    between atoms: N_13  and  O_14
REMARK    7  A    between atoms: N_13  and  C_16
REMARK    8  A    between atoms: C_17  and  C_18
REMARK    9  A    between atoms: C_19  and  C_20
REMARK   10  A    between atoms: C_20  and  N_21
REMARK   11  A    between atoms: C_24  and  N_25
REMARK   12  A    between atoms: N_25  and  O_28
REMARK   13  A    between atoms: C_26  and  C_30
REMARK   14  A    between atoms: C_31  and  C_32
REMARK   15  A    between atoms: N_34  and  C_36
REMARK   16  A    between atoms: C_37  and  C_38
REMARK   17  A    between atoms: C_38  and  C_39
REMARK   18  A    between atoms: C_40  and  N_41
REMARK   19  A    between atoms: N_41  and  O_45
REMARK                            x       y       z     vdW  Elec       q    Type
REMARK                         _______ _______ _______ _____ _____    ______ ____
ROOT
ATOM      1  C   UNL     1     -10.045  18.066  18.307  0.00  0.00    +0.000 C 
ATOM      2  C   UNL     1     -10.759  18.198  19.264  0.00  0.00    +0.000 C 
ENDROOT
BRANCH   2   3
ATOM      3  N   UNL     1     -11.561  18.348  20.338  0.00  0.00    +0.000 N 
ATOM      4  C   UNL     1     -12.690  19.127  20.520  0.00  0.00    +0.000 C 
ATOM      5  O   UNL     1     -13.080  19.989  19.740  0.00  0.00    +0.000 OA
BRANCH   4   6
ATOM      6  C   UNL     1     -13.447  18.930  21.739  0.00  0.00    +0.000 C 
ATOM      7  C   UNL     1     -14.069  18.755  22.752  0.00  0.00    +0.000 C 
BRANCH   7   8
ATOM      8  C   UNL     1     -14.815  18.521  23.964  0.00  0.00    +0.000 C 
ATOM      9  O   UNL     1     -15.888  17.938  23.897  0.00  0.00    +0.000 OA
ATOM     10  N   UNL     1     -14.226  18.992  25.115  0.00  0.00    +0.000 N 
ATOM     11  H   UNL     1     -13.330  19.450  25.004  0.00  0.00    +0.000 HD
BRANCH  10  12
ATOM     12  C   UNL     1     -14.673  18.927  26.388  0.00  0.00    +0.000 C 
ATOM     13  C   UNL     1     -15.076  18.867  27.517  0.00  0.00    +0.000 C 
BRANCH  13  14
ATOM     14  C   UNL     1     -15.597  18.785  28.955  0.00  0.00    +0.000 C 
BRANCH  14  15
ATOM     15  C   UNL     1     -16.127  18.706  30.390  0.00  0.00    +0.000 C 
ATOM     16  C   UNL     1     -16.542  18.640  31.515  0.00  0.00    +0.000 C 
BRANCH  16  17
ATOM     17  N   UNL     1     -17.002  18.562  32.778  0.00  0.00    +0.000 N 
ATOM     18  C   UNL     1     -18.206  18.933  33.329  0.00  0.00    +0.000 C 
ATOM     19  O   UNL     1     -19.186  19.434  32.806  0.00  0.00    +0.000 OA
ATOM     20  C   UNL     1     -18.437  18.723  34.804  0.00  0.00    +0.000 C 
BRANCH  17  21
ATOM     21  O   UNL     1     -16.002  17.990  33.606  0.00  0.00    +0.000 OA
ATOM     22  H   UNL     1     -16.230  18.330  34.496  0.00  0.00    +0.000 HD
ENDBRANCH  17  21
ENDBRANCH  16  17
ENDBRANCH  14  15
ENDBRANCH  13  14
ENDBRANCH  10  12
ENDBRANCH   7   8
ENDBRANCH   4   6
BRANCH   3  23
ATOM     23  O   UNL     1     -11.370  17.260  21.220  0.00  0.00    +0.000 OA
ATOM     24  H   UNL     1     -11.808  17.586  22.028  0.00  0.00    +0.000 HD
ENDBRANCH   3  23
ENDBRANCH   2   3
BRANCH   1  25
ATOM     25  C   UNL     1      -9.126  17.910  17.092  0.00  0.00    +0.000 C 
ATOM     26  C   UNL     1      -8.396  17.786  16.149  0.00  0.00    +0.000 C 
BRANCH  26  27
ATOM     27  C   UNL     1      -7.451  17.625  14.952  0.00  0.00    +0.000 C 
BRANCH  27  28
ATOM     28  N   UNL     1      -6.606  17.479  13.909  0.00  0.00    +0.000 N 
ATOM     29  C   UNL     1      -5.854  18.431  13.263  0.00  0.00    +0.000 C 
ATOM     30  O   UNL     1      -5.824  19.623  13.534  0.00  0.00    +0.000 OA
ATOM     31  H   UNL     1      -6.519  16.528  13.573  0.00  0.00    +0.000 HD
BRANCH  29  32
ATOM     32  C   UNL     1      -5.042  17.942  12.176  0.00  0.00    +0.000 C 
ATOM     33  C   UNL     1      -4.381  17.516  11.268  0.00  0.00    +0.000 C 
BRANCH  33  34
ATOM     34  C   UNL     1      -3.602  16.993  10.164  0.00  0.00    +0.000 C 
ATOM     35  O   UNL     1      -2.537  16.445  10.427  0.00  0.00    +0.000 OA
ATOM     36  N   UNL     1      -4.099  17.185   8.886  0.00  0.00    +0.000 N 
BRANCH  36  37
ATOM     37  C   UNL     1      -3.684  16.700   7.698  0.00  0.00    +0.000 C 
ATOM     38  C   UNL     1      -3.311  16.270   6.641  0.00  0.00    +0.000 C 
BRANCH  38  39
ATOM     39  C   UNL     1      -2.833  15.727   5.291  0.00  0.00    +0.000 C 
ATOM     40  C   UNL     1      -2.460  15.307   4.230  0.00  0.00    +0.000 C 
BRANCH  40  41
ATOM     41  C   UNL     1      -1.985  14.774   2.876  0.00  0.00    +0.000 C 
BRANCH  41  42
ATOM     42  N   UNL     1      -1.534  14.267   1.590  0.00  0.00    +0.000 NA
ATOM     43  H   UNL     1      -1.806  14.903   0.842  0.00  0.00    +0.000 HD
ATOM     44  H   UNL     1      -0.517  14.220   1.563  0.00  0.00    +0.000 HD
ENDBRANCH  41  42
ENDBRANCH  40  41
ENDBRANCH  38  39
ENDBRANCH  36  37
BRANCH  36  45
ATOM     45  O   UNL     1      -5.430  17.645   8.766  0.00  0.00    +0.000 OA
ATOM     46  H   UNL     1      -5.902  16.819   8.554  0.00  0.00    +0.000 HD
ENDBRANCH  36  45
ENDBRANCH  33  34
ENDBRANCH  29  32
ENDBRANCH  27  28
ENDBRANCH  26  27
ENDBRANCH   1  25
TORSDOF 19
ENDMDL
MODEL 2
REMARK VINA RESULT:      -4.5      3.537      6.981
REMARK  Name = Deferoxamine.pdbqt.pdb
REMARK  19 active torsions:
REMARK  status: ('A' for Active; 'I' for Inactive)
REMARK    1  A    between atoms: C_1  and  C_2
REMARK    2  A    between atoms: C_3  and  C_4
REMARK    3  A    between atoms: C_4  and  N_5
REMARK    4  A    between atoms: C_6  and  C_9
REMARK    5  A    between atoms: C_10  and  C_11
REMARK    6  A    between atoms: N_13  and  O_14
REMARK    7  A    between atoms: N_13  and  C_16
REMARK    8  A    between atoms: C_17  and  C_18
REMARK    9  A    between atoms: C_19  and  C_20
REMARK   10  A    between atoms: C_20  and  N_21
REMARK   11  A    between atoms: C_24  and  N_25
REMARK   12  A    between atoms: N_25  and  O_28
REMARK   13  A    between atoms: C_26  and  C_30
REMARK   14  A    between atoms: C_31  and  C_32
REMARK   15  A    between atoms: N_34  and  C_36
REMARK   16  A    between atoms: C_37  and  C_38
REMARK   17  A    between atoms: C_38  and  C_39
REMARK   18  A    between atoms: C_40  and  N_41
REMARK   19  A    between atoms: N_41  and  O_45
REMARK                            x       y       z     vdW  Elec       q    Type
REMARK                         _______ _______ _______ _____ _____    ______ ____
ROOT
ATOM      1  C   UNL     1      -6.740  18.107  12.529  0.00  0.00    +0.000 C 
ATOM      2  C   UNL     1      -7.309  18.321  13.566  0.00  0.00    +0.000 C 
ENDROOT
BRANCH   2   3
ATOM      3  N   UNL     1      -7.946  18.561  14.730  0.00  0.00    +0.000 N 
ATOM      4  C   UNL     1      -8.779  19.601  15.105  0.00  0.00    +0.000 C 
ATOM      5  O   UNL     1      -8.956  20.627  14.456  0.00  0.00    +0.000 OA
BRANCH   4   6
ATOM      6  C   UNL     1      -9.464  19.482  16.376  0.00  0.00    +0.000 C 
ATOM      7  C   UNL     1     -10.028  19.369  17.431  0.00  0.00    +0.000 C 
BRANCH   7   8
ATOM      8  C   UNL     1     -10.709  19.211  18.692  0.00  0.00    +0.000 C 
ATOM      9  O   UNL     1     -11.383  20.137  19.122  0.00  0.00    +0.000 OA
ATOM     10  N   UNL     1     -10.529  17.993  19.307  0.00  0.00    +0.000 N 
ATOM     11  H   UNL     1      -9.944  17.328  18.818  0.00  0.00    +0.000 HD
BRANCH  10  12
ATOM     12  C   UNL     1     -11.029  17.550  20.481  0.00  0.00    +0.000 C 
ATOM     13  C   UNL     1     -11.477  17.162  21.525  0.00  0.00    +0.000 C 
BRANCH  13  14
ATOM     14  C   UNL     1     -12.055  16.673  22.856  0.00  0.00    +0.000 C 
BRANCH  14  15
ATOM     15  C   UNL     1     -12.636  16.192  24.189  0.00  0.00    +0.000 C 
ATOM     16  C   UNL     1     -13.090  15.818  25.236  0.00  0.00    +0.000 C 
BRANCH  16  17
ATOM     17  N   UNL     1     -13.598  15.404  26.412  0.00  0.00    +0.000 N 
ATOM     18  C   UNL     1     -14.036  16.109  27.509  0.00  0.00    +0.000 C 
ATOM     19  O   UNL     1     -14.080  17.311  27.701  0.00  0.00    +0.000 OA
ATOM     20  C   UNL     1     -14.560  15.356  28.706  0.00  0.00    +0.000 C 
BRANCH  17  21
ATOM     21  O   UNL     1     -13.648  13.986  26.428  0.00  0.00    +0.000 OA
ATOM     22  H   UNL     1     -13.528  13.749  25.485  0.00  0.00    +0.000 HD
ENDBRANCH  17  21
ENDBRANCH  16  17
ENDBRANCH  14  15
ENDBRANCH  13  14
ENDBRANCH  10  12
ENDBRANCH   7   8
ENDBRANCH   4   6
BRANCH   3  23
ATOM     23  O   UNL     1      -8.017  17.366  15.480  0.00  0.00    +0.000 OA
ATOM     24  H   UNL     1      -8.866  16.996  15.176  0.00  0.00    +0.000 HD
ENDBRANCH   3  23
ENDBRANCH   2   3
BRANCH   1  25
ATOM     25  C   UNL     1      -6.019  17.817  11.210  0.00  0.00    +0.000 C 
ATOM     26  C   UNL     1      -5.443  17.594  10.182  0.00  0.00    +0.000 C 
BRANCH  26  27
ATOM     27  C   UNL     1      -4.693  17.312   8.875  0.00  0.00    +0.000 C 
BRANCH  27  28
ATOM     28  N   UNL     1      -4.036  17.080   7.718  0.00  0.00    +0.000 N 
ATOM     29  C   UNL     1      -2.682  17.044   7.484  0.00  0.00    +0.000 C 
ATOM     30  O   UNL     1      -1.806  17.223   8.318  0.00  0.00    +0.000 OA
ATOM     31  H   UNL     1      -4.639  16.904   6.924  0.00  0.00    +0.000 HD
BRANCH  29  32
ATOM     32  C   UNL     1      -2.300  16.765   6.121  0.00  0.00    +0.000 C 
ATOM     33  C   UNL     1      -1.979  16.556   4.983  0.00  0.00    +0.000 C 
BRANCH  33  34
ATOM     34  C   UNL     1      -1.577  16.321   3.611  0.00  0.00    +0.000 C 
ATOM     35  O   UNL     1      -0.928  17.199   3.050  0.00  0.00    +0.000 OA
ATOM     36  N   UNL     1      -1.988  15.139   3.019  0.00  0.00    +0.000 N 
BRANCH  36  37
ATOM     37  C   UNL     1      -1.658  14.588   1.832  0.00  0.00    +0.000 C 
ATOM     38  C   UNL     1      -1.368  14.096   0.777  0.00  0.00    +0.000 C 
BRANCH  38  39
ATOM     39  C   UNL     1      -0.999  13.462  -0.568  0.00  0.00    +0.000 C 
ATOM     40  C   UNL     1      -0.716  12.963  -1.622  0.00  0.00    +0.000 C 
BRANCH  40  41
ATOM     41  C   UNL     1      -0.358  12.324  -2.967  0.00  0.00    +0.000 C 
BRANCH  41  42
ATOM     42  N   UNL     1      -0.017  11.718  -4.243  0.00  0.00    +0.000 NA
ATOM     43  H   UNL     1       0.868  11.219  -4.175  0.00  0.00    +0.000 HD
ATOM     44  H   UNL     1      -0.714  11.021  -4.502  0.00  0.00    +0.000 HD
ENDBRANCH  41  42
ENDBRANCH  40  41
ENDBRANCH  38  39
ENDBRANCH  36  37
BRANCH  36  45
ATOM     45  O   UNL     1      -2.545  14.148   3.859  0.00  0.00    +0.000 OA
ATOM     46  H   UNL     1      -3.316  13.862   3.335  0.00  0.00    +0.000 HD
ENDBRANCH  36  45
ENDBRANCH  33  34
ENDBRANCH  29  32
ENDBRANCH  27  28
ENDBRANCH  26  27
ENDBRANCH   1  25
TORSDOF 19
ENDMDL
MODEL 3
REMARK VINA RESULT:      -4.4      2.668     22.007
REMARK  Name = Deferoxamine.pdbqt.pdb
REMARK  19 active torsions:
REMARK  status: ('A' for Active; 'I' for Inactive)
REMARK    1  A    between atoms: C_1  and  C_2
REMARK    2  A    between atoms: C_3  and  C_4
REMARK    3  A    between atoms: C_4  and  N_5
REMARK    4  A    between atoms: C_6  and  C_9
REMARK    5  A    between atoms: C_10  and  C_11
REMARK    6  A    between atoms: N_13  and  O_14
REMARK    7  A    between atoms: N_13  and  C_16
REMARK    8  A    between atoms: C_17  and  C_18
REMARK    9  A    between atoms: C_19  and  C_20
REMARK   10  A    between atoms: C_20  and  N_21
REMARK   11  A    between atoms: C_24  and  N_25
REMARK   12  A    between atoms: N_25  and  O_28
REMARK   13  A    between atoms: C_26  and  C_30
REMARK   14  A    between atoms: C_31  and  C_32
REMARK   15  A    between atoms: N_34  and  C_36
REMARK   16  A    between atoms: C_37  and  C_38
REMARK   17  A    between atoms: C_38  and  C_39
REMARK   18  A    between atoms: C_40  and  N_41
REMARK   19  A    between atoms: N_41  and  O_45
REMARK                            x       y       z     vdW  Elec       q    Type
REMARK                         _______ _______ _______ _____ _____    ______ ____
ROOT
ATOM      1  C   UNL     1      -8.232  16.940  16.819  0.00  0.00    +0.000 C 
ATOM      2  C   UNL     1      -7.446  16.762  15.928  0.00  0.00    +0.000 C 
ENDROOT
BRANCH   2   3
ATOM      3  N   UNL     1      -6.563  16.564  14.928  0.00  0.00    +0.000 N 
ATOM      4  C   UNL     1      -5.770  15.470  14.627  0.00  0.00    +0.000 C 
ATOM      5  O   UNL     1      -5.606  14.501  15.360  0.00  0.00    +0.000 OA
BRANCH   4   6
ATOM      6  C   UNL     1      -5.054  15.491  13.368  0.00  0.00    +0.000 C 
ATOM      7  C   UNL     1      -4.450  15.501  12.329  0.00  0.00    +0.000 C 
BRANCH   7   8
ATOM      8  C   UNL     1      -3.705  15.516  11.095  0.00  0.00    +0.000 C 
ATOM      9  O   UNL     1      -2.684  14.848  11.010  0.00  0.00    +0.000 OA
ATOM     10  N   UNL     1      -4.234  16.307  10.100  0.00  0.00    +0.000 N 
ATOM     11  H   UNL     1      -5.091  16.796  10.326  0.00  0.00    +0.000 HD
BRANCH  10  12
ATOM     12  C   UNL     1      -3.771  16.525   8.850  0.00  0.00    +0.000 C 
ATOM     13  C   UNL     1      -3.356  16.720   7.741  0.00  0.00    +0.000 C 
BRANCH  13  14
ATOM     14  C   UNL     1      -2.816  16.970   6.329  0.00  0.00    +0.000 C 
BRANCH  14  15
ATOM     15  C   UNL     1      -2.274  17.211   4.918  0.00  0.00    +0.000 C 
ATOM     16  C   UNL     1      -1.847  17.402   3.812  0.00  0.00    +0.000 C 
BRANCH  16  17
ATOM     17  N   UNL     1      -1.362  17.618   2.574  0.00  0.00    +0.000 N 
ATOM     18  C   UNL     1      -1.920  18.229   1.476  0.00  0.00    +0.000 C 
ATOM     19  O   UNL     1      -3.015  18.745   1.337  0.00  0.00    +0.000 OA
ATOM     20  C   UNL     1      -1.121  18.321   0.200  0.00  0.00    +0.000 C 
BRANCH  17  21
ATOM     21  O   UNL     1      -0.049  17.087   2.486  0.00  0.00    +0.000 OA
ATOM     22  H   UNL     1       0.008  16.505   3.272  0.00  0.00    +0.000 HD
ENDBRANCH  17  21
ENDBRANCH  16  17
ENDBRANCH  14  15
ENDBRANCH  13  14
ENDBRANCH  10  12
ENDBRANCH   7   8
ENDBRANCH   4   6
BRANCH   3  23
ATOM     23  O   UNL     1      -6.812  17.493  13.892  0.00  0.00    +0.000 OA
ATOM     24  H   UNL     1      -6.565  18.333  14.321  0.00  0.00    +0.000 HD
ENDBRANCH   3  23
ENDBRANCH   2   3
BRANCH   1  25
ATOM     25  C   UNL     1      -9.245  17.171  17.943  0.00  0.00    +0.000 C 
ATOM     26  C   UNL     1     -10.044  17.364  18.817  0.00  0.00    +0.000 C 
BRANCH  26  27
ATOM     27  C   UNL     1     -11.070  17.620  19.926  0.00  0.00    +0.000 C 
BRANCH  27  28
ATOM     28  N   UNL     1     -11.986  17.853  20.891  0.00  0.00    +0.000 N 
ATOM     29  C   UNL     1     -13.107  18.647  20.847  0.00  0.00    +0.000 C 
ATOM     30  O   UNL     1     -13.480  19.306  19.887  0.00  0.00    +0.000 OA
ATOM     31  H   UNL     1     -11.812  17.361  21.758  0.00  0.00    +0.000 HD
BRANCH  29  32
ATOM     32  C   UNL     1     -13.887  18.678  22.061  0.00  0.00    +0.000 C 
ATOM     33  C   UNL     1     -14.517  18.702  23.084  0.00  0.00    +0.000 C 
BRANCH  33  34
ATOM     34  C   UNL     1     -15.258  18.741  24.328  0.00  0.00    +0.000 C 
ATOM     35  O   UNL     1     -16.481  18.667  24.264  0.00  0.00    +0.000 OA
ATOM     36  N   UNL     1     -14.533  18.898  25.497  0.00  0.00    +0.000 N 
BRANCH  36  37
ATOM     37  C   UNL     1     -14.920  18.827  26.788  0.00  0.00    +0.000 C 
ATOM     38  C   UNL     1     -15.267  18.764  27.935  0.00  0.00    +0.000 C 
BRANCH  38  39
ATOM     39  C   UNL     1     -15.715  18.690  29.398  0.00  0.00    +0.000 C 
ATOM     40  C   UNL     1     -16.071  18.630  30.543  0.00  0.00    +0.000 C 
BRANCH  40  41
ATOM     41  C   UNL     1     -16.528  18.551  32.002  0.00  0.00    +0.000 C 
BRANCH  41  42
ATOM     42  N   UNL     1     -16.961  18.476  33.387  0.00  0.00    +0.000 NA
ATOM     43  H   UNL     1     -17.967  18.624  33.454  0.00  0.00    +0.000 HD
ATOM     44  H   UNL     1     -16.787  17.546  33.765  0.00  0.00    +0.000 HD
ENDBRANCH  41  42
ENDBRANCH  40  41
ENDBRANCH  38  39
ENDBRANCH  36  37
BRANCH  36  45
ATOM     45  O   UNL     1     -13.129  18.757  25.419  0.00  0.00    +0.000 OA
ATOM     46  H   UNL     1     -13.014  18.486  24.489  0.00  0.00    +0.000 HD
ENDBRANCH  36  45
ENDBRANCH  33  34
ENDBRANCH  29  32
ENDBRANCH  27  28
ENDBRANCH  26  27
ENDBRANCH   1  25
TORSDOF 19
ENDMDL
MODEL 4
REMARK VINA RESULT:      -4.0      2.414      2.647
REMARK  Name = Deferoxamine.pdbqt.pdb
REMARK  19 active torsions:
REMARK  status: ('A' for Active; 'I' for Inactive)
REMARK    1  A    between atoms: C_1  and  C_2
REMARK    2  A    between atoms: C_3  and  C_4
REMARK    3  A    between atoms: C_4  and  N_5
REMARK    4  A    between atoms: C_6  and  C_9
REMARK    5  A    between atoms: C_10  and  C_11
REMARK    6  A    between atoms: N_13  and  O_14
REMARK    7  A    between atoms: N_13  and  C_16
REMARK    8  A    between atoms: C_17  and  C_18
REMARK    9  A    between atoms: C_19  and  C_20
REMARK   10  A    between atoms: C_20  and  N_21
REMARK   11  A    between atoms: C_24  and  N_25
REMARK   12  A    between atoms: N_25  and  O_28
REMARK   13  A    between atoms: C_26  and  C_30
REMARK   14  A    between atoms: C_31  and  C_32
REMARK   15  A    between atoms: N_34  and  C_36
REMARK   16  A    between atoms: C_37  and  C_38
REMARK   17  A    between atoms: C_38  and  C_39
REMARK   18  A    between atoms: C_40  and  N_41
REMARK   19  A    between atoms: N_41  and  O_45
REMARK                            x       y       z     vdW  Elec       q    Type
REMARK                         _______ _______ _______ _____ _____    ______ ____
ROOT
ATOM      1  C   UNL     1      -9.700  17.517  19.003  0.00  0.00    +0.000 C 
ATOM      2  C   UNL     1     -10.354  17.585  20.009  0.00  0.00    +0.000 C 
ENDROOT
BRANCH   2   3
ATOM      3  N   UNL     1     -11.089  17.663  21.137  0.00  0.00    +0.000 N 
ATOM      4  C   UNL     1     -12.330  18.230  21.369  0.00  0.00    +0.000 C 
ATOM      5  O   UNL     1     -12.934  18.944  20.576  0.00  0.00    +0.000 OA
BRANCH   4   6
ATOM      6  C   UNL     1     -12.944  17.988  22.659  0.00  0.00    +0.000 C 
ATOM      7  C   UNL     1     -13.453  17.801  23.731  0.00  0.00    +0.000 C 
BRANCH   7   8
ATOM      8  C   UNL     1     -14.054  17.596  25.026  0.00  0.00    +0.000 C 
ATOM      9  O   UNL     1     -15.147  18.090  25.257  0.00  0.00    +0.000 OA
ATOM     10  N   UNL     1     -13.311  16.837  25.902  0.00  0.00    +0.000 N 
ATOM     11  H   UNL     1     -12.424  16.495  25.556  0.00  0.00    +0.000 HD
BRANCH  10  12
ATOM     12  C   UNL     1     -13.601  16.476  27.171  0.00  0.00    +0.000 C 
ATOM     13  C   UNL     1     -13.859  16.149  28.296  0.00  0.00    +0.000 C 
BRANCH  13  14
ATOM     14  C   UNL     1     -14.188  15.722  29.730  0.00  0.00    +0.000 C 
BRANCH  14  15
ATOM     15  C   UNL     1     -14.514  15.304  31.167  0.00  0.00    +0.000 C 
ATOM     16  C   UNL     1     -14.767  14.973  32.293  0.00  0.00    +0.000 C 
BRANCH  16  17
ATOM     17  N   UNL     1     -15.046  14.599  33.556  0.00  0.00    +0.000 N 
ATOM     18  C   UNL     1     -14.788  13.430  34.233  0.00  0.00    +0.000 C 
ATOM     19  O   UNL     1     -14.229  12.415  33.859  0.00  0.00    +0.000 OA
ATOM     20  C   UNL     1     -15.232  13.297  35.669  0.00  0.00    +0.000 C 
BRANCH  17  21
ATOM     21  O   UNL     1     -15.723  15.655  34.219  0.00  0.00    +0.000 OA
ATOM     22  H   UNL     1     -15.885  15.288  35.113  0.00  0.00    +0.000 HD
ENDBRANCH  17  21
ENDBRANCH  16  17
ENDBRANCH  14  15
ENDBRANCH  13  14
ENDBRANCH  10  12
ENDBRANCH   7   8
ENDBRANCH   4   6
BRANCH   3  23
ATOM     23  O   UNL     1     -10.629  16.699  22.063  0.00  0.00    +0.000 OA
ATOM     24  H   UNL     1     -10.047  17.237  22.631  0.00  0.00    +0.000 HD
ENDBRANCH   3  23
ENDBRANCH   2   3
BRANCH   1  25
ATOM     25  C   UNL     1      -8.858  17.443  17.727  0.00  0.00    +0.000 C 
ATOM     26  C   UNL     1      -8.187  17.379  16.734  0.00  0.00    +0.000 C 
BRANCH  26  27
ATOM     27  C   UNL     1      -7.320  17.293  15.474  0.00  0.00    +0.000 C 
BRANCH  27  28
ATOM     28  N   UNL     1      -6.541  17.210  14.373  0.00  0.00    +0.000 N 
ATOM     29  C   UNL     1      -5.864  18.209  13.714  0.00  0.00    +0.000 C 
ATOM     30  O   UNL     1      -5.853  19.391  14.026  0.00  0.00    +0.000 OA
ATOM     31  H   UNL     1      -6.448  16.275  13.998  0.00  0.00    +0.000 HD
BRANCH  29  32
ATOM     32  C   UNL     1      -5.112  17.784  12.559  0.00  0.00    +0.000 C 
ATOM     33  C   UNL     1      -4.477  17.411  11.610  0.00  0.00    +0.000 C 
BRANCH  33  34
ATOM     34  C   UNL     1      -3.714  16.940  10.472  0.00  0.00    +0.000 C 
ATOM     35  O   UNL     1      -2.624  16.422  10.693  0.00  0.00    +0.000 OA
ATOM     36  N   UNL     1      -4.254  17.143   9.213  0.00  0.00    +0.000 N 
BRANCH  36  37
ATOM     37  C   UNL     1      -3.857  16.698   8.003  0.00  0.00    +0.000 C 
ATOM     38  C   UNL     1      -3.507  16.305   6.925  0.00  0.00    +0.000 C 
BRANCH  38  39
ATOM     39  C   UNL     1      -3.066  15.802   5.547  0.00  0.00    +0.000 C 
ATOM     40  C   UNL     1      -2.722  15.413   4.465  0.00  0.00    +0.000 C 
BRANCH  40  41
ATOM     41  C   UNL     1      -2.284  14.921   3.083  0.00  0.00    +0.000 C 
BRANCH  41  42
ATOM     42  N   UNL     1      -1.868  14.452   1.771  0.00  0.00    +0.000 NA
ATOM     43  H   UNL     1      -0.929  14.059   1.815  0.00  0.00    +0.000 HD
ATOM     44  H   UNL     1      -2.475  13.698   1.454  0.00  0.00    +0.000 HD
ENDBRANCH  41  42
ENDBRANCH  40  41
ENDBRANCH  38  39
ENDBRANCH  36  37
BRANCH  36  45
ATOM     45  O   UNL     1      -5.603  17.560   9.142  0.00  0.00    +0.000 OA
ATOM     46  H   UNL     1      -6.010  16.816   8.662  0.00  0.00    +0.000 HD
ENDBRANCH  36  45
ENDBRANCH  33  34
ENDBRANCH  29  32
ENDBRANCH  27  28
ENDBRANCH  26  27
ENDBRANCH   1  25
TORSDOF 19
ENDMDL
MODEL 5
REMARK VINA RESULT:      -3.8     11.632     19.257
REMARK  Name = Deferoxamine.pdbqt.pdb
REMARK  19 active torsions:
REMARK  status: ('A' for Active; 'I' for Inactive)
REMARK    1  A    between atoms: C_1  and  C_2
REMARK    2  A    between atoms: C_3  and  C_4
REMARK    3  A    between atoms: C_4  and  N_5
REMARK    4  A    between atoms: C_6  and  C_9
REMARK    5  A    between atoms: C_10  and  C_11
REMARK    6  A    between atoms: N_13  and  O_14
REMARK    7  A    between atoms: N_13  and  C_16
REMARK    8  A    between atoms: C_17  and  C_18
REMARK    9  A    between atoms: C_19  and  C_20
REMARK   10  A    between atoms: C_20  and  N_21
REMARK   11  A    between atoms: C_24  and  N_25
REMARK   12  A    between atoms: N_25  and  O_28
REMARK   13  A    between atoms: C_26  and  C_30
REMARK   14  A    between atoms: C_31  and  C_32
REMARK   15  A    between atoms: N_34  and  C_36
REMARK   16  A    between atoms: C_37  and  C_38
REMARK   17  A    between atoms: C_38  and  C_39
REMARK   18  A    between atoms: C_40  and  N_41
REMARK   19  A    between atoms: N_41  and  O_45
REMARK                            x       y       z     vdW  Elec       q    Type
REMARK                         _______ _______ _______ _____ _____    ______ ____
ROOT
ATOM      1  C   UNL     1      -6.931  12.297  17.174  0.00  0.00    +0.000 C 
ATOM      2  C   UNL     1      -6.479  11.200  16.988  0.00  0.00    +0.000 C 
ENDROOT
BRANCH   2   3
ATOM      3  N   UNL     1      -5.972   9.967  16.778  0.00  0.00    +0.000 N 
ATOM      4  C   UNL     1      -5.020   9.251  17.483  0.00  0.00    +0.000 C 
ATOM      5  O   UNL     1      -4.315   9.711  18.375  0.00  0.00    +0.000 OA
BRANCH   4   6
ATOM      6  C   UNL     1      -4.820   7.865  17.114  0.00  0.00    +0.000 C 
ATOM      7  C   UNL     1      -4.662   6.717  16.796  0.00  0.00    +0.000 C 
BRANCH   7   8
ATOM      8  C   UNL     1      -4.494   5.338  16.407  0.00  0.00    +0.000 C 
ATOM      9  O   UNL     1      -3.423   4.789  16.617  0.00  0.00    +0.000 OA
ATOM     10  N   UNL     1      -5.595   4.758  15.817  0.00  0.00    +0.000 N 
ATOM     11  H   UNL     1      -6.411   5.348  15.718  0.00  0.00    +0.000 HD
BRANCH  10  12
ATOM     12  C   UNL     1      -5.745   3.500  15.350  0.00  0.00    +0.000 C 
ATOM     13  C   UNL     1      -5.875   2.380  14.939  0.00  0.00    +0.000 C 
BRANCH  13  14
ATOM     14  C   UNL     1      -6.037   0.946  14.423  0.00  0.00    +0.000 C 
BRANCH  14  15
ATOM     15  C   UNL     1      -6.189  -0.488  13.909  0.00  0.00    +0.000 C 
ATOM     16  C   UNL     1      -6.306  -1.613  13.507  0.00  0.00    +0.000 C 
BRANCH  16  17
ATOM     17  N   UNL     1      -6.432  -2.878  13.060  0.00  0.00    +0.000 N 
ATOM     18  C   UNL     1      -6.781  -3.372  11.826  0.00  0.00    +0.000 C 
ATOM     19  O   UNL     1      -7.069  -2.784  10.798  0.00  0.00    +0.000 OA
ATOM     20  C   UNL     1      -6.843  -4.865  11.621  0.00  0.00    +0.000 C 
BRANCH  17  21
ATOM     21  O   UNL     1      -6.138  -3.779  14.116  0.00  0.00    +0.000 OA
ATOM     22  H   UNL     1      -5.951  -3.184  14.871  0.00  0.00    +0.000 HD
ENDBRANCH  17  21
ENDBRANCH  16  17
ENDBRANCH  14  15
ENDBRANCH  13  14
ENDBRANCH  10  12
ENDBRANCH   7   8
ENDBRANCH   4   6
BRANCH   3  23
ATOM     23  O   UNL     1      -6.842   9.240  15.935  0.00  0.00    +0.000 OA
ATOM     24  H   UNL     1      -7.621   9.827  15.907  0.00  0.00    +0.000 HD
ENDBRANCH   3  23
ENDBRANCH   2   3
BRANCH   1  25
ATOM     25  C   UNL     1      -7.516  13.689  17.424  0.00  0.00    +0.000 C 
ATOM     26  C   UNL     1      -7.987  14.776  17.618  0.00  0.00    +0.000 C 
BRANCH  26  27
ATOM     27  C   UNL     1      -8.602  16.158  17.862  0.00  0.00    +0.000 C 
BRANCH  27  28
ATOM     28  N   UNL     1      -9.127  17.383  18.083  0.00  0.00    +0.000 N 
ATOM     29  C   UNL     1      -9.164  18.473  17.247  0.00  0.00    +0.000 C 
ATOM     30  O   UNL     1      -8.708  18.521  16.114  0.00  0.00    +0.000 OA
ATOM     31  H   UNL     1      -9.555  17.494  18.994  0.00  0.00    +0.000 HD
BRANCH  29  32
ATOM     32  C   UNL     1      -9.809  19.644  17.791  0.00  0.00    +0.000 C 
ATOM     33  C   UNL     1     -10.346  20.628  18.221  0.00  0.00    +0.000 C 
BRANCH  33  34
ATOM     34  C   UNL     1     -11.005  21.818  18.720  0.00  0.00    +0.000 C 
ATOM     35  O   UNL     1     -10.568  22.320  19.751  0.00  0.00    +0.000 OA
ATOM     36  N   UNL     1     -12.104  22.281  18.017  0.00  0.00    +0.000 N 
BRANCH  36  37
ATOM     37  C   UNL     1     -12.818  23.418  18.150  0.00  0.00    +0.000 C 
ATOM     38  C   UNL     1     -13.452  24.430  18.267  0.00  0.00    +0.000 C 
BRANCH  38  39
ATOM     39  C   UNL     1     -14.254  25.727  18.417  0.00  0.00    +0.000 C 
ATOM     40  C   UNL     1     -14.880  26.744  18.530  0.00  0.00    +0.000 C 
BRANCH  40  41
ATOM     41  C   UNL     1     -15.677  28.044  18.672  0.00  0.00    +0.000 C 
BRANCH  41  42
ATOM     42  N   UNL     1     -16.433  29.278  18.806  0.00  0.00    +0.000 NA
ATOM     43  H   UNL     1     -15.983  29.899  19.478  0.00  0.00    +0.000 HD
ATOM     44  H   UNL     1     -16.448  29.784  17.922  0.00  0.00    +0.000 HD
ENDBRANCH  41  42
ENDBRANCH  40  41
ENDBRANCH  38  39
ENDBRANCH  36  37
BRANCH  36  45
ATOM     45  O   UNL     1     -12.348  21.719  16.744  0.00  0.00    +0.000 OA
ATOM     46  H   UNL     1     -12.846  20.915  16.980  0.00  0.00    +0.000 HD
ENDBRANCH  36  45
ENDBRANCH  33  34
ENDBRANCH  29  32
ENDBRANCH  27  28
ENDBRANCH  26  27
ENDBRANCH   1  25
TORSDOF 19
ENDMDL
MODEL 6
REMARK VINA RESULT:      -3.7      4.302      4.537
REMARK  Name = Deferoxamine.pdbqt.pdb
REMARK  19 active torsions:
REMARK  status: ('A' for Active; 'I' for Inactive)
REMARK    1  A    between atoms: C_1  and  C_2
REMARK    2  A    between atoms: C_3  and  C_4
REMARK    3  A    between atoms: C_4  and  N_5
REMARK    4  A    between atoms: C_6  and  C_9
REMARK    5  A    between atoms: C_10  and  C_11
REMARK    6  A    between atoms: N_13  and  O_14
REMARK    7  A    between atoms: N_13  and  C_16
REMARK    8  A    between atoms: C_17  and  C_18
REMARK    9  A    between atoms: C_19  and  C_20
REMARK   10  A    between atoms: C_20  and  N_21
REMARK   11  A    between atoms: C_24  and  N_25
REMARK   12  A    between atoms: N_25  and  O_28
REMARK   13  A    between atoms: C_26  and  C_30
REMARK   14  A    between atoms: C_31  and  C_32
REMARK   15  A    between atoms: N_34  and  C_36
REMARK   16  A    between atoms: C_37  and  C_38
REMARK   17  A    between atoms: C_38  and  C_39
REMARK   18  A    between atoms: C_40  and  N_41
REMARK   19  A    between atoms: N_41  and  O_45
REMARK                            x       y       z     vdW  Elec       q    Type
REMARK                         _______ _______ _______ _____ _____    ______ ____
ROOT
ATOM      1  C   UNL     1     -10.264  17.894  18.958  0.00  0.00    +0.000 C 
ATOM      2  C   UNL     1     -10.765  17.767  20.042  0.00  0.00    +0.000 C 
ENDROOT
BRANCH   2   3
ATOM      3  N   UNL     1     -11.328  17.626  21.260  0.00  0.00    +0.000 N 
ATOM      4  C   UNL     1     -12.005  18.537  22.052  0.00  0.00    +0.000 C 
ATOM      5  O   UNL     1     -12.066  19.743  21.838  0.00  0.00    +0.000 OA
BRANCH   4   6
ATOM      6  C   UNL     1     -12.660  18.031  23.241  0.00  0.00    +0.000 C 
ATOM      7  C   UNL     1     -13.198  17.622  24.234  0.00  0.00    +0.000 C 
BRANCH   7   8
ATOM      8  C   UNL     1     -13.826  17.139  25.439  0.00  0.00    +0.000 C 
ATOM      9  O   UNL     1     -14.799  17.734  25.880  0.00  0.00    +0.000 OA
ATOM     10  N   UNL     1     -13.249  16.019  25.993  0.00  0.00    +0.000 N 
ATOM     11  H   UNL     1     -12.449  15.640  25.503  0.00  0.00    +0.000 HD
BRANCH  10  12
ATOM     12  C   UNL     1     -13.604  15.340  27.106  0.00  0.00    +0.000 C 
ATOM     13  C   UNL     1     -13.915  14.735  28.094  0.00  0.00    +0.000 C 
BRANCH  13  14
ATOM     14  C   UNL     1     -14.302  13.959  29.357  0.00  0.00    +0.000 C 
BRANCH  14  15
ATOM     15  C   UNL     1     -14.686  13.190  30.624  0.00  0.00    +0.000 C 
ATOM     16  C   UNL     1     -14.985  12.585  31.617  0.00  0.00    +0.000 C 
BRANCH  16  17
ATOM     17  N   UNL     1     -15.315  11.902  32.730  0.00  0.00    +0.000 N 
ATOM     18  C   UNL     1     -15.877  10.659  32.898  0.00  0.00    +0.000 C 
ATOM     19  O   UNL     1     -16.224   9.837  32.069  0.00  0.00    +0.000 OA
ATOM     20  C   UNL     1     -16.138  10.151  34.295  0.00  0.00    +0.000 C 
BRANCH  17  21
ATOM     21  O   UNL     1     -14.993  12.683  33.871  0.00  0.00    +0.000 OA
ATOM     22  H   UNL     1     -15.272  12.112  34.616  0.00  0.00    +0.000 HD
ENDBRANCH  17  21
ENDBRANCH  16  17
ENDBRANCH  14  15
ENDBRANCH  13  14
ENDBRANCH  10  12
ENDBRANCH   7   8
ENDBRANCH   4   6
BRANCH   3  23
ATOM     23  O   UNL     1     -11.532  16.253  21.526  0.00  0.00    +0.000 OA
ATOM     24  H   UNL     1     -12.471  16.146  21.284  0.00  0.00    +0.000 HD
ENDBRANCH   3  23
ENDBRANCH   2   3
BRANCH   1  25
ATOM     25  C   UNL     1      -9.613  18.064  17.583  0.00  0.00    +0.000 C 
ATOM     26  C   UNL     1      -9.097  18.184  16.506  0.00  0.00    +0.000 C 
BRANCH  26  27
ATOM     27  C   UNL     1      -8.431  18.325  15.133  0.00  0.00    +0.000 C 
BRANCH  27  28
ATOM     28  N   UNL     1      -7.844  18.431  13.922  0.00  0.00    +0.000 N 
ATOM     29  C   UNL     1      -6.535  18.721  13.616  0.00  0.00    +0.000 C 
ATOM     30  O   UNL     1      -5.644  18.942  14.423  0.00  0.00    +0.000 OA
ATOM     31  H   UNL     1      -8.466  18.265  13.141  0.00  0.00    +0.000 HD
BRANCH  29  32
ATOM     32  C   UNL     1      -6.225  18.757  12.207  0.00  0.00    +0.000 C 
ATOM     33  C   UNL     1      -5.976  18.764  11.032  0.00  0.00    +0.000 C 
BRANCH  33  34
ATOM     34  C   UNL     1      -5.694  18.760   9.611  0.00  0.00    +0.000 C 
ATOM     35  O   UNL     1      -5.141  17.770   9.144  0.00  0.00    +0.000 OA
ATOM     36  N   UNL     1      -6.036  19.891   8.889  0.00  0.00    +0.000 N 
BRANCH  36  37
ATOM     37  C   UNL     1      -6.030  20.122   7.560  0.00  0.00    +0.000 C 
ATOM     38  C   UNL     1      -6.025  20.331   6.379  0.00  0.00    +0.000 C 
BRANCH  38  39
ATOM     39  C   UNL     1      -6.024  20.602   4.871  0.00  0.00    +0.000 C 
ATOM     40  C   UNL     1      -6.020  20.809   3.689  0.00  0.00    +0.000 C 
BRANCH  40  41
ATOM     41  C   UNL     1      -6.013  21.071   2.180  0.00  0.00    +0.000 C 
BRANCH  41  42
ATOM     42  N   UNL     1      -6.007  21.320   0.748  0.00  0.00    +0.000 NA
ATOM     43  H   UNL     1      -6.320  22.268   0.551  0.00  0.00    +0.000 HD
ATOM     44  H   UNL     1      -5.059  21.254   0.380  0.00  0.00    +0.000 HD
ENDBRANCH  41  42
ENDBRANCH  40  41
ENDBRANCH  38  39
ENDBRANCH  36  37
BRANCH  36  45
ATOM     45  O   UNL     1      -6.851  20.852   9.530  0.00  0.00    +0.000 OA
ATOM     46  H   UNL     1      -6.822  20.545  10.455  0.00  0.00    +0.000 HD
ENDBRANCH  36  45
ENDBRANCH  33  34
ENDBRANCH  29  32
ENDBRANCH  27  28
ENDBRANCH  26  27
ENDBRANCH   1  25
TORSDOF 19
ENDMDL
MODEL 7
REMARK VINA RESULT:      -3.6     19.530     28.792
REMARK  Name = Deferoxamine.pdbqt.pdb
REMARK  19 active torsions:
REMARK  status: ('A' for Active; 'I' for Inactive)
REMARK    1  A    between atoms: C_1  and  C_2
REMARK    2  A    between atoms: C_3  and  C_4
REMARK    3  A    between atoms: C_4  and  N_5
REMARK    4  A    between atoms: C_6  and  C_9
REMARK    5  A    between atoms: C_10  and  C_11
REMARK    6  A    between atoms: N_13  and  O_14
REMARK    7  A    between atoms: N_13  and  C_16
REMARK    8  A    between atoms: C_17  and  C_18
REMARK    9  A    between atoms: C_19  and  C_20
REMARK   10  A    between atoms: C_20  and  N_21
REMARK   11  A    between atoms: C_24  and  N_25
REMARK   12  A    between atoms: N_25  and  O_28
REMARK   13  A    between atoms: C_26  and  C_30
REMARK   14  A    between atoms: C_31  and  C_32
REMARK   15  A    between atoms: N_34  and  C_36
REMARK   16  A    between atoms: C_37  and  C_38
REMARK   17  A    between atoms: C_38  and  C_39
REMARK   18  A    between atoms: C_40  and  N_41
REMARK   19  A    between atoms: N_41  and  O_45
REMARK                            x       y       z     vdW  Elec       q    Type
REMARK                         _______ _______ _______ _____ _____    ______ ____
ROOT
ATOM      1  C   UNL     1     -26.432   6.264  14.717  0.00  0.00    +0.000 C 
ATOM      2  C   UNL     1     -26.350   5.877  13.583  0.00  0.00    +0.000 C 
ENDROOT
BRANCH   2   3
ATOM      3  N   UNL     1     -26.257   5.444  12.308  0.00  0.00    +0.000 N 
ATOM      4  C   UNL     1     -27.205   5.391  11.302  0.00  0.00    +0.000 C 
ATOM      5  O   UNL     1     -28.406   5.589  11.458  0.00  0.00    +0.000 OA
BRANCH   4   6
ATOM      6  C   UNL     1     -26.748   5.043   9.972  0.00  0.00    +0.000 C 
ATOM      7  C   UNL     1     -26.383   4.756   8.864  0.00  0.00    +0.000 C 
BRANCH   7   8
ATOM      8  C   UNL     1     -25.964   4.401   7.530  0.00  0.00    +0.000 C 
ATOM      9  O   UNL     1     -25.835   3.220   7.244  0.00  0.00    +0.000 OA
ATOM     10  N   UNL     1     -25.745   5.464   6.683  0.00  0.00    +0.000 N 
ATOM     11  H   UNL     1     -25.902   6.385   7.072  0.00  0.00    +0.000 HD
BRANCH  10  12
ATOM     12  C   UNL     1     -25.352   5.455   5.391  0.00  0.00    +0.000 C 
ATOM     13  C   UNL     1     -25.004   5.441   4.242  0.00  0.00    +0.000 C 
BRANCH  13  14
ATOM     14  C   UNL     1     -24.564   5.415   2.775  0.00  0.00    +0.000 C 
BRANCH  14  15
ATOM     15  C   UNL     1     -24.133   5.385   1.306  0.00  0.00    +0.000 C 
ATOM     16  C   UNL     1     -23.794   5.359   0.155  0.00  0.00    +0.000 C 
BRANCH  16  17
ATOM     17  N   UNL     1     -23.415   5.323  -1.137  0.00  0.00    +0.000 N 
ATOM     18  C   UNL     1     -24.143   5.430  -2.299  0.00  0.00    +0.000 C 
ATOM     19  O   UNL     1     -25.339   5.590  -2.462  0.00  0.00    +0.000 OA
ATOM     20  C   UNL     1     -23.429   5.346  -3.625  0.00  0.00    +0.000 C 
BRANCH  17  21
ATOM     21  O   UNL     1     -22.010   5.137  -1.208  0.00  0.00    +0.000 OA
ATOM     22  H   UNL     1     -21.657   5.953  -0.796  0.00  0.00    +0.000 HD
ENDBRANCH  17  21
ENDBRANCH  16  17
ENDBRANCH  14  15
ENDBRANCH  13  14
ENDBRANCH  10  12
ENDBRANCH   7   8
ENDBRANCH   4   6
BRANCH   3  23
ATOM     23  O   UNL     1     -24.897   5.402  11.926  0.00  0.00    +0.000 OA
ATOM     24  H   UNL     1     -24.473   5.098  12.750  0.00  0.00    +0.000 HD
ENDBRANCH   3  23
ENDBRANCH   2   3
BRANCH   1  25
ATOM     25  C   UNL     1     -26.548   6.767  16.158  0.00  0.00    +0.000 C 
ATOM     26  C   UNL     1     -26.643   7.174  17.283  0.00  0.00    +0.000 C 
BRANCH  26  27
ATOM     27  C   UNL     1     -26.770   7.706  18.714  0.00  0.00    +0.000 C 
BRANCH  27  28
ATOM     28  N   UNL     1     -26.863   8.177  19.977  0.00  0.00    +0.000 N 
ATOM     29  C   UNL     1     -26.874   7.482  21.162  0.00  0.00    +0.000 C 
ATOM     30  O   UNL     1     -26.799   6.267  21.279  0.00  0.00    +0.000 OA
ATOM     31  H   UNL     1     -26.926   9.185  20.042  0.00  0.00    +0.000 HD
BRANCH  29  32
ATOM     32  C   UNL     1     -26.983   8.292  22.351  0.00  0.00    +0.000 C 
ATOM     33  C   UNL     1     -27.093   8.953  23.348  0.00  0.00    +0.000 C 
BRANCH  33  34
ATOM     34  C   UNL     1     -27.232   9.732  24.561  0.00  0.00    +0.000 C 
ATOM     35  O   UNL     1     -28.130   9.422  25.337  0.00  0.00    +0.000 OA
ATOM     36  N   UNL     1     -26.363  10.796  24.739  0.00  0.00    +0.000 N 
BRANCH  36  37
ATOM     37  C   UNL     1     -26.159  11.595  25.807  0.00  0.00    +0.000 C 
ATOM     38  C   UNL     1     -25.974  12.305  26.757  0.00  0.00    +0.000 C 
BRANCH  38  39
ATOM     39  C   UNL     1     -25.735  13.205  27.973  0.00  0.00    +0.000 C 
ATOM     40  C   UNL     1     -25.545  13.913  28.923  0.00  0.00    +0.000 C 
BRANCH  40  41
ATOM     41  C   UNL     1     -25.300  14.819  30.133  0.00  0.00    +0.000 C 
BRANCH  41  42
ATOM     42  N   UNL     1     -25.068  15.679  31.282  0.00  0.00    +0.000 NA
ATOM     43  H   UNL     1     -24.146  16.109  31.224  0.00  0.00    +0.000 HD
ATOM     44  H   UNL     1     -25.737  16.447  31.291  0.00  0.00    +0.000 HD
ENDBRANCH  41  42
ENDBRANCH  40  41
ENDBRANCH  38  39
ENDBRANCH  36  37
BRANCH  36  45
ATOM     45  O   UNL     1     -25.259  10.890  23.862  0.00  0.00    +0.000 OA
ATOM     46  H   UNL     1     -25.056   9.950  23.705  0.00  0.00    +0.000 HD
ENDBRANCH  36  45
ENDBRANCH  33  34
ENDBRANCH  29  32
ENDBRANCH  27  28
ENDBRANCH  26  27
ENDBRANCH   1  25
TORSDOF 19
ENDMDL
MODEL 8
REMARK VINA RESULT:      -3.4      8.980     20.307
REMARK  Name = Deferoxamine.pdbqt.pdb
REMARK  19 active torsions:
REMARK  status: ('A' for Active; 'I' for Inactive)
REMARK    1  A    between atoms: C_1  and  C_2
REMARK    2  A    between atoms: C_3  and  C_4
REMARK    3  A    between atoms: C_4  and  N_5
REMARK    4  A    between atoms: C_6  and  C_9
REMARK    5  A    between atoms: C_10  and  C_11
REMARK    6  A    between atoms: N_13  and  O_14
REMARK    7  A    between atoms: N_13  and  C_16
REMARK    8  A    between atoms: C_17  and  C_18
REMARK    9  A    between atoms: C_19  and  C_20
REMARK   10  A    between atoms: C_20  and  N_21
REMARK   11  A    between atoms: C_24  and  N_25
REMARK   12  A    between atoms: N_25  and  O_28
REMARK   13  A    between atoms: C_26  and  C_30
REMARK   14  A    between atoms: C_31  and  C_32
REMARK   15  A    between atoms: N_34  and  C_36
REMARK   16  A    between atoms: C_37  and  C_38
REMARK   17  A    between atoms: C_38  and  C_39
REMARK   18  A    between atoms: C_40  and  N_41
REMARK   19  A    between atoms: N_41  and  O_45
REMARK                            x       y       z     vdW  Elec       q    Type
REMARK                         _______ _______ _______ _____ _____    ______ ____
ROOT
ATOM      1  C   UNL     1     -11.042  19.541  21.337  0.00  0.00    +0.000 C 
ATOM      2  C   UNL     1     -10.542  18.677  20.669  0.00  0.00    +0.000 C 
ENDROOT
BRANCH   2   3
ATOM      3  N   UNL     1      -9.982  17.708  19.917  0.00  0.00    +0.000 N 
ATOM      4  C   UNL     1      -8.652  17.421  19.659  0.00  0.00    +0.000 C 
ATOM      5  O   UNL     1      -7.709  18.146  19.956  0.00  0.00    +0.000 OA
BRANCH   4   6
ATOM      6  C   UNL     1      -8.360  16.190  18.954  0.00  0.00    +0.000 C 
ATOM      7  C   UNL     1      -8.104  15.168  18.376  0.00  0.00    +0.000 C 
BRANCH   7   8
ATOM      8  C   UNL     1      -7.775  13.948  17.682  0.00  0.00    +0.000 C 
ATOM      9  O   UNL     1      -8.023  13.859  16.488  0.00  0.00    +0.000 OA
ATOM     10  N   UNL     1      -7.195  12.970  18.458  0.00  0.00    +0.000 N 
ATOM     11  H   UNL     1      -7.051  13.200  19.433  0.00  0.00    +0.000 HD
BRANCH  10  12
ATOM     12  C   UNL     1      -6.780  11.735  18.101  0.00  0.00    +0.000 C 
ATOM     13  C   UNL     1      -6.415  10.638  17.780  0.00  0.00    +0.000 C 
BRANCH  13  14
ATOM     14  C   UNL     1      -5.955   9.238  17.362  0.00  0.00    +0.000 C 
BRANCH  14  15
ATOM     15  C   UNL     1      -5.498   7.840  16.935  0.00  0.00    +0.000 C 
ATOM     16  C   UNL     1      -5.142   6.743  16.603  0.00  0.00    +0.000 C 
BRANCH  16  17
ATOM     17  N   UNL     1      -4.749   5.509  16.231  0.00  0.00    +0.000 N 
ATOM     18  C   UNL     1      -5.046   4.760  15.117  0.00  0.00    +0.000 C 
ATOM     19  O   UNL     1      -5.752   5.025  14.160  0.00  0.00    +0.000 OA
ATOM     20  C   UNL     1      -4.448   3.383  14.974  0.00  0.00    +0.000 C 
BRANCH  17  21
ATOM     21  O   UNL     1      -3.887   4.973  17.223  0.00  0.00    +0.000 OA
ATOM     22  H   UNL     1      -3.794   4.036  16.953  0.00  0.00    +0.000 HD
ENDBRANCH  17  21
ENDBRANCH  16  17
ENDBRANCH  14  15
ENDBRANCH  13  14
ENDBRANCH  10  12
ENDBRANCH   7   8
ENDBRANCH   4   6
BRANCH   3  23
ATOM     23  O   UNL     1     -10.924  16.676  19.703  0.00  0.00    +0.000 OA
ATOM     24  H   UNL     1     -10.566  15.966  20.268  0.00  0.00    +0.000 HD
ENDBRANCH   3  23
ENDBRANCH   2   3
BRANCH   1  25
ATOM     25  C   UNL     1     -11.692  20.642  22.179  0.00  0.00    +0.000 C 
ATOM     26  C   UNL     1     -12.209  21.495  22.846  0.00  0.00    +0.000 C 
BRANCH  26  27
ATOM     27  C   UNL     1     -12.878  22.575  23.703  0.00  0.00    +0.000 C 
BRANCH  27  28
ATOM     28  N   UNL     1     -13.481  23.528  24.446  0.00  0.00    +0.000 N 
ATOM     29  C   UNL     1     -12.918  24.446  25.300  0.00  0.00    +0.000 C 
ATOM     30  O   UNL     1     -11.725  24.561  25.541  0.00  0.00    +0.000 OA
ATOM     31  H   UNL     1     -14.488  23.562  24.344  0.00  0.00    +0.000 HD
BRANCH  29  32
ATOM     32  C   UNL     1     -13.849  25.338  25.948  0.00  0.00    +0.000 C 
ATOM     33  C   UNL     1     -14.607  26.091  26.498  0.00  0.00    +0.000 C 
BRANCH  33  34
ATOM     34  C   UNL     1     -15.504  27.014  27.161  0.00  0.00    +0.000 C 
ATOM     35  O   UNL     1     -16.444  26.541  27.792  0.00  0.00    +0.000 OA
ATOM     36  N   UNL     1     -15.256  28.368  27.004  0.00  0.00    +0.000 N 
BRANCH  36  37
ATOM     37  C   UNL     1     -15.816  29.440  27.602  0.00  0.00    +0.000 C 
ATOM     38  C   UNL     1     -16.317  30.392  28.134  0.00  0.00    +0.000 C 
BRANCH  38  39
ATOM     39  C   UNL     1     -16.963  31.606  28.809  0.00  0.00    +0.000 C 
ATOM     40  C   UNL     1     -17.463  32.560  29.339  0.00  0.00    +0.000 C 
BRANCH  40  41
ATOM     41  C   UNL     1     -18.098  33.778  30.015  0.00  0.00    +0.000 C 
BRANCH  41  42
ATOM     42  N   UNL     1     -18.700  34.934  30.658  0.00  0.00    +0.000 NA
ATOM     43  H   UNL     1     -18.189  35.781  30.416  0.00  0.00    +0.000 HD
ATOM     44  H   UNL     1     -19.652  35.073  30.320  0.00  0.00    +0.000 HD
ENDBRANCH  41  42
ENDBRANCH  40  41
ENDBRANCH  38  39
ENDBRANCH  36  37
BRANCH  36  45
ATOM     45  O   UNL     1     -14.021  28.742  26.428  0.00  0.00    +0.000 OA
ATOM     46  H   UNL     1     -13.897  28.040  25.764  0.00  0.00    +0.000 HD
ENDBRANCH  36  45
ENDBRANCH  33  34
ENDBRANCH  29  32
ENDBRANCH  27  28
ENDBRANCH  26  27
ENDBRANCH   1  25
TORSDOF 19
ENDMDL
MODEL 9
REMARK VINA RESULT:      -3.4      3.920      4.229
REMARK  Name = Deferoxamine.pdbqt.pdb
REMARK  19 active torsions:
REMARK  status: ('A' for Active; 'I' for Inactive)
REMARK    1  A    between atoms: C_1  and  C_2
REMARK    2  A    between atoms: C_3  and  C_4
REMARK    3  A    between atoms: C_4  and  N_5
REMARK    4  A    between atoms: C_6  and  C_9
REMARK    5  A    between atoms: C_10  and  C_11
REMARK    6  A    between atoms: N_13  and  O_14
REMARK    7  A    between atoms: N_13  and  C_16
REMARK    8  A    between atoms: C_17  and  C_18
REMARK    9  A    between atoms: C_19  and  C_20
REMARK   10  A    between atoms: C_20  and  N_21
REMARK   11  A    between atoms: C_24  and  N_25
REMARK   12  A    between atoms: N_25  and  O_28
REMARK   13  A    between atoms: C_26  and  C_30
REMARK   14  A    between atoms: C_31  and  C_32
REMARK   15  A    between atoms: N_34  and  C_36
REMARK   16  A    between atoms: C_37  and  C_38
REMARK   17  A    between atoms: C_38  and  C_39
REMARK   18  A    between atoms: C_40  and  N_41
REMARK   19  A    between atoms: N_41  and  O_45
REMARK                            x       y       z     vdW  Elec       q    Type
REMARK                         _______ _______ _______ _____ _____    ______ ____
ROOT
ATOM      1  C   UNL     1      -9.395  17.827  17.963  0.00  0.00    +0.000 C 
ATOM      2  C   UNL     1      -9.748  17.425  19.039  0.00  0.00    +0.000 C 
ENDROOT
BRANCH   2   3
ATOM      3  N   UNL     1     -10.146  16.974  20.247  0.00  0.00    +0.000 N 
ATOM      4  C   UNL     1      -9.517  17.021  21.479  0.00  0.00    +0.000 C 
ATOM      5  O   UNL     1      -8.350  17.354  21.658  0.00  0.00    +0.000 OA
BRANCH   4   6
ATOM      6  C   UNL     1     -10.287  16.613  22.636  0.00  0.00    +0.000 C 
ATOM      7  C   UNL     1     -10.933  16.266  23.588  0.00  0.00    +0.000 C 
BRANCH   7   8
ATOM      8  C   UNL     1     -11.728  15.850  24.716  0.00  0.00    +0.000 C 
ATOM      9  O   UNL     1     -12.427  14.852  24.614  0.00  0.00    +0.000 OA
ATOM     10  N   UNL     1     -11.619  16.644  25.836  0.00  0.00    +0.000 N 
ATOM     11  H   UNL     1     -10.992  17.435  25.762  0.00  0.00    +0.000 HD
BRANCH  10  12
ATOM     12  C   UNL     1     -12.230  16.515  27.033  0.00  0.00    +0.000 C 
ATOM     13  C   UNL     1     -12.772  16.395  28.097  0.00  0.00    +0.000 C 
BRANCH  13  14
ATOM     14  C   UNL     1     -13.463  16.233  29.454  0.00  0.00    +0.000 C 
BRANCH  14  15
ATOM     15  C   UNL     1     -14.161  16.070  30.807  0.00  0.00    +0.000 C 
ATOM     16  C   UNL     1     -14.708  15.940  31.868  0.00  0.00    +0.000 C 
BRANCH  16  17
ATOM     17  N   UNL     1     -15.316  15.789  33.061  0.00  0.00    +0.000 N 
ATOM     18  C   UNL     1     -15.937  14.703  33.631  0.00  0.00    +0.000 C 
ATOM     19  O   UNL     1     -16.096  13.575  33.198  0.00  0.00    +0.000 OA
ATOM     20  C   UNL     1     -16.543  14.838  35.005  0.00  0.00    +0.000 C 
BRANCH  17  21
ATOM     21  O   UNL     1     -15.258  17.014  33.775  0.00  0.00    +0.000 OA
ATOM     22  H   UNL     1     -15.584  16.768  34.665  0.00  0.00    +0.000 HD
ENDBRANCH  17  21
ENDBRANCH  16  17
ENDBRANCH  14  15
ENDBRANCH  13  14
ENDBRANCH  10  12
ENDBRANCH   7   8
ENDBRANCH   4   6
BRANCH   3  23
ATOM     23  O   UNL     1     -11.545  16.776  20.235  0.00  0.00    +0.000 OA
ATOM     24  H   UNL     1     -11.797  17.224  19.407  0.00  0.00    +0.000 HD
ENDBRANCH   3  23
ENDBRANCH   2   3
BRANCH   1  25
ATOM     25  C   UNL     1      -8.940  18.354  16.599  0.00  0.00    +0.000 C 
ATOM     26  C   UNL     1      -8.597  18.769  15.528  0.00  0.00    +0.000 C 
BRANCH  26  27
ATOM     27  C   UNL     1      -8.172  19.302  14.155  0.00  0.00    +0.000 C 
BRANCH  27  28
ATOM     28  N   UNL     1      -7.792  19.756  12.941  0.00  0.00    +0.000 N 
ATOM     29  C   UNL     1      -6.567  20.231  12.538  0.00  0.00    +0.000 C 
ATOM     30  O   UNL     1      -5.571  20.328  13.241  0.00  0.00    +0.000 OA
ATOM     31  H   UNL     1      -8.521  19.729  12.239  0.00  0.00    +0.000 HD
BRANCH  29  32
ATOM     32  C   UNL     1      -6.488  20.639  11.157  0.00  0.00    +0.000 C 
ATOM     33  C   UNL     1      -6.414  20.999  10.013  0.00  0.00    +0.000 C 
BRANCH  33  34
ATOM     34  C   UNL     1      -6.307  21.448   8.640  0.00  0.00    +0.000 C 
ATOM     35  O   UNL     1      -6.183  22.652   8.442  0.00  0.00    +0.000 OA
ATOM     36  N   UNL     1      -6.392  20.487   7.647  0.00  0.00    +0.000 N 
BRANCH  36  37
ATOM     37  C   UNL     1      -6.188  20.576   6.316  0.00  0.00    +0.000 C 
ATOM     38  C   UNL     1      -6.010  20.654   5.132  0.00  0.00    +0.000 C 
BRANCH  38  39
ATOM     39  C   UNL     1      -5.782  20.746   3.620  0.00  0.00    +0.000 C 
ATOM     40  C   UNL     1      -5.607  20.823   2.435  0.00  0.00    +0.000 C 
BRANCH  40  41
ATOM     41  C   UNL     1      -5.384  20.925   0.924  0.00  0.00    +0.000 C 
BRANCH  41  42
ATOM     42  N   UNL     1      -5.172  21.022  -0.511  0.00  0.00    +0.000 NA
ATOM     43  H   UNL     1      -5.681  20.285  -0.996  0.00  0.00    +0.000 HD
ATOM     44  H   UNL     1      -5.543  21.901  -0.867  0.00  0.00    +0.000 HD
ENDBRANCH  41  42
ENDBRANCH  40  41
ENDBRANCH  38  39
ENDBRANCH  36  37
BRANCH  36  45
ATOM     45  O   UNL     1      -6.323  19.132   8.043  0.00  0.00    +0.000 OA
ATOM     46  H   UNL     1      -7.256  18.859   7.962  0.00  0.00    +0.000 HD
ENDBRANCH  36  45
ENDBRANCH  33  34
ENDBRANCH  29  32
ENDBRANCH  27  28
ENDBRANCH  26  27
ENDBRANCH   1  25
TORSDOF 19
ENDMDL
