MODEL 1
REMARK VINA RESULT:      -6.1      0.000      0.000
REMARK  Name = 
REMARK  25 active torsions:
REMARK  status: ('A' for Active; 'I' for Inactive)
REMARK    1  A    between atoms: O_2  and  C_17
REMARK    2  A    between atoms: O_2  and  C_36
REMARK    3  A    between atoms: O_3  and  C_20
REMARK    4  A    between atoms: O_3  and  C_37
REMARK    5  A    between atoms: O_4  and  C_21
REMARK    6  A    between atoms: O_5  and  C_22
REMARK    7  A    between atoms: O_7  and  C_30
REMARK    8  A    between atoms: O_8  and  C_31
REMARK    9  A    between atoms: O_8  and  C_39
REMARK   10  A    between atoms: O_12  and  C_41
REMARK   11  A    between atoms: O_13  and  C_51
REMARK   12  A    between atoms: O_13  and  C_55
REMARK   13  A    between atoms: N_15  and  C_44
REMARK   14  A    between atoms: C_18  and  C_29
REMARK   15  A    between atoms: C_24  and  C_33
REMARK   16  A    between atoms: C_24  and  C_34
REMARK   17  A    between atoms: C_32  and  C_35
REMARK   18  A    between atoms: C_36  and  C_38
REMARK   19  A    between atoms: C_37  and  C_40
REMARK   20  A    between atoms: C_39  and  C_41
REMARK   21  A    between atoms: C_41  and  C_44
REMARK   22  A    between atoms: C_44  and  C_48
REMARK   23  A    between atoms: C_55  and  C_56
REMARK   24  A    between atoms: C_55  and  C_57
REMARK   25  A    between atoms: C_55  and  C_58
REMARK                            x       y       z     vdW  Elec       q    Type
REMARK                         _______ _______ _______ _____ _____    ______ ____
ROOT
ATOM      1  O   UNL     1     -13.493   5.846  23.242  0.00  0.00    +0.000 OA
ATOM      2  O   UNL     1      -7.806   8.748  21.146  0.00  0.00    +0.000 OA
ATOM      3  C   UNL     1     -11.162   5.937  20.710  0.00  0.00    +0.000 C 
ATOM      4  C   UNL     1     -11.939   5.271  21.883  0.00  0.00    +0.000 C 
ATOM      5  C   UNL     1      -9.684   6.851  21.473  0.00  0.00    +0.000 C 
ATOM      6  C   UNL     1     -12.454   6.604  22.566  0.00  0.00    +0.000 C 
ATOM      7  C   UNL     1     -10.974   4.791  19.252  0.00  0.00    +0.000 C 
ATOM      8  C   UNL     1     -10.199   4.705  17.526  0.00  0.00    +0.000 C 
ATOM      9  C   UNL     1     -10.356   7.922  22.429  0.00  0.00    +0.000 C 
ATOM     10  C   UNL     1     -11.443   7.364  23.398  0.00  0.00    +0.000 C 
ATOM     11  C   UNL     1      -9.016   5.803  16.787  0.00  0.00    +0.000 C 
ATOM     12  C   UNL     1     -13.482   4.966  22.049  0.00  0.00    +0.000 C 
ATOM     13  C   UNL     1      -8.286   7.741  20.580  0.00  0.00    +0.000 C 
ATOM     14  C   UNL     1      -9.367   3.341  17.504  0.00  0.00    +0.000 C 
ATOM     15  C   UNL     1      -7.728   5.994  17.717  0.00  0.00    +0.000 C 
ATOM     16  C   UNL     1      -8.860   5.937  22.473  0.00  0.00    +0.000 C 
ATOM     17  C   UNL     1      -7.473   7.311  18.897  0.00  0.00    +0.000 C 
ATOM     18  C   UNL     1      -7.801   3.415  17.811  0.00  0.00    +0.000 C 
ATOM     19  C   UNL     1      -7.075   4.803  17.929  0.00  0.00    +0.000 C 
ATOM     20  C   UNL     1      -8.509   5.105  15.427  0.00  0.00    +0.000 C 
ATOM     21  C   UNL     1      -9.516   7.108  16.090  0.00  0.00    +0.000 C 
ATOM     22  C   UNL     1      -5.704   4.731  18.554  0.00  0.00    +0.000 C 
ENDROOT
BRANCH  17  23
ATOM     23  O   UNL     1      -7.210   8.467  18.101  0.00  0.00    +0.000 OA
ATOM     24  H   UNL     1      -7.757   9.173  18.494  0.00  0.00    +0.000 HD
ENDBRANCH  17  23
BRANCH   9  25
ATOM     25  O   UNL     1     -10.991   8.917  21.625  0.00  0.00    +0.000 OA
ATOM     26  H   UNL     1     -10.845   9.774  22.063  0.00  0.00    +0.000 HD
ENDBRANCH   9  25
BRANCH   8  27
ATOM     27  O   UNL     1     -11.316   4.521  16.635  0.00  0.00    +0.000 OA
ATOM     28  H   UNL     1     -12.029   5.134  16.887  0.00  0.00    +0.000 HD
ENDBRANCH   8  27
BRANCH  18  29
ATOM     29  O   UNL     1      -7.564   2.709  19.063  0.00  0.00    +0.000 OA
BRANCH  29  31
ATOM     30  O   UNL     1      -5.975   1.214  19.646  0.00  0.00    +0.000 OA
ATOM     31  C   UNL     1      -6.980   1.486  18.998  0.00  0.00    +0.000 C 
BRANCH  31  32
ATOM     32  C   UNL     1      -7.564   0.540  17.943  0.00  0.00    +0.000 C 
BRANCH  32  33
ATOM     33  O   UNL     1      -8.342  -0.548  18.456  0.00  0.00    +0.000 OA
ATOM     34  H   UNL     1      -8.879  -0.871  17.708  0.00  0.00    +0.000 HD
ENDBRANCH  32  33
BRANCH  32  35
ATOM     35  C   UNL     1      -6.407   0.036  17.041  0.00  0.00    +0.000 C 
BRANCH  35  36
ATOM     36  C   UNL     1      -5.645   1.176  16.372  0.00  0.00    +0.000 A 
ATOM     37  C   UNL     1      -4.308   1.418  16.726  0.00  0.00    +0.000 A 
ATOM     38  C   UNL     1      -6.230   1.976  15.375  0.00  0.00    +0.000 A 
ATOM     39  C   UNL     1      -3.584   2.448  16.122  0.00  0.00    +0.000 A 
ATOM     40  C   UNL     1      -5.504   3.005  14.773  0.00  0.00    +0.000 A 
ATOM     41  C   UNL     1      -4.183   3.243  15.148  0.00  0.00    +0.000 A 
ENDBRANCH  35  36
BRANCH  35  43
ATOM     42  O   UNL     1      -5.703  -2.721  16.640  0.00  0.00    +0.000 OA
ATOM     43  N   UNL     1      -6.891  -0.872  16.010  0.00  0.00    +0.000 N 
ATOM     44  C   UNL     1      -6.414  -2.132  15.844  0.00  0.00    +0.000 C 
ATOM     45  H   UNL     1      -7.369  -0.467  15.216  0.00  0.00    +0.000 HD
BRANCH  44  46
ATOM     46  O   UNL     1      -6.879  -2.618  14.674  0.00  0.00    +0.000 OA
BRANCH  46  47
ATOM     47  C   UNL     1      -6.178  -2.358  13.431  0.00  0.00    +0.000 C 
ATOM     48  C   UNL     1      -4.704  -2.020  13.680  0.00  0.00    +0.000 C 
ATOM     49  C   UNL     1      -6.254  -3.682  12.656  0.00  0.00    +0.000 C 
ATOM     50  C   UNL     1      -6.884  -1.270  12.613  0.00  0.00    +0.000 C 
ENDBRANCH  46  47
ENDBRANCH  44  46
ENDBRANCH  35  43
ENDBRANCH  32  35
ENDBRANCH  31  32
ENDBRANCH  29  31
ENDBRANCH  18  29
BRANCH   7  51
ATOM     51  O   UNL     1      -9.807   4.468  19.768  0.00  0.00    +0.000 OA
BRANCH  51  53
ATOM     52  O   UNL     1     -11.406   3.262  19.632  0.00  0.00    +0.000 OA
ATOM     53  C   UNL     1     -10.277   3.223  20.110  0.00  0.00    +0.000 C 
BRANCH  53  54
ATOM     54  C   UNL     1      -9.378   2.027  21.306  0.00  0.00    +0.000 A 
ATOM     55  C   UNL     1      -8.388   2.419  22.311  0.00  0.00    +0.000 A 
ATOM     56  C   UNL     1      -9.626   0.632  21.490  0.00  0.00    +0.000 A 
ATOM     57  C   UNL     1      -7.778   1.589  23.285  0.00  0.00    +0.000 A 
ATOM     58  C   UNL     1      -9.024  -0.218  22.464  0.00  0.00    +0.000 A 
ATOM     59  C   UNL     1      -8.100   0.258  23.362  0.00  0.00    +0.000 A 
ENDBRANCH  53  54
ENDBRANCH  51  53
ENDBRANCH   7  51
BRANCH   4  60
ATOM     60  O   UNL     1     -11.083   4.464  22.725  0.00  0.00    +0.000 OA
BRANCH  60  62
ATOM     61  O   UNL     1     -11.357   4.141  24.922  0.00  0.00    +0.000 OA
ATOM     62  C   UNL     1     -11.521   3.731  23.775  0.00  0.00    +0.000 C 
ATOM     63  C   UNL     1     -12.097   2.373  23.522  0.00  0.00    +0.000 C 
ENDBRANCH  60  62
ENDBRANCH   4  60
TORSDOF 17
ENDMDL
MODEL 2
REMARK VINA RESULT:      -5.8      2.841      8.892
REMARK  Name = 
REMARK  25 active torsions:
REMARK  status: ('A' for Active; 'I' for Inactive)
REMARK    1  A    between atoms: O_2  and  C_17
REMARK    2  A    between atoms: O_2  and  C_36
REMARK    3  A    between atoms: O_3  and  C_20
REMARK    4  A    between atoms: O_3  and  C_37
REMARK    5  A    between atoms: O_4  and  C_21
REMARK    6  A    between atoms: O_5  and  C_22
REMARK    7  A    between atoms: O_7  and  C_30
REMARK    8  A    between atoms: O_8  and  C_31
REMARK    9  A    between atoms: O_8  and  C_39
REMARK   10  A    between atoms: O_12  and  C_41
REMARK   11  A    between atoms: O_13  and  C_51
REMARK   12  A    between atoms: O_13  and  C_55
REMARK   13  A    between atoms: N_15  and  C_44
REMARK   14  A    between atoms: C_18  and  C_29
REMARK   15  A    between atoms: C_24  and  C_33
REMARK   16  A    between atoms: C_24  and  C_34
REMARK   17  A    between atoms: C_32  and  C_35
REMARK   18  A    between atoms: C_36  and  C_38
REMARK   19  A    between atoms: C_37  and  C_40
REMARK   20  A    between atoms: C_39  and  C_41
REMARK   21  A    between atoms: C_41  and  C_44
REMARK   22  A    between atoms: C_44  and  C_48
REMARK   23  A    between atoms: C_55  and  C_56
REMARK   24  A    between atoms: C_55  and  C_57
REMARK   25  A    between atoms: C_55  and  C_58
REMARK                            x       y       z     vdW  Elec       q    Type
REMARK                         _______ _______ _______ _____ _____    ______ ____
ROOT
ATOM      1  O   UNL     1      -3.923   1.507  17.502  0.00  0.00    +0.000 OA
ATOM      2  O   UNL     1      -9.166   4.730  14.804  0.00  0.00    +0.000 OA
ATOM      3  C   UNL     1      -5.925   4.298  17.747  0.00  0.00    +0.000 C 
ATOM      4  C   UNL     1      -5.328   2.947  18.240  0.00  0.00    +0.000 C 
ATOM      5  C   UNL     1      -7.437   3.879  16.679  0.00  0.00    +0.000 C 
ATOM      6  C   UNL     1      -4.835   2.419  16.831  0.00  0.00    +0.000 C 
ATOM      7  C   UNL     1      -5.992   5.573  19.105  0.00  0.00    +0.000 C 
ATOM      8  C   UNL     1      -6.557   7.349  19.442  0.00  0.00    +0.000 C 
ATOM      9  C   UNL     1      -6.833   3.022  15.490  0.00  0.00    +0.000 C 
ATOM     10  C   UNL     1      -5.900   1.848  15.918  0.00  0.00    +0.000 C 
ATOM     11  C   UNL     1      -7.587   8.393  18.441  0.00  0.00    +0.000 C 
ATOM     12  C   UNL     1      -3.834   2.542  18.560  0.00  0.00    +0.000 C 
ATOM     13  C   UNL     1      -8.672   5.067  15.902  0.00  0.00    +0.000 C 
ATOM     14  C   UNL     1      -7.446   7.265  20.766  0.00  0.00    +0.000 C 
ATOM     15  C   UNL     1      -8.967   7.674  18.065  0.00  0.00    +0.000 C 
ATOM     16  C   UNL     1      -8.419   2.861  17.398  0.00  0.00    +0.000 C 
ATOM     17  C   UNL     1      -9.297   6.754  16.571  0.00  0.00    +0.000 C 
ATOM     18  C   UNL     1      -9.032   7.175  20.598  0.00  0.00    +0.000 C 
ATOM     19  C   UNL     1      -9.698   7.365  19.188  0.00  0.00    +0.000 C 
ATOM     20  C   UNL     1      -7.960   9.682  19.331  0.00  0.00    +0.000 C 
ATOM     21  C   UNL     1      -6.943   9.214  17.279  0.00  0.00    +0.000 C 
ATOM     22  C   UNL     1     -11.136   6.915  19.120  0.00  0.00    +0.000 C 
ENDROOT
BRANCH  17  23
ATOM     23  O   UNL     1      -9.404   7.746  15.549  0.00  0.00    +0.000 OA
ATOM     24  H   UNL     1      -9.202   8.589  15.995  0.00  0.00    +0.000 HD
ENDBRANCH  17  23
BRANCH   9  25
ATOM     25  O   UNL     1      -6.058   3.883  14.656  0.00  0.00    +0.000 OA
ATOM     26  H   UNL     1      -5.121   3.699  14.849  0.00  0.00    +0.000 HD
ENDBRANCH   9  25
BRANCH   8  27
ATOM     27  O   UNL     1      -5.351   8.053  19.798  0.00  0.00    +0.000 OA
ATOM     28  H   UNL     1      -5.263   8.065  20.767  0.00  0.00    +0.000 HD
ENDBRANCH   8  27
BRANCH  18  29
ATOM     29  O   UNL     1      -9.453   5.869  21.088  0.00  0.00    +0.000 OA
BRANCH  29  31
ATOM     30  O   UNL     1      -9.579   5.311  23.273  0.00  0.00    +0.000 OA
ATOM     31  C   UNL     1     -10.094   5.819  22.282  0.00  0.00    +0.000 C 
BRANCH  31  32
ATOM     32  C   UNL     1     -11.553   6.287  22.259  0.00  0.00    +0.000 C 
BRANCH  32  33
ATOM     33  O   UNL     1     -11.779   7.622  22.726  0.00  0.00    +0.000 OA
ATOM     34  H   UNL     1     -11.466   8.213  22.015  0.00  0.00    +0.000 HD
ENDBRANCH  32  33
BRANCH  32  35
ATOM     35  C   UNL     1     -12.412   5.257  23.041  0.00  0.00    +0.000 C 
BRANCH  35  36
ATOM     36  C   UNL     1     -12.756   4.027  22.208  0.00  0.00    +0.000 A 
ATOM     37  C   UNL     1     -12.835   4.136  20.810  0.00  0.00    +0.000 A 
ATOM     38  C   UNL     1     -12.964   2.767  22.795  0.00  0.00    +0.000 A 
ATOM     39  C   UNL     1     -13.138   3.022  20.023  0.00  0.00    +0.000 A 
ATOM     40  C   UNL     1     -13.267   1.656  22.005  0.00  0.00    +0.000 A 
ATOM     41  C   UNL     1     -13.357   1.784  20.621  0.00  0.00    +0.000 A 
ENDBRANCH  35  36
BRANCH  35  43
ATOM     42  O   UNL     1     -13.359   5.401  25.750  0.00  0.00    +0.000 OA
ATOM     43  N   UNL     1     -13.648   5.854  23.528  0.00  0.00    +0.000 N 
ATOM     44  C   UNL     1     -14.053   5.776  24.821  0.00  0.00    +0.000 C 
ATOM     45  H   UNL     1     -14.364   6.069  22.847  0.00  0.00    +0.000 HD
BRANCH  44  46
ATOM     46  O   UNL     1     -15.331   6.205  24.898  0.00  0.00    +0.000 OA
BRANCH  46  47
ATOM     47  C   UNL     1     -16.423   5.260  25.037  0.00  0.00    +0.000 C 
ATOM     48  C   UNL     1     -16.893   5.157  26.492  0.00  0.00    +0.000 C 
ATOM     49  C   UNL     1     -17.562   5.855  24.195  0.00  0.00    +0.000 C 
ATOM     50  C   UNL     1     -16.049   3.891  24.458  0.00  0.00    +0.000 C 
ENDBRANCH  46  47
ENDBRANCH  44  46
ENDBRANCH  35  43
ENDBRANCH  32  35
ENDBRANCH  31  32
ENDBRANCH  29  31
ENDBRANCH  18  29
BRANCH   7  51
ATOM     51  O   UNL     1      -7.227   5.165  19.306  0.00  0.00    +0.000 OA
BRANCH  51  53
ATOM     52  O   UNL     1      -5.716   4.971  20.613  0.00  0.00    +0.000 OA
ATOM     53  C   UNL     1      -6.854   4.537  20.470  0.00  0.00    +0.000 C 
BRANCH  53  54
ATOM     54  C   UNL     1      -7.860   3.137  21.305  0.00  0.00    +0.000 A 
ATOM     55  C   UNL     1      -7.605   2.590  22.638  0.00  0.00    +0.000 A 
ATOM     56  C   UNL     1      -9.059   2.525  20.827  0.00  0.00    +0.000 A 
ATOM     57  C   UNL     1      -8.383   1.633  23.337  0.00  0.00    +0.000 A 
ATOM     58  C   UNL     1      -9.855   1.562  21.515  0.00  0.00    +0.000 A 
ATOM     59  C   UNL     1      -9.519   1.115  22.769  0.00  0.00    +0.000 A 
ENDBRANCH  53  54
ENDBRANCH  51  53
ENDBRANCH   7  51
BRANCH   4  60
ATOM     60  O   UNL     1      -6.318   2.106  18.877  0.00  0.00    +0.000 OA
BRANCH  60  62
ATOM     61  O   UNL     1      -5.330   0.960  20.525  0.00  0.00    +0.000 OA
ATOM     62  C   UNL     1      -6.034   0.948  19.517  0.00  0.00    +0.000 C 
ATOM     63  C   UNL     1      -6.488  -0.344  18.916  0.00  0.00    +0.000 C 
ENDBRANCH  60  62
ENDBRANCH   4  60
TORSDOF 17
ENDMDL
MODEL 3
REMARK VINA RESULT:      -5.8      2.532      5.348
REMARK  Name = 
REMARK  25 active torsions:
REMARK  status: ('A' for Active; 'I' for Inactive)
REMARK    1  A    between atoms: O_2  and  C_17
REMARK    2  A    between atoms: O_2  and  C_36
REMARK    3  A    between atoms: O_3  and  C_20
REMARK    4  A    between atoms: O_3  and  C_37
REMARK    5  A    between atoms: O_4  and  C_21
REMARK    6  A    between atoms: O_5  and  C_22
REMARK    7  A    between atoms: O_7  and  C_30
REMARK    8  A    between atoms: O_8  and  C_31
REMARK    9  A    between atoms: O_8  and  C_39
REMARK   10  A    between atoms: O_12  and  C_41
REMARK   11  A    between atoms: O_13  and  C_51
REMARK   12  A    between atoms: O_13  and  C_55
REMARK   13  A    between atoms: N_15  and  C_44
REMARK   14  A    between atoms: C_18  and  C_29
REMARK   15  A    between atoms: C_24  and  C_33
REMARK   16  A    between atoms: C_24  and  C_34
REMARK   17  A    between atoms: C_32  and  C_35
REMARK   18  A    between atoms: C_36  and  C_38
REMARK   19  A    between atoms: C_37  and  C_40
REMARK   20  A    between atoms: C_39  and  C_41
REMARK   21  A    between atoms: C_41  and  C_44
REMARK   22  A    between atoms: C_44  and  C_48
REMARK   23  A    between atoms: C_55  and  C_56
REMARK   24  A    between atoms: C_55  and  C_57
REMARK   25  A    between atoms: C_55  and  C_58
REMARK                            x       y       z     vdW  Elec       q    Type
REMARK                         _______ _______ _______ _____ _____    ______ ____
ROOT
ATOM      1  O   UNL     1     -15.892   5.421  26.608  0.00  0.00    +0.000 OA
ATOM      2  O   UNL     1      -9.305   4.903  27.833  0.00  0.00    +0.000 OA
ATOM      3  C   UNL     1     -12.750   5.940  25.300  0.00  0.00    +0.000 C 
ATOM      4  C   UNL     1     -14.153   5.268  25.366  0.00  0.00    +0.000 C 
ATOM      5  C   UNL     1     -11.604   4.942  26.437  0.00  0.00    +0.000 C 
ATOM      6  C   UNL     1     -14.478   5.630  26.873  0.00  0.00    +0.000 C 
ATOM      7  C   UNL     1     -12.269   6.392  23.557  0.00  0.00    +0.000 C 
ATOM      8  C   UNL     1     -10.844   7.145  22.561  0.00  0.00    +0.000 C 
ATOM      9  C   UNL     1     -12.271   5.089  27.868  0.00  0.00    +0.000 C 
ATOM     10  C   UNL     1     -13.799   4.783  27.928  0.00  0.00    +0.000 C 
ATOM     11  C   UNL     1      -9.175   7.458  23.080  0.00  0.00    +0.000 C 
ATOM     12  C   UNL     1     -15.598   5.896  25.235  0.00  0.00    +0.000 C 
ATOM     13  C   UNL     1      -9.751   5.156  26.692  0.00  0.00    +0.000 C 
ATOM     14  C   UNL     1     -10.578   6.119  21.365  0.00  0.00    +0.000 C 
ATOM     15  C   UNL     1      -8.492   6.148  23.693  0.00  0.00    +0.000 C 
ATOM     16  C   UNL     1     -11.684   3.383  26.158  0.00  0.00    +0.000 C 
ATOM     17  C   UNL     1      -8.423   5.714  25.424  0.00  0.00    +0.000 C 
ATOM     18  C   UNL     1      -9.409   5.047  21.545  0.00  0.00    +0.000 C 
ATOM     19  C   UNL     1      -8.430   5.130  22.770  0.00  0.00    +0.000 C 
ATOM     20  C   UNL     1      -8.337   7.847  21.761  0.00  0.00    +0.000 C 
ATOM     21  C   UNL     1      -8.848   8.782  23.842  0.00  0.00    +0.000 C 
ATOM     22  C   UNL     1      -7.617   3.880  22.997  0.00  0.00    +0.000 C 
ENDROOT
BRANCH  17  23
ATOM     23  O   UNL     1      -7.468   6.614  25.987  0.00  0.00    +0.000 OA
ATOM     24  H   UNL     1      -6.903   6.881  25.238  0.00  0.00    +0.000 HD
ENDBRANCH  17  23
BRANCH   9  25
ATOM     25  O   UNL     1     -12.102   6.436  28.313  0.00  0.00    +0.000 OA
ATOM     26  H   UNL     1     -12.952   6.891  28.173  0.00  0.00    +0.000 HD
ENDBRANCH   9  25
BRANCH   8  27
ATOM     27  O   UNL     1     -11.403   8.334  21.970  0.00  0.00    +0.000 OA
ATOM     28  H   UNL     1     -11.379   9.056  22.623  0.00  0.00    +0.000 HD
ENDBRANCH   8  27
BRANCH  18  29
ATOM     29  O   UNL     1     -10.026   3.727  21.590  0.00  0.00    +0.000 OA
BRANCH  29  31
ATOM     30  O   UNL     1      -9.152   1.833  20.724  0.00  0.00    +0.000 OA
ATOM     31  C   UNL     1      -9.776   2.877  20.563  0.00  0.00    +0.000 C 
BRANCH  31  32
ATOM     32  C   UNL     1     -10.180   3.393  19.177  0.00  0.00    +0.000 C 
BRANCH  32  33
ATOM     33  O   UNL     1     -10.998   2.507  18.406  0.00  0.00    +0.000 OA
ATOM     34  H   UNL     1     -11.021   1.664  18.897  0.00  0.00    +0.000 HD
ENDBRANCH  32  33
BRANCH  32  35
ATOM     35  C   UNL     1      -8.892   3.793  18.408  0.00  0.00    +0.000 C 
BRANCH  35  36
ATOM     36  C   UNL     1      -9.091   5.026  17.534  0.00  0.00    +0.000 A 
ATOM     37  C   UNL     1      -9.469   4.870  16.191  0.00  0.00    +0.000 A 
ATOM     38  C   UNL     1      -8.942   6.329  18.041  0.00  0.00    +0.000 A 
ATOM     39  C   UNL     1      -9.668   5.983  15.370  0.00  0.00    +0.000 A 
ATOM     40  C   UNL     1      -9.141   7.439  17.218  0.00  0.00    +0.000 A 
ATOM     41  C   UNL     1      -9.501   7.266  15.883  0.00  0.00    +0.000 A 
ENDBRANCH  35  36
BRANCH  35  43
ATOM     42  O   UNL     1      -6.394   2.388  18.612  0.00  0.00    +0.000 OA
ATOM     43  N   UNL     1      -8.407   2.701  17.576  0.00  0.00    +0.000 N 
ATOM     44  C   UNL     1      -7.162   2.174  17.689  0.00  0.00    +0.000 C 
ATOM     45  H   UNL     1      -8.886   2.531  16.701  0.00  0.00    +0.000 HD
BRANCH  44  46
ATOM     46  O   UNL     1      -6.938   1.364  16.633  0.00  0.00    +0.000 OA
BRANCH  46  47
ATOM     47  C   UNL     1      -5.922   1.691  15.650  0.00  0.00    +0.000 C 
ATOM     48  C   UNL     1      -6.033   0.795  14.411  0.00  0.00    +0.000 C 
ATOM     49  C   UNL     1      -6.230   3.138  15.238  0.00  0.00    +0.000 C 
ATOM     50  C   UNL     1      -4.519   1.644  16.266  0.00  0.00    +0.000 C 
ENDBRANCH  46  47
ENDBRANCH  44  46
ENDBRANCH  35  43
ENDBRANCH  32  35
ENDBRANCH  31  32
ENDBRANCH  29  31
ENDBRANCH  18  29
BRANCH   7  51
ATOM     51  O   UNL     1     -11.652   5.229  23.519  0.00  0.00    +0.000 OA
BRANCH  51  53
ATOM     52  O   UNL     1     -13.288   5.728  22.467  0.00  0.00    +0.000 OA
ATOM     53  C   UNL     1     -12.589   4.735  22.645  0.00  0.00    +0.000 C 
BRANCH  53  54
ATOM     54  C   UNL     1     -12.779   2.879  22.211  0.00  0.00    +0.000 A 
ATOM     55  C   UNL     1     -13.342   2.353  20.967  0.00  0.00    +0.000 A 
ATOM     56  C   UNL     1     -12.290   1.758  22.951  0.00  0.00    +0.000 A 
ATOM     57  C   UNL     1     -13.404   0.997  20.557  0.00  0.00    +0.000 A 
ATOM     58  C   UNL     1     -12.343   0.390  22.556  0.00  0.00    +0.000 A 
ATOM     59  C   UNL     1     -12.899   0.006  21.360  0.00  0.00    +0.000 A 
ENDBRANCH  53  54
ENDBRANCH  51  53
ENDBRANCH   7  51
BRANCH   4  60
ATOM     60  O   UNL     1     -14.098   3.848  25.094  0.00  0.00    +0.000 OA
BRANCH  60  62
ATOM     61  O   UNL     1     -15.780   3.332  23.712  0.00  0.00    +0.000 OA
ATOM     62  C   UNL     1     -15.172   3.097  24.754  0.00  0.00    +0.000 C 
ATOM     63  C   UNL     1     -15.670   2.065  25.716  0.00  0.00    +0.000 C 
ENDBRANCH  60  62
ENDBRANCH   4  60
TORSDOF 17
ENDMDL
MODEL 4
REMARK VINA RESULT:      -5.7      3.279      9.753
REMARK  Name = 
REMARK  25 active torsions:
REMARK  status: ('A' for Active; 'I' for Inactive)
REMARK    1  A    between atoms: O_2  and  C_17
REMARK    2  A    between atoms: O_2  and  C_36
REMARK    3  A    between atoms: O_3  and  C_20
REMARK    4  A    between atoms: O_3  and  C_37
REMARK    5  A    between atoms: O_4  and  C_21
REMARK    6  A    between atoms: O_5  and  C_22
REMARK    7  A    between atoms: O_7  and  C_30
REMARK    8  A    between atoms: O_8  and  C_31
REMARK    9  A    between atoms: O_8  and  C_39
REMARK   10  A    between atoms: O_12  and  C_41
REMARK   11  A    between atoms: O_13  and  C_51
REMARK   12  A    between atoms: O_13  and  C_55
REMARK   13  A    between atoms: N_15  and  C_44
REMARK   14  A    between atoms: C_18  and  C_29
REMARK   15  A    between atoms: C_24  and  C_33
REMARK   16  A    between atoms: C_24  and  C_34
REMARK   17  A    between atoms: C_32  and  C_35
REMARK   18  A    between atoms: C_36  and  C_38
REMARK   19  A    between atoms: C_37  and  C_40
REMARK   20  A    between atoms: C_39  and  C_41
REMARK   21  A    between atoms: C_41  and  C_44
REMARK   22  A    between atoms: C_44  and  C_48
REMARK   23  A    between atoms: C_55  and  C_56
REMARK   24  A    between atoms: C_55  and  C_57
REMARK   25  A    between atoms: C_55  and  C_58
REMARK                            x       y       z     vdW  Elec       q    Type
REMARK                         _______ _______ _______ _____ _____    ______ ____
ROOT
ATOM      1  O   UNL     1      -9.000   5.461  15.152  0.00  0.00    +0.000 OA
ATOM      2  O   UNL     1      -5.610   1.419  19.314  0.00  0.00    +0.000 OA
ATOM      3  C   UNL     1      -9.303   3.234  17.761  0.00  0.00    +0.000 C 
ATOM      4  C   UNL     1      -9.406   4.634  17.086  0.00  0.00    +0.000 C 
ATOM      5  C   UNL     1      -7.540   3.077  18.443  0.00  0.00    +0.000 C 
ATOM      6  C   UNL     1      -8.412   4.353  15.887  0.00  0.00    +0.000 C 
ATOM      7  C   UNL     1     -10.805   2.840  18.792  0.00  0.00    +0.000 C 
ATOM      8  C   UNL     1     -11.508   1.501  19.933  0.00  0.00    +0.000 C 
ATOM      9  C   UNL     1      -6.625   3.188  17.153  0.00  0.00    +0.000 C 
ATOM     10  C   UNL     1      -6.935   4.395  16.216  0.00  0.00    +0.000 C 
ATOM     11  C   UNL     1     -10.672   0.113  20.658  0.00  0.00    +0.000 C 
ATOM     12  C   UNL     1     -10.262   5.116  15.848  0.00  0.00    +0.000 C 
ATOM     13  C   UNL     1      -6.820   1.683  19.484  0.00  0.00    +0.000 C 
ATOM     14  C   UNL     1     -11.969   2.272  21.254  0.00  0.00    +0.000 C 
ATOM     15  C   UNL     1      -9.358   0.565  21.452  0.00  0.00    +0.000 C 
ATOM     16  C   UNL     1      -7.110   4.339  19.303  0.00  0.00    +0.000 C 
ATOM     17  C   UNL     1      -7.697   0.593  20.798  0.00  0.00    +0.000 C 
ATOM     18  C   UNL     1     -10.965   2.296  22.495  0.00  0.00    +0.000 C 
ATOM     19  C   UNL     1      -9.660   1.422  22.484  0.00  0.00    +0.000 C 
ATOM     20  C   UNL     1     -11.675  -0.527  21.743  0.00  0.00    +0.000 C 
ATOM     21  C   UNL     1     -10.514  -1.202  19.830  0.00  0.00    +0.000 C 
ATOM     22  C   UNL     1      -8.654   1.802  23.541  0.00  0.00    +0.000 C 
ENDROOT
BRANCH  17  23
ATOM     23  O   UNL     1      -7.314  -0.780  20.718  0.00  0.00    +0.000 OA
ATOM     24  H   UNL     1      -7.582  -1.065  19.824  0.00  0.00    +0.000 HD
ENDBRANCH  17  23
BRANCH   9  25
ATOM     25  O   UNL     1      -6.793   2.005  16.371  0.00  0.00    +0.000 OA
ATOM     26  H   UNL     1      -7.432   2.217  15.667  0.00  0.00    +0.000 HD
ENDBRANCH   9  25
BRANCH   8  27
ATOM     27  O   UNL     1     -12.710   1.056  19.273  0.00  0.00    +0.000 OA
ATOM     28  H   UNL     1     -12.909   0.146  19.554  0.00  0.00    +0.000 HD
ENDBRANCH   8  27
BRANCH  18  29
ATOM     29  O   UNL     1     -10.544   3.677  22.694  0.00  0.00    +0.000 OA
BRANCH  29  31
ATOM     30  O   UNL     1     -10.448   4.091  24.912  0.00  0.00    +0.000 OA
ATOM     31  C   UNL     1     -10.961   4.308  23.820  0.00  0.00    +0.000 C 
BRANCH  31  32
ATOM     32  C   UNL     1     -12.213   5.177  23.654  0.00  0.00    +0.000 C 
BRANCH  32  33
ATOM     33  O   UNL     1     -12.131   6.490  24.219  0.00  0.00    +0.000 OA
ATOM     34  H   UNL     1     -12.947   6.612  24.739  0.00  0.00    +0.000 HD
ENDBRANCH  32  33
BRANCH  32  35
ATOM     35  C   UNL     1     -13.431   4.393  24.212  0.00  0.00    +0.000 C 
BRANCH  35  36
ATOM     36  C   UNL     1     -14.668   4.524  23.330  0.00  0.00    +0.000 A 
ATOM     37  C   UNL     1     -15.937   4.612  23.924  0.00  0.00    +0.000 A 
ATOM     38  C   UNL     1     -14.577   4.598  21.929  0.00  0.00    +0.000 A 
ATOM     39  C   UNL     1     -17.086   4.744  23.139  0.00  0.00    +0.000 A 
ATOM     40  C   UNL     1     -15.727   4.729  21.148  0.00  0.00    +0.000 A 
ATOM     41  C   UNL     1     -16.980   4.799  21.752  0.00  0.00    +0.000 A 
ENDBRANCH  35  36
BRANCH  35  43
ATOM     42  O   UNL     1     -12.945   3.013  26.685  0.00  0.00    +0.000 OA
ATOM     43  N   UNL     1     -13.770   4.824  25.561  0.00  0.00    +0.000 N 
ATOM     44  C   UNL     1     -13.591   4.047  26.659  0.00  0.00    +0.000 C 
ATOM     45  H   UNL     1     -14.426   5.588  25.657  0.00  0.00    +0.000 HD
BRANCH  44  46
ATOM     46  O   UNL     1     -14.220   4.625  27.704  0.00  0.00    +0.000 OA
BRANCH  46  47
ATOM     47  C   UNL     1     -15.603   4.305  28.006  0.00  0.00    +0.000 C 
ATOM     48  C   UNL     1     -16.043   3.012  27.311  0.00  0.00    +0.000 C 
ATOM     49  C   UNL     1     -15.628   4.079  29.525  0.00  0.00    +0.000 C 
ATOM     50  C   UNL     1     -16.530   5.479  27.670  0.00  0.00    +0.000 C 
ENDBRANCH  46  47
ENDBRANCH  44  46
ENDBRANCH  35  43
ENDBRANCH  32  35
ENDBRANCH  31  32
ENDBRANCH  29  31
ENDBRANCH  18  29
BRANCH   7  51
ATOM     51  O   UNL     1     -10.123   3.319  19.811  0.00  0.00    +0.000 OA
BRANCH  51  53
ATOM     52  O   UNL     1     -11.766   4.148  19.009  0.00  0.00    +0.000 OA
ATOM     53  C   UNL     1     -10.917   4.439  19.845  0.00  0.00    +0.000 C 
BRANCH  53  54
ATOM     54  C   UNL     1     -10.458   6.053  20.770  0.00  0.00    +0.000 A 
ATOM     55  C   UNL     1      -9.143   6.360  21.335  0.00  0.00    +0.000 A 
ATOM     56  C   UNL     1     -11.261   7.223  20.927  0.00  0.00    +0.000 A 
ATOM     57  C   UNL     1      -8.728   7.578  21.931  0.00  0.00    +0.000 A 
ATOM     58  C   UNL     1     -10.862   8.456  21.523  0.00  0.00    +0.000 A 
ATOM     59  C   UNL     1      -9.596   8.636  22.025  0.00  0.00    +0.000 A 
ENDBRANCH  53  54
ENDBRANCH  51  53
ENDBRANCH   7  51
BRANCH   4  60
ATOM     60  O   UNL     1      -8.988   5.703  17.967  0.00  0.00    +0.000 OA
BRANCH  60  62
ATOM     61  O   UNL     1     -10.392   7.404  17.589  0.00  0.00    +0.000 OA
ATOM     62  C   UNL     1      -9.236   7.015  17.742  0.00  0.00    +0.000 C 
ATOM     63  C   UNL     1      -8.083   7.951  17.567  0.00  0.00    +0.000 C 
ENDBRANCH  60  62
ENDBRANCH   4  60
TORSDOF 17
ENDMDL
MODEL 5
REMARK VINA RESULT:      -5.7      3.146      9.855
REMARK  Name = 
REMARK  25 active torsions:
REMARK  status: ('A' for Active; 'I' for Inactive)
REMARK    1  A    between atoms: O_2  and  C_17
REMARK    2  A    between atoms: O_2  and  C_36
REMARK    3  A    between atoms: O_3  and  C_20
REMARK    4  A    between atoms: O_3  and  C_37
REMARK    5  A    between atoms: O_4  and  C_21
REMARK    6  A    between atoms: O_5  and  C_22
REMARK    7  A    between atoms: O_7  and  C_30
REMARK    8  A    between atoms: O_8  and  C_31
REMARK    9  A    between atoms: O_8  and  C_39
REMARK   10  A    between atoms: O_12  and  C_41
REMARK   11  A    between atoms: O_13  and  C_51
REMARK   12  A    between atoms: O_13  and  C_55
REMARK   13  A    between atoms: N_15  and  C_44
REMARK   14  A    between atoms: C_18  and  C_29
REMARK   15  A    between atoms: C_24  and  C_33
REMARK   16  A    between atoms: C_24  and  C_34
REMARK   17  A    between atoms: C_32  and  C_35
REMARK   18  A    between atoms: C_36  and  C_38
REMARK   19  A    between atoms: C_37  and  C_40
REMARK   20  A    between atoms: C_39  and  C_41
REMARK   21  A    between atoms: C_41  and  C_44
REMARK   22  A    between atoms: C_44  and  C_48
REMARK   23  A    between atoms: C_55  and  C_56
REMARK   24  A    between atoms: C_55  and  C_57
REMARK   25  A    between atoms: C_55  and  C_58
REMARK                            x       y       z     vdW  Elec       q    Type
REMARK                         _______ _______ _______ _____ _____    ______ ____
ROOT
ATOM      1  O   UNL     1      -7.778   4.886  15.027  0.00  0.00    +0.000 OA
ATOM      2  O   UNL     1      -5.488   0.915  19.941  0.00  0.00    +0.000 OA
ATOM      3  C   UNL     1      -8.695   2.952  17.724  0.00  0.00    +0.000 C 
ATOM      4  C   UNL     1      -8.541   4.287  16.937  0.00  0.00    +0.000 C 
ATOM      5  C   UNL     1      -7.074   2.676  18.670  0.00  0.00    +0.000 C 
ATOM      6  C   UNL     1      -7.429   3.795  15.923  0.00  0.00    +0.000 C 
ATOM      7  C   UNL     1     -10.361   2.811  18.548  0.00  0.00    +0.000 C 
ATOM      8  C   UNL     1     -11.365   1.662  19.671  0.00  0.00    +0.000 C 
ATOM      9  C   UNL     1      -5.982   2.574  17.526  0.00  0.00    +0.000 C 
ATOM     10  C   UNL     1      -6.017   3.715  16.463  0.00  0.00    +0.000 C 
ATOM     11  C   UNL     1     -10.804   0.268  20.616  0.00  0.00    +0.000 C 
ATOM     12  C   UNL     1      -9.156   4.738  15.552  0.00  0.00    +0.000 C 
ATOM     13  C   UNL     1      -6.671   1.318  19.910  0.00  0.00    +0.000 C 
ATOM     14  C   UNL     1     -11.914   2.595  20.847  0.00  0.00    +0.000 C 
ATOM     15  C   UNL     1      -9.569   0.653  21.559  0.00  0.00    +0.000 C 
ATOM     16  C   UNL     1      -6.625   3.961  19.486  0.00  0.00    +0.000 C 
ATOM     17  C   UNL     1      -7.841   0.450  21.158  0.00  0.00    +0.000 C 
ATOM     18  C   UNL     1     -11.095   2.630  22.218  0.00  0.00    +0.000 C 
ATOM     19  C   UNL     1      -9.911   1.628  22.467  0.00  0.00    +0.000 C 
ATOM     20  C   UNL     1     -12.015  -0.163  21.587  0.00  0.00    +0.000 C 
ATOM     21  C   UNL     1     -10.685  -1.126  19.923  0.00  0.00    +0.000 C 
ATOM     22  C   UNL     1      -9.024   1.998  23.630  0.00  0.00    +0.000 C 
ENDROOT
BRANCH  17  23
ATOM     23  O   UNL     1      -7.612  -0.957  21.241  0.00  0.00    +0.000 OA
ATOM     24  H   UNL     1      -8.275  -1.283  21.878  0.00  0.00    +0.000 HD
ENDBRANCH  17  23
BRANCH   9  25
ATOM     25  O   UNL     1      -6.175   1.347  16.820  0.00  0.00    +0.000 OA
ATOM     26  H   UNL     1      -5.435   0.761  17.060  0.00  0.00    +0.000 HD
ENDBRANCH   9  25
BRANCH   8  27
ATOM     27  O   UNL     1     -12.507   1.285  18.877  0.00  0.00    +0.000 OA
ATOM     28  H   UNL     1     -13.181   1.985  18.935  0.00  0.00    +0.000 HD
ENDBRANCH   8  27
BRANCH  18  29
ATOM     29  O   UNL     1     -10.550   3.972  22.371  0.00  0.00    +0.000 OA
BRANCH  29  31
ATOM     30  O   UNL     1     -10.500   5.397  24.122  0.00  0.00    +0.000 OA
ATOM     31  C   UNL     1     -11.144   4.797  23.269  0.00  0.00    +0.000 C 
BRANCH  31  32
ATOM     32  C   UNL     1     -12.677   4.792  23.243  0.00  0.00    +0.000 C 
BRANCH  32  33
ATOM     33  O   UNL     1     -13.288   5.981  22.730  0.00  0.00    +0.000 OA
ATOM     34  H   UNL     1     -13.911   5.687  22.039  0.00  0.00    +0.000 HD
ENDBRANCH  32  33
BRANCH  32  35
ATOM     35  C   UNL     1     -13.191   4.458  24.669  0.00  0.00    +0.000 C 
BRANCH  35  36
ATOM     36  C   UNL     1     -12.941   3.005  25.059  0.00  0.00    +0.000 A 
ATOM     37  C   UNL     1     -13.746   1.993  24.512  0.00  0.00    +0.000 A 
ATOM     38  C   UNL     1     -11.898   2.636  25.925  0.00  0.00    +0.000 A 
ATOM     39  C   UNL     1     -13.532   0.653  24.843  0.00  0.00    +0.000 A 
ATOM     40  C   UNL     1     -11.687   1.296  26.255  0.00  0.00    +0.000 A 
ATOM     41  C   UNL     1     -12.506   0.306  25.716  0.00  0.00    +0.000 A 
ENDBRANCH  35  36
BRANCH  35  43
ATOM     42  O   UNL     1     -14.436   6.923  25.465  0.00  0.00    +0.000 OA
ATOM     43  N   UNL     1     -14.613   4.742  24.803  0.00  0.00    +0.000 N 
ATOM     44  C   UNL     1     -15.097   5.912  25.290  0.00  0.00    +0.000 C 
ATOM     45  H   UNL     1     -15.247   3.954  24.823  0.00  0.00    +0.000 HD
BRANCH  44  46
ATOM     46  O   UNL     1     -16.420   5.772  25.516  0.00  0.00    +0.000 OA
BRANCH  46  47
ATOM     47  C   UNL     1     -16.901   5.077  26.695  0.00  0.00    +0.000 C 
ATOM     48  C   UNL     1     -15.930   5.229  27.869  0.00  0.00    +0.000 C 
ATOM     49  C   UNL     1     -18.219   5.782  27.052  0.00  0.00    +0.000 C 
ATOM     50  C   UNL     1     -17.201   3.605  26.387  0.00  0.00    +0.000 C 
ENDBRANCH  46  47
ENDBRANCH  44  46
ENDBRANCH  35  43
ENDBRANCH  32  35
ENDBRANCH  31  32
ENDBRANCH  29  31
ENDBRANCH  18  29
BRANCH   7  51
ATOM     51  O   UNL     1      -9.776   3.309  19.618  0.00  0.00    +0.000 OA
BRANCH  51  53
ATOM     52  O   UNL     1     -11.167   4.232  18.503  0.00  0.00    +0.000 OA
ATOM     53  C   UNL     1     -10.443   4.498  19.456  0.00  0.00    +0.000 C 
BRANCH  53  54
ATOM     54  C   UNL     1      -9.977   6.121  20.361  0.00  0.00    +0.000 A 
ATOM     55  C   UNL     1     -10.894   7.226  20.646  0.00  0.00    +0.000 A 
ATOM     56  C   UNL     1      -8.738   6.436  20.999  0.00  0.00    +0.000 A 
ATOM     57  C   UNL     1     -10.623   8.394  21.403  0.00  0.00    +0.000 A 
ATOM     58  C   UNL     1      -8.447   7.604  21.764  0.00  0.00    +0.000 A 
ATOM     59  C   UNL     1      -9.388   8.584  21.967  0.00  0.00    +0.000 A 
ENDBRANCH  53  54
ENDBRANCH  51  53
ENDBRANCH   7  51
BRANCH   4  60
ATOM     60  O   UNL     1      -8.130   5.384  17.786  0.00  0.00    +0.000 OA
BRANCH  60  62
ATOM     61  O   UNL     1      -6.882   7.136  17.173  0.00  0.00    +0.000 OA
ATOM     62  C   UNL     1      -8.000   6.663  17.366  0.00  0.00    +0.000 C 
ATOM     63  C   UNL     1      -9.222   7.518  17.256  0.00  0.00    +0.000 C 
ENDBRANCH  60  62
ENDBRANCH   4  60
TORSDOF 17
ENDMDL
MODEL 6
REMARK VINA RESULT:      -5.6      1.470      2.152
REMARK  Name = 
REMARK  25 active torsions:
REMARK  status: ('A' for Active; 'I' for Inactive)
REMARK    1  A    between atoms: O_2  and  C_17
REMARK    2  A    between atoms: O_2  and  C_36
REMARK    3  A    between atoms: O_3  and  C_20
REMARK    4  A    between atoms: O_3  and  C_37
REMARK    5  A    between atoms: O_4  and  C_21
REMARK    6  A    between atoms: O_5  and  C_22
REMARK    7  A    between atoms: O_7  and  C_30
REMARK    8  A    between atoms: O_8  and  C_31
REMARK    9  A    between atoms: O_8  and  C_39
REMARK   10  A    between atoms: O_12  and  C_41
REMARK   11  A    between atoms: O_13  and  C_51
REMARK   12  A    between atoms: O_13  and  C_55
REMARK   13  A    between atoms: N_15  and  C_44
REMARK   14  A    between atoms: C_18  and  C_29
REMARK   15  A    between atoms: C_24  and  C_33
REMARK   16  A    between atoms: C_24  and  C_34
REMARK   17  A    between atoms: C_32  and  C_35
REMARK   18  A    between atoms: C_36  and  C_38
REMARK   19  A    between atoms: C_37  and  C_40
REMARK   20  A    between atoms: C_39  and  C_41
REMARK   21  A    between atoms: C_41  and  C_44
REMARK   22  A    between atoms: C_44  and  C_48
REMARK   23  A    between atoms: C_55  and  C_56
REMARK   24  A    between atoms: C_55  and  C_57
REMARK   25  A    between atoms: C_55  and  C_58
REMARK                            x       y       z     vdW  Elec       q    Type
REMARK                         _______ _______ _______ _____ _____    ______ ____
ROOT
ATOM      1  O   UNL     1     -12.226   6.897  23.822  0.00  0.00    +0.000 OA
ATOM      2  O   UNL     1      -7.163   9.563  20.299  0.00  0.00    +0.000 OA
ATOM      3  C   UNL     1     -10.431   6.679  20.892  0.00  0.00    +0.000 C 
ATOM      4  C   UNL     1     -10.943   6.166  22.270  0.00  0.00    +0.000 C 
ATOM      5  C   UNL     1      -8.870   7.704  21.227  0.00  0.00    +0.000 C 
ATOM      6  C   UNL     1     -11.366   7.572  22.864  0.00  0.00    +0.000 C 
ATOM      7  C   UNL     1     -10.485   5.351  19.585  0.00  0.00    +0.000 C 
ATOM      8  C   UNL     1     -10.054   5.046  17.766  0.00  0.00    +0.000 C 
ATOM      9  C   UNL     1      -9.385   8.884  22.151  0.00  0.00    +0.000 C 
ATOM     10  C   UNL     1     -10.244   8.448  23.378  0.00  0.00    +0.000 C 
ATOM     11  C   UNL     1      -9.077   6.050  16.675  0.00  0.00    +0.000 C 
ATOM     12  C   UNL     1     -12.412   5.867  22.773  0.00  0.00    +0.000 C 
ATOM     13  C   UNL     1      -7.704   8.484  19.972  0.00  0.00    +0.000 C 
ATOM     14  C   UNL     1      -9.190   3.701  17.757  0.00  0.00    +0.000 C 
ATOM     15  C   UNL     1      -7.642   6.379  17.303  0.00  0.00    +0.000 C 
ATOM     16  C   UNL     1      -7.835   6.941  22.156  0.00  0.00    +0.000 C 
ATOM     17  C   UNL     1      -7.215   7.844  18.231  0.00  0.00    +0.000 C 
ATOM     18  C   UNL     1      -7.599   3.834  17.739  0.00  0.00    +0.000 C 
ATOM     19  C   UNL     1      -6.917   5.234  17.534  0.00  0.00    +0.000 C 
ATOM     20  C   UNL     1      -8.816   5.183  15.343  0.00  0.00    +0.000 C 
ATOM     21  C   UNL     1      -9.751   7.245  15.928  0.00  0.00    +0.000 C 
ATOM     22  C   UNL     1      -5.449   5.262  17.882  0.00  0.00    +0.000 C 
ENDROOT
BRANCH  17  23
ATOM     23  O   UNL     1      -7.154   8.886  17.257  0.00  0.00    +0.000 OA
ATOM     24  H   UNL     1      -7.854   8.670  16.612  0.00  0.00    +0.000 HD
ENDBRANCH  17  23
BRANCH   9  25
ATOM     25  O   UNL     1     -10.201   9.756  21.366  0.00  0.00    +0.000 OA
ATOM     26  H   UNL     1      -9.845  10.656  21.477  0.00  0.00    +0.000 HD
ENDBRANCH   9  25
BRANCH   8  27
ATOM     27  O   UNL     1     -11.314   4.732  17.142  0.00  0.00    +0.000 OA
ATOM     28  H   UNL     1     -11.531   5.425  16.494  0.00  0.00    +0.000 HD
ENDBRANCH   8  27
BRANCH  18  29
ATOM     29  O   UNL     1      -7.099   3.304  19.000  0.00  0.00    +0.000 OA
BRANCH  29  31
ATOM     30  O   UNL     1      -5.933   1.555  19.826  0.00  0.00    +0.000 OA
ATOM     31  C   UNL     1      -6.778   1.987  19.049  0.00  0.00    +0.000 C 
BRANCH  31  32
ATOM     32  C   UNL     1      -7.421   1.118  17.962  0.00  0.00    +0.000 C 
BRANCH  32  33
ATOM     33  O   UNL     1      -8.357   0.140  18.429  0.00  0.00    +0.000 OA
ATOM     34  H   UNL     1      -9.243   0.512  18.260  0.00  0.00    +0.000 HD
ENDBRANCH  32  33
BRANCH  32  35
ATOM     35  C   UNL     1      -6.290   0.469  17.120  0.00  0.00    +0.000 C 
BRANCH  35  36
ATOM     36  C   UNL     1      -5.400   1.501  16.436  0.00  0.00    +0.000 A 
ATOM     37  C   UNL     1      -5.926   2.295  15.405  0.00  0.00    +0.000 A 
ATOM     38  C   UNL     1      -4.069   1.713  16.832  0.00  0.00    +0.000 A 
ATOM     39  C   UNL     1      -5.136   3.256  14.769  0.00  0.00    +0.000 A 
ATOM     40  C   UNL     1      -3.281   2.673  16.194  0.00  0.00    +0.000 A 
ATOM     41  C   UNL     1      -3.813   3.442  15.161  0.00  0.00    +0.000 A 
ENDBRANCH  35  36
BRANCH  35  43
ATOM     42  O   UNL     1      -5.004  -1.792  15.898  0.00  0.00    +0.000 OA
ATOM     43  N   UNL     1      -6.828  -0.430  16.108  0.00  0.00    +0.000 N 
ATOM     44  C   UNL     1      -6.098  -1.409  15.517  0.00  0.00    +0.000 C 
ATOM     45  H   UNL     1      -7.662  -0.135  15.616  0.00  0.00    +0.000 HD
BRANCH  44  46
ATOM     46  O   UNL     1      -6.795  -1.894  14.468  0.00  0.00    +0.000 OA
BRANCH  46  47
ATOM     47  C   UNL     1      -7.209  -3.285  14.432  0.00  0.00    +0.000 C 
ATOM     48  C   UNL     1      -7.667  -3.767  15.813  0.00  0.00    +0.000 C 
ATOM     49  C   UNL     1      -8.414  -3.308  13.480  0.00  0.00    +0.000 C 
ATOM     50  C   UNL     1      -6.106  -4.177  13.851  0.00  0.00    +0.000 C 
ENDBRANCH  46  47
ENDBRANCH  44  46
ENDBRANCH  35  43
ENDBRANCH  32  35
ENDBRANCH  31  32
ENDBRANCH  29  31
ENDBRANCH  18  29
BRANCH   7  51
ATOM     51  O   UNL     1      -9.229   5.114  19.900  0.00  0.00    +0.000 OA
BRANCH  51  53
ATOM     52  O   UNL     1      -8.581   3.797  21.269  0.00  0.00    +0.000 OA
ATOM     53  C   UNL     1      -9.594   3.994  20.606  0.00  0.00    +0.000 C 
BRANCH  53  54
ATOM     54  C   UNL     1     -11.175   2.971  20.254  0.00  0.00    +0.000 A 
ATOM     55  C   UNL     1     -11.215   1.526  20.026  0.00  0.00    +0.000 A 
ATOM     56  C   UNL     1     -12.529   3.422  20.295  0.00  0.00    +0.000 A 
ATOM     57  C   UNL     1     -12.366   0.712  19.869  0.00  0.00    +0.000 A 
ATOM     58  C   UNL     1     -13.698   2.621  20.139  0.00  0.00    +0.000 A 
ATOM     59  C   UNL     1     -13.619   1.267  19.927  0.00  0.00    +0.000 A 
ENDBRANCH  53  54
ENDBRANCH  51  53
ENDBRANCH   7  51
BRANCH   4  60
ATOM     60  O   UNL     1      -9.911   5.488  23.025  0.00  0.00    +0.000 OA
BRANCH  60  62
ATOM     61  O   UNL     1      -9.892   5.309  25.255  0.00  0.00    +0.000 OA
ATOM     62  C   UNL     1     -10.134   4.794  24.165  0.00  0.00    +0.000 C 
ATOM     63  C   UNL     1     -10.563   3.364  24.072  0.00  0.00    +0.000 C 
ENDBRANCH  60  62
ENDBRANCH   4  60
TORSDOF 17
ENDMDL
MODEL 7
REMARK VINA RESULT:      -5.6     20.680     24.882
REMARK  Name = 
REMARK  25 active torsions:
REMARK  status: ('A' for Active; 'I' for Inactive)
REMARK    1  A    between atoms: O_2  and  C_17
REMARK    2  A    between atoms: O_2  and  C_36
REMARK    3  A    between atoms: O_3  and  C_20
REMARK    4  A    between atoms: O_3  and  C_37
REMARK    5  A    between atoms: O_4  and  C_21
REMARK    6  A    between atoms: O_5  and  C_22
REMARK    7  A    between atoms: O_7  and  C_30
REMARK    8  A    between atoms: O_8  and  C_31
REMARK    9  A    between atoms: O_8  and  C_39
REMARK   10  A    between atoms: O_12  and  C_41
REMARK   11  A    between atoms: O_13  and  C_51
REMARK   12  A    between atoms: O_13  and  C_55
REMARK   13  A    between atoms: N_15  and  C_44
REMARK   14  A    between atoms: C_18  and  C_29
REMARK   15  A    between atoms: C_24  and  C_33
REMARK   16  A    between atoms: C_24  and  C_34
REMARK   17  A    between atoms: C_32  and  C_35
REMARK   18  A    between atoms: C_36  and  C_38
REMARK   19  A    between atoms: C_37  and  C_40
REMARK   20  A    between atoms: C_39  and  C_41
REMARK   21  A    between atoms: C_41  and  C_44
REMARK   22  A    between atoms: C_44  and  C_48
REMARK   23  A    between atoms: C_55  and  C_56
REMARK   24  A    between atoms: C_55  and  C_57
REMARK   25  A    between atoms: C_55  and  C_58
REMARK                            x       y       z     vdW  Elec       q    Type
REMARK                         _______ _______ _______ _____ _____    ______ ____
ROOT
ATOM      1  O   UNL     1     -23.639  14.264  11.642  0.00  0.00    +0.000 OA
ATOM      2  O   UNL     1     -26.798  19.652   9.164  0.00  0.00    +0.000 OA
ATOM      3  C   UNL     1     -25.389  15.491   8.943  0.00  0.00    +0.000 C 
ATOM      4  C   UNL     1     -24.130  14.925   9.664  0.00  0.00    +0.000 C 
ATOM      5  C   UNL     1     -25.374  17.372   9.196  0.00  0.00    +0.000 C 
ATOM      6  C   UNL     1     -24.586  15.249  11.146  0.00  0.00    +0.000 C 
ATOM      7  C   UNL     1     -25.643  14.719   7.265  0.00  0.00    +0.000 C 
ATOM      8  C   UNL     1     -26.784  14.799   5.756  0.00  0.00    +0.000 C 
ATOM      9  C   UNL     1     -25.460  17.540  10.770  0.00  0.00    +0.000 C 
ATOM     10  C   UNL     1     -24.443  16.689  11.591  0.00  0.00    +0.000 C 
ATOM     11  C   UNL     1     -28.001  16.027   5.350  0.00  0.00    +0.000 C 
ATOM     12  C   UNL     1     -23.896  13.534  10.378  0.00  0.00    +0.000 C 
ATOM     13  C   UNL     1     -26.544  18.650   8.462  0.00  0.00    +0.000 C 
ATOM     14  C   UNL     1     -25.810  14.943   4.497  0.00  0.00    +0.000 C 
ATOM     15  C   UNL     1     -27.379  17.502   5.372  0.00  0.00    +0.000 C 
ATOM     16  C   UNL     1     -23.970  18.018   8.839  0.00  0.00    +0.000 C 
ATOM     17  C   UNL     1     -27.416  18.634   6.752  0.00  0.00    +0.000 C 
ATOM     18  C   UNL     1     -25.542  16.409   3.923  0.00  0.00    +0.000 C 
ATOM     19  C   UNL     1     -26.366  17.637   4.452  0.00  0.00    +0.000 C 
ATOM     20  C   UNL     1     -28.472  15.742   3.837  0.00  0.00    +0.000 C 
ATOM     21  C   UNL     1     -29.433  15.914   5.961  0.00  0.00    +0.000 C 
ATOM     22  C   UNL     1     -25.779  18.978   4.086  0.00  0.00    +0.000 C 
ENDROOT
BRANCH  17  23
ATOM     23  O   UNL     1     -28.770  19.081   6.821  0.00  0.00    +0.000 OA
ATOM     24  H   UNL     1     -29.307  18.275   6.698  0.00  0.00    +0.000 HD
ENDBRANCH  17  23
BRANCH   9  25
ATOM     25  O   UNL     1     -26.766  17.151  11.200  0.00  0.00    +0.000 OA
ATOM     26  H   UNL     1     -27.040  17.783  11.888  0.00  0.00    +0.000 HD
ENDBRANCH   9  25
BRANCH   8  27
ATOM     27  O   UNL     1     -27.372  13.485   5.675  0.00  0.00    +0.000 OA
ATOM     28  H   UNL     1     -26.743  12.881   5.243  0.00  0.00    +0.000 HD
ENDBRANCH   8  27
BRANCH  18  29
ATOM     29  O   UNL     1     -24.136  16.719   4.147  0.00  0.00    +0.000 OA
BRANCH  29  31
ATOM     30  O   UNL     1     -23.620  16.068   2.047  0.00  0.00    +0.000 OA
ATOM     31  C   UNL     1     -23.293  16.626   3.088  0.00  0.00    +0.000 C 
BRANCH  31  32
ATOM     32  C   UNL     1     -21.864  17.116   3.348  0.00  0.00    +0.000 C 
BRANCH  32  33
ATOM     33  O   UNL     1     -21.131  16.383   4.336  0.00  0.00    +0.000 OA
ATOM     34  H   UNL     1     -21.141  15.452   4.043  0.00  0.00    +0.000 HD
ENDBRANCH  32  33
BRANCH  32  35
ATOM     35  C   UNL     1     -21.919  18.630   3.687  0.00  0.00    +0.000 C 
BRANCH  35  36
ATOM     36  C   UNL     1     -21.398  19.505   2.553  0.00  0.00    +0.000 A 
ATOM     37  C   UNL     1     -22.084  19.535   1.328  0.00  0.00    +0.000 A 
ATOM     38  C   UNL     1     -20.263  20.321   2.704  0.00  0.00    +0.000 A 
ATOM     39  C   UNL     1     -21.635  20.337   0.276  0.00  0.00    +0.000 A 
ATOM     40  C   UNL     1     -19.816  21.120   1.651  0.00  0.00    +0.000 A 
ATOM     41  C   UNL     1     -20.499  21.126   0.437  0.00  0.00    +0.000 A 
ENDBRANCH  35  36
BRANCH  35  43
ATOM     42  O   UNL     1     -22.902  19.733   6.152  0.00  0.00    +0.000 OA
ATOM     43  N   UNL     1     -21.167  18.933   4.897  0.00  0.00    +0.000 N 
ATOM     44  C   UNL     1     -21.709  19.553   5.975  0.00  0.00    +0.000 C 
ATOM     45  H   UNL     1     -20.158  18.960   4.826  0.00  0.00    +0.000 HD
BRANCH  44  46
ATOM     46  O   UNL     1     -20.713  19.906   6.816  0.00  0.00    +0.000 OA
BRANCH  46  47
ATOM     47  C   UNL     1     -20.183  21.256   6.813  0.00  0.00    +0.000 C 
ATOM     48  C   UNL     1     -21.023  22.184   5.929  0.00  0.00    +0.000 C 
ATOM     49  C   UNL     1     -20.303  21.725   8.271  0.00  0.00    +0.000 C 
ATOM     50  C   UNL     1     -18.703  21.270   6.413  0.00  0.00    +0.000 C 
ENDBRANCH  46  47
ENDBRANCH  44  46
ENDBRANCH  35  43
ENDBRANCH  32  35
ENDBRANCH  31  32
ENDBRANCH  29  31
ENDBRANCH  18  29
BRANCH   7  51
ATOM     51  O   UNL     1     -24.975  15.747   6.788  0.00  0.00    +0.000 OA
BRANCH  51  53
ATOM     52  O   UNL     1     -22.994  15.840   6.478  0.00  0.00    +0.000 OA
ATOM     53  C   UNL     1     -23.849  14.976   6.638  0.00  0.00    +0.000 C 
BRANCH  53  54
ATOM     54  C   UNL     1     -23.873  13.072   6.427  0.00  0.00    +0.000 A 
ATOM     55  C   UNL     1     -24.125  12.361   5.173  0.00  0.00    +0.000 A 
ATOM     56  C   UNL     1     -23.524  12.085   7.400  0.00  0.00    +0.000 A 
ATOM     57  C   UNL     1     -24.047  10.963   4.946  0.00  0.00    +0.000 A 
ATOM     58  C   UNL     1     -23.440  10.677   7.191  0.00  0.00    +0.000 A 
ATOM     59  C   UNL     1     -23.701  10.114   5.966  0.00  0.00    +0.000 A 
ENDBRANCH  53  54
ENDBRANCH  51  53
ENDBRANCH   7  51
BRANCH   4  60
ATOM     60  O   UNL     1     -22.913  15.592   9.256  0.00  0.00    +0.000 OA
BRANCH  60  62
ATOM     61  O   UNL     1     -21.281  14.064   9.180  0.00  0.00    +0.000 OA
ATOM     62  C   UNL     1     -21.669  15.163   9.570  0.00  0.00    +0.000 C 
ATOM     63  C   UNL     1     -20.827  15.989  10.491  0.00  0.00    +0.000 C 
ENDBRANCH  60  62
ENDBRANCH   4  60
TORSDOF 17
ENDMDL
MODEL 8
REMARK VINA RESULT:      -5.6     19.938     24.800
REMARK  Name = 
REMARK  25 active torsions:
REMARK  status: ('A' for Active; 'I' for Inactive)
REMARK    1  A    between atoms: O_2  and  C_17
REMARK    2  A    between atoms: O_2  and  C_36
REMARK    3  A    between atoms: O_3  and  C_20
REMARK    4  A    between atoms: O_3  and  C_37
REMARK    5  A    between atoms: O_4  and  C_21
REMARK    6  A    between atoms: O_5  and  C_22
REMARK    7  A    between atoms: O_7  and  C_30
REMARK    8  A    between atoms: O_8  and  C_31
REMARK    9  A    between atoms: O_8  and  C_39
REMARK   10  A    between atoms: O_12  and  C_41
REMARK   11  A    between atoms: O_13  and  C_51
REMARK   12  A    between atoms: O_13  and  C_55
REMARK   13  A    between atoms: N_15  and  C_44
REMARK   14  A    between atoms: C_18  and  C_29
REMARK   15  A    between atoms: C_24  and  C_33
REMARK   16  A    between atoms: C_24  and  C_34
REMARK   17  A    between atoms: C_32  and  C_35
REMARK   18  A    between atoms: C_36  and  C_38
REMARK   19  A    between atoms: C_37  and  C_40
REMARK   20  A    between atoms: C_39  and  C_41
REMARK   21  A    between atoms: C_41  and  C_44
REMARK   22  A    between atoms: C_44  and  C_48
REMARK   23  A    between atoms: C_55  and  C_56
REMARK   24  A    between atoms: C_55  and  C_57
REMARK   25  A    between atoms: C_55  and  C_58
REMARK                            x       y       z     vdW  Elec       q    Type
REMARK                         _______ _______ _______ _____ _____    ______ ____
ROOT
ATOM      1  O   UNL     1     -22.424  13.171   8.409  0.00  0.00    +0.000 OA
ATOM      2  O   UNL     1     -25.911  17.457   4.584  0.00  0.00    +0.000 OA
ATOM      3  C   UNL     1     -23.004  16.499   7.744  0.00  0.00    +0.000 C 
ATOM      4  C   UNL     1     -23.021  15.217   8.628  0.00  0.00    +0.000 C 
ATOM      5  C   UNL     1     -24.610  16.497   6.733  0.00  0.00    +0.000 C 
ATOM      6  C   UNL     1     -22.891  14.162   7.454  0.00  0.00    +0.000 C 
ATOM      7  C   UNL     1     -22.431  17.998   8.693  0.00  0.00    +0.000 C 
ATOM      8  C   UNL     1     -22.151  19.860   8.491  0.00  0.00    +0.000 C 
ATOM      9  C   UNL     1     -24.509  15.173   5.868  0.00  0.00    +0.000 C 
ATOM     10  C   UNL     1     -24.151  13.880   6.663  0.00  0.00    +0.000 C 
ATOM     11  C   UNL     1     -22.686  20.925   7.175  0.00  0.00    +0.000 C 
ATOM     12  C   UNL     1     -21.833  14.313   9.147  0.00  0.00    +0.000 C 
ATOM     13  C   UNL     1     -25.254  17.837   5.578  0.00  0.00    +0.000 C 
ATOM     14  C   UNL     1     -22.908  20.537   9.725  0.00  0.00    +0.000 C 
ATOM     15  C   UNL     1     -24.261  20.799   6.919  0.00  0.00    +0.000 C 
ATOM     16  C   UNL     1     -25.890  16.245   7.635  0.00  0.00    +0.000 C 
ATOM     17  C   UNL     1     -25.046  19.739   5.716  0.00  0.00    +0.000 C 
ATOM     18  C   UNL     1     -24.383  21.097   9.482  0.00  0.00    +0.000 C 
ATOM     19  C   UNL     1     -24.985  21.159   8.032  0.00  0.00    +0.000 C 
ATOM     20  C   UNL     1     -22.411  22.439   7.651  0.00  0.00    +0.000 C 
ATOM     21  C   UNL     1     -21.822  21.032   5.879  0.00  0.00    +0.000 C 
ATOM     22  C   UNL     1     -26.478  21.374   7.992  0.00  0.00    +0.000 C 
ENDROOT
BRANCH  17  23
ATOM     23  O   UNL     1     -24.776  20.356   4.456  0.00  0.00    +0.000 OA
ATOM     24  H   UNL     1     -23.841  20.148   4.270  0.00  0.00    +0.000 HD
ENDBRANCH  17  23
BRANCH   9  25
ATOM     25  O   UNL     1     -23.489  15.348   4.883  0.00  0.00    +0.000 OA
ATOM     26  H   UNL     1     -23.917  15.265   4.012  0.00  0.00    +0.000 HD
ENDBRANCH   9  25
BRANCH   8  27
ATOM     27  O   UNL     1     -20.740  20.042   8.721  0.00  0.00    +0.000 OA
ATOM     28  H   UNL     1     -20.465  20.901   8.355  0.00  0.00    +0.000 HD
ENDBRANCH   8  27
BRANCH  18  29
ATOM     29  O   UNL     1     -25.297  20.291  10.281  0.00  0.00    +0.000 OA
BRANCH  29  31
ATOM     30  O   UNL     1     -26.330  21.742  11.670  0.00  0.00    +0.000 OA
ATOM     31  C   UNL     1     -25.627  20.749  11.515  0.00  0.00    +0.000 C 
BRANCH  31  32
ATOM     32  C   UNL     1     -24.931  20.040  12.681  0.00  0.00    +0.000 C 
BRANCH  32  33
ATOM     33  O   UNL     1     -25.590  18.866  13.171  0.00  0.00    +0.000 OA
ATOM     34  H   UNL     1     -25.632  18.966  14.141  0.00  0.00    +0.000 HD
ENDBRANCH  32  33
BRANCH  32  35
ATOM     35  C   UNL     1     -24.694  21.075  13.814  0.00  0.00    +0.000 C 
BRANCH  35  36
ATOM     36  C   UNL     1     -23.289  21.666  13.785  0.00  0.00    +0.000 A 
ATOM     37  C   UNL     1     -22.380  21.343  14.806  0.00  0.00    +0.000 A 
ATOM     38  C   UNL     1     -22.855  22.501  12.742  0.00  0.00    +0.000 A 
ATOM     39  C   UNL     1     -21.083  21.862  14.799  0.00  0.00    +0.000 A 
ATOM     40  C   UNL     1     -21.558  23.018  12.737  0.00  0.00    +0.000 A 
ATOM     41  C   UNL     1     -20.674  22.701  13.766  0.00  0.00    +0.000 A 
ENDBRANCH  35  36
BRANCH  35  43
ATOM     42  O   UNL     1     -26.577  21.920  15.813  0.00  0.00    +0.000 OA
ATOM     43  N   UNL     1     -24.930  20.491  15.127  0.00  0.00    +0.000 N 
ATOM     44  C   UNL     1     -25.773  21.033  16.042  0.00  0.00    +0.000 C 
ATOM     45  H   UNL     1     -24.237  19.847  15.485  0.00  0.00    +0.000 HD
BRANCH  44  46
ATOM     46  O   UNL     1     -25.587  20.408  17.224  0.00  0.00    +0.000 OA
BRANCH  46  47
ATOM     47  C   UNL     1     -24.728  20.985  18.241  0.00  0.00    +0.000 C 
ATOM     48  C   UNL     1     -25.361  20.882  19.633  0.00  0.00    +0.000 C 
ATOM     49  C   UNL     1     -23.458  20.121  18.214  0.00  0.00    +0.000 C 
ATOM     50  C   UNL     1     -24.347  22.428  17.891  0.00  0.00    +0.000 C 
ENDBRANCH  46  47
ENDBRANCH  44  46
ENDBRANCH  35  43
ENDBRANCH  32  35
ENDBRANCH  31  32
ENDBRANCH  29  31
ENDBRANCH  18  29
BRANCH   7  51
ATOM     51  O   UNL     1     -23.706  18.236   8.915  0.00  0.00    +0.000 OA
BRANCH  51  53
ATOM     52  O   UNL     1     -24.777  17.570  10.477  0.00  0.00    +0.000 OA
ATOM     53  C   UNL     1     -23.597  17.751  10.195  0.00  0.00    +0.000 C 
BRANCH  53  54
ATOM     54  C   UNL     1     -21.972  17.754  11.209  0.00  0.00    +0.000 A 
ATOM     55  C   UNL     1     -21.517  18.840  12.078  0.00  0.00    +0.000 A 
ATOM     56  C   UNL     1     -21.050  16.675  11.377  0.00  0.00    +0.000 A 
ATOM     57  C   UNL     1     -20.381  18.844  12.926  0.00  0.00    +0.000 A 
ATOM     58  C   UNL     1     -19.903  16.660  12.224  0.00  0.00    +0.000 A 
ATOM     59  C   UNL     1     -19.567  17.742  13.000  0.00  0.00    +0.000 A 
ENDBRANCH  53  54
ENDBRANCH  51  53
ENDBRANCH   7  51
BRANCH   4  60
ATOM     60  O   UNL     1     -24.237  15.097   9.403  0.00  0.00    +0.000 OA
BRANCH  60  62
ATOM     61  O   UNL     1     -23.863  14.461  11.515  0.00  0.00    +0.000 OA
ATOM     62  C   UNL     1     -24.400  14.235  10.433  0.00  0.00    +0.000 C 
ATOM     63  C   UNL     1     -25.140  12.956  10.198  0.00  0.00    +0.000 C 
ENDBRANCH  60  62
ENDBRANCH   4  60
TORSDOF 17
ENDMDL
MODEL 9
REMARK VINA RESULT:      -5.5     20.446     23.621
REMARK  Name = 
REMARK  25 active torsions:
REMARK  status: ('A' for Active; 'I' for Inactive)
REMARK    1  A    between atoms: O_2  and  C_17
REMARK    2  A    between atoms: O_2  and  C_36
REMARK    3  A    between atoms: O_3  and  C_20
REMARK    4  A    between atoms: O_3  and  C_37
REMARK    5  A    between atoms: O_4  and  C_21
REMARK    6  A    between atoms: O_5  and  C_22
REMARK    7  A    between atoms: O_7  and  C_30
REMARK    8  A    between atoms: O_8  and  C_31
REMARK    9  A    between atoms: O_8  and  C_39
REMARK   10  A    between atoms: O_12  and  C_41
REMARK   11  A    between atoms: O_13  and  C_51
REMARK   12  A    between atoms: O_13  and  C_55
REMARK   13  A    between atoms: N_15  and  C_44
REMARK   14  A    between atoms: C_18  and  C_29
REMARK   15  A    between atoms: C_24  and  C_33
REMARK   16  A    between atoms: C_24  and  C_34
REMARK   17  A    between atoms: C_32  and  C_35
REMARK   18  A    between atoms: C_36  and  C_38
REMARK   19  A    between atoms: C_37  and  C_40
REMARK   20  A    between atoms: C_39  and  C_41
REMARK   21  A    between atoms: C_41  and  C_44
REMARK   22  A    between atoms: C_44  and  C_48
REMARK   23  A    between atoms: C_55  and  C_56
REMARK   24  A    between atoms: C_55  and  C_57
REMARK   25  A    between atoms: C_55  and  C_58
REMARK                            x       y       z     vdW  Elec       q    Type
REMARK                         _______ _______ _______ _____ _____    ______ ____
ROOT
ATOM      1  O   UNL     1      -4.336  22.410   5.538  0.00  0.00    +0.000 OA
ATOM      2  O   UNL     1      -0.485  17.284   7.549  0.00  0.00    +0.000 OA
ATOM      3  C   UNL     1      -2.263  19.876   4.472  0.00  0.00    +0.000 C 
ATOM      4  C   UNL     1      -3.624  20.622   4.597  0.00  0.00    +0.000 C 
ATOM      5  C   UNL     1      -2.119  18.731   5.978  0.00  0.00    +0.000 C 
ATOM      6  C   UNL     1      -3.263  21.489   5.872  0.00  0.00    +0.000 C 
ATOM      7  C   UNL     1      -1.948  19.277   2.736  0.00  0.00    +0.000 C 
ATOM      8  C   UNL     1      -0.685  18.306   1.710  0.00  0.00    +0.000 C 
ATOM      9  C   UNL     1      -2.145  19.726   7.212  0.00  0.00    +0.000 C 
ATOM     10  C   UNL     1      -3.302  20.771   7.204  0.00  0.00    +0.000 C 
ATOM     11  C   UNL     1       0.672  17.312   2.277  0.00  0.00    +0.000 C 
ATOM     12  C   UNL     1      -4.048  22.070   4.124  0.00  0.00    +0.000 C 
ATOM     13  C   UNL     1      -0.775  17.465   6.347  0.00  0.00    +0.000 C 
ATOM     14  C   UNL     1      -1.535  17.201   0.929  0.00  0.00    +0.000 C 
ATOM     15  C   UNL     1       0.195  16.213   3.338  0.00  0.00    +0.000 C 
ATOM     16  C   UNL     1      -3.421  17.851   6.193  0.00  0.00    +0.000 C 
ATOM     17  C   UNL     1       0.227  16.388   5.115  0.00  0.00    +0.000 C 
ATOM     18  C   UNL     1      -1.614  15.735   1.558  0.00  0.00    +0.000 C 
ATOM     19  C   UNL     1      -0.722  15.346   2.791  0.00  0.00    +0.000 C 
ATOM     20  C   UNL     1       1.237  16.511   0.999  0.00  0.00    +0.000 C 
ATOM     21  C   UNL     1       2.033  17.998   2.617  0.00  0.00    +0.000 C 
ATOM     22  C   UNL     1      -1.146  14.074   3.483  0.00  0.00    +0.000 C 
ENDROOT
BRANCH  17  23
ATOM     23  O   UNL     1       1.608  16.292   5.466  0.00  0.00    +0.000 OA
ATOM     24  H   UNL     1       1.978  17.174   5.274  0.00  0.00    +0.000 HD
ENDBRANCH  17  23
BRANCH   9  25
ATOM     25  O   UNL     1      -0.922  20.464   7.229  0.00  0.00    +0.000 OA
ATOM     26  H   UNL     1      -1.004  21.166   6.558  0.00  0.00    +0.000 HD
ENDBRANCH   9  25
BRANCH   8  27
ATOM     27  O   UNL     1      -0.221  19.246   0.721  0.00  0.00    +0.000 OA
ATOM     28  H   UNL     1       0.628  19.623   1.013  0.00  0.00    +0.000 HD
ENDBRANCH   8  27
BRANCH  18  29
ATOM     29  O   UNL     1      -2.997  15.498   1.949  0.00  0.00    +0.000 OA
BRANCH  29  31
ATOM     30  O   UNL     1      -3.216  13.663   0.651  0.00  0.00    +0.000 OA
ATOM     31  C   UNL     1      -3.726  14.634   1.198  0.00  0.00    +0.000 C 
BRANCH  31  32
ATOM     32  C   UNL     1      -5.181  15.051   0.954  0.00  0.00    +0.000 C 
BRANCH  32  33
ATOM     33  O   UNL     1      -6.172  14.129   1.419  0.00  0.00    +0.000 OA
ATOM     34  H   UNL     1      -5.685  13.417   1.876  0.00  0.00    +0.000 HD
ENDBRANCH  32  33
BRANCH  32  35
ATOM     35  C   UNL     1      -5.355  15.360  -0.557  0.00  0.00    +0.000 C 
BRANCH  35  36
ATOM     36  C   UNL     1      -6.027  16.706  -0.808  0.00  0.00    +0.000 A 
ATOM     37  C   UNL     1      -6.642  17.383   0.257  0.00  0.00    +0.000 A 
ATOM     38  C   UNL     1      -6.021  17.315  -2.074  0.00  0.00    +0.000 A 
ATOM     39  C   UNL     1      -7.255  18.622   0.058  0.00  0.00    +0.000 A 
ATOM     40  C   UNL     1      -6.635  18.553  -2.271  0.00  0.00    +0.000 A 
ATOM     41  C   UNL     1      -7.254  19.205  -1.206  0.00  0.00    +0.000 A 
ENDBRANCH  35  36
BRANCH  35  43
ATOM     42  O   UNL     1      -4.597  13.803  -2.851  0.00  0.00    +0.000 OA
ATOM     43  N   UNL     1      -6.123  14.320  -1.229  0.00  0.00    +0.000 N 
ATOM     44  C   UNL     1      -5.716  13.716  -2.374  0.00  0.00    +0.000 C 
ATOM     45  H   UNL     1      -7.110  14.256  -1.016  0.00  0.00    +0.000 HD
BRANCH  44  46
ATOM     46  O   UNL     1      -6.742  12.991  -2.867  0.00  0.00    +0.000 OA
BRANCH  46  47
ATOM     47  C   UNL     1      -7.502  13.464  -4.009  0.00  0.00    +0.000 C 
ATOM     48  C   UNL     1      -7.574  14.994  -4.038  0.00  0.00    +0.000 C 
ATOM     49  C   UNL     1      -6.704  12.987  -5.232  0.00  0.00    +0.000 C 
ATOM     50  C   UNL     1      -8.894  12.824  -4.053  0.00  0.00    +0.000 C 
ENDBRANCH  46  47
ENDBRANCH  44  46
ENDBRANCH  35  43
ENDBRANCH  32  35
ENDBRANCH  31  32
ENDBRANCH  29  31
ENDBRANCH  18  29
BRANCH   7  51
ATOM     51  O   UNL     1      -2.473  18.135   3.129  0.00  0.00    +0.000 OA
BRANCH  51  53
ATOM     52  O   UNL     1      -4.395  17.582   2.953  0.00  0.00    +0.000 OA
ATOM     53  C   UNL     1      -3.642  18.419   2.466  0.00  0.00    +0.000 C 
BRANCH  53  54
ATOM     54  C   UNL     1      -3.768  19.615   0.975  0.00  0.00    +0.000 A 
ATOM     55  C   UNL     1      -3.394  19.293  -0.403  0.00  0.00    +0.000 A 
ATOM     56  C   UNL     1      -4.355  20.917   0.951  0.00  0.00    +0.000 A 
ATOM     57  C   UNL     1      -3.568  20.105  -1.553  0.00  0.00    +0.000 A 
ATOM     58  C   UNL     1      -4.539  21.747  -0.193  0.00  0.00    +0.000 A 
ATOM     59  C   UNL     1      -4.147  21.343  -1.446  0.00  0.00    +0.000 A 
ENDBRANCH  53  54
ENDBRANCH  51  53
ENDBRANCH   7  51
BRANCH   4  60
ATOM     60  O   UNL     1      -4.735  19.715   4.790  0.00  0.00    +0.000 OA
BRANCH  60  62
ATOM     61  O   UNL     1      -6.451  20.209   3.442  0.00  0.00    +0.000 OA
ATOM     62  C   UNL     1      -6.031  20.046   4.585  0.00  0.00    +0.000 C 
ATOM     63  C   UNL     1      -6.905  20.321   5.768  0.00  0.00    +0.000 C 
ENDBRANCH  60  62
ENDBRANCH   4  60
TORSDOF 17
ENDMDL
