MODEL 1
REMARK VINA RESULT:      -6.5      0.000      0.000
REMARK  Name = 
REMARK  13 active torsions:
REMARK  status: ('A' for Active; 'I' for Inactive)
REMARK    1  A    between atoms: O_1  and  C_13
REMARK    2  A    between atoms: O_1  and  C_19
REMARK    3  A    between atoms: O_3  and  C_14
REMARK    4  A    between atoms: O_4  and  C_22
REMARK    5  A    between atoms: O_5  and  C_24
REMARK    6  A    between atoms: O_6  and  C_26
REMARK    7  A    between atoms: O_8  and  C_30
REMARK    8  A    between atoms: O_11  and  C_35
REMARK    9  A    between atoms: O_11  and  C_39
REMARK   10  A    between atoms: N_12  and  C_21
REMARK   11  A    between atoms: C_14  and  C_25
REMARK   12  A    between atoms: C_23  and  C_29
REMARK   13  A    between atoms: C_25  and  C_30
REMARK                            x       y       z     vdW  Elec       q    Type
REMARK                         _______ _______ _______ _____ _____    ______ ____
ROOT
ATOM      1  O   UNL     1     -25.954  12.534   4.403  0.00  0.00    +0.000 OA
ATOM      2  O   UNL     1     -23.036   9.218   7.362  0.00  0.00    +0.000 OA
ATOM      3  C   UNL     1     -23.507  15.706   7.606  0.00  0.00    +0.000 C 
ATOM      4  C   UNL     1     -22.009  15.329   9.614  0.00  0.00    +0.000 C 
ATOM      5  C   UNL     1     -22.244  16.155   8.343  0.00  0.00    +0.000 C 
ATOM      6  C   UNL     1     -21.863  13.838   9.273  0.00  0.00    +0.000 C 
ATOM      7  C   UNL     1     -23.512  14.212   7.351  0.00  0.00    +0.000 A 
ATOM      8  C   UNL     1     -22.766  13.334   8.161  0.00  0.00    +0.000 A 
ATOM      9  C   UNL     1     -24.314  13.675   6.327  0.00  0.00    +0.000 A 
ATOM     10  C   UNL     1     -22.822  11.952   7.907  0.00  0.00    +0.000 A 
ATOM     11  C   UNL     1     -24.374  12.289   6.086  0.00  0.00    +0.000 A 
ATOM     12  C   UNL     1     -23.624  11.428   6.879  0.00  0.00    +0.000 A 
ATOM     13  C   UNL     1     -25.236  11.746   5.012  0.00  0.00    +0.000 C 
ATOM     14  C   UNL     1     -23.674   9.974   6.636  0.00  0.00    +0.000 C 
ATOM     15  C   UNL     1     -25.235  10.293   4.718  0.00  0.00    +0.000 A 
ATOM     16  C   UNL     1     -24.479   9.439   5.524  0.00  0.00    +0.000 A 
ATOM     17  C   UNL     1     -25.975   9.740   3.661  0.00  0.00    +0.000 A 
ATOM     18  C   UNL     1     -24.464   8.056   5.284  0.00  0.00    +0.000 A 
ATOM     19  C   UNL     1     -25.938   8.364   3.407  0.00  0.00    +0.000 A 
ATOM     20  C   UNL     1     -25.192   7.521   4.225  0.00  0.00    +0.000 A 
ENDROOT
BRANCH   4  21
ATOM     21  O   UNL     1     -23.083  15.516  10.543  0.00  0.00    +0.000 OA
ATOM     22  H   UNL     1     -22.848  16.286  11.104  0.00  0.00    +0.000 HD
ENDBRANCH   4  21
BRANCH   9  23
ATOM     23  O   UNL     1     -25.036  14.568   5.570  0.00  0.00    +0.000 OA
ATOM     24  H   UNL     1     -24.910  14.348   4.617  0.00  0.00    +0.000 HD
ENDBRANCH   9  23
BRANCH  10  25
ATOM     25  O   UNL     1     -22.053  11.146   8.710  0.00  0.00    +0.000 OA
ATOM     26  H   UNL     1     -21.131  11.140   8.366  0.00  0.00    +0.000 HD
ENDBRANCH  10  25
BRANCH   4  28
ATOM     27  O   UNL     1     -19.609  15.325  10.057  0.00  0.00    +0.000 OA
ATOM     28  C   UNL     1     -20.722  15.801  10.311  0.00  0.00    +0.000 C 
BRANCH  28  29
ATOM     29  C   UNL     1     -20.861  16.890  11.372  0.00  0.00    +0.000 C 
BRANCH  29  30
ATOM     30  O   UNL     1     -20.224  16.514  12.587  0.00  0.00    +0.000 OA
ATOM     31  H   UNL     1     -20.944  16.333  13.226  0.00  0.00    +0.000 HD
ENDBRANCH  29  30
ENDBRANCH  28  29
ENDBRANCH   4  28
BRANCH  17  32
ATOM     32  O   UNL     1     -26.672  10.519   2.777  0.00  0.00    +0.000 OA
ATOM     33  C   UNL     1     -26.090  10.444   1.473  0.00  0.00    +0.000 C 
ENDBRANCH  17  32
BRANCH   3  34
ATOM     34  O   UNL     1     -24.648  15.977   8.438  0.00  0.00    +0.000 OA
BRANCH  34  36
ATOM     35  O   UNL     1     -25.047  17.845   9.814  0.00  0.00    +0.000 OA
ATOM     36  C   UNL     1     -24.978  17.368   8.473  0.00  0.00    +0.000 C 
ATOM     37  C   UNL     1     -26.286  17.593   7.711  0.00  0.00    +0.000 C 
ATOM     38  C   UNL     1     -27.474  17.007   8.477  0.00  0.00    +0.000 C 
ATOM     39  C   UNL     1     -27.493  17.571   9.912  0.00  0.00    +0.000 C 
ATOM     40  C   UNL     1     -26.130  17.294  10.575  0.00  0.00    +0.000 C 
ATOM     41  C   UNL     1     -26.031  17.881  11.979  0.00  0.00    +0.000 C 
BRANCH  38  42
ATOM     42  N   UNL     1     -28.741  17.312   7.786  0.00  0.00    +0.000 NA
ATOM     43  H   UNL     1     -29.290  17.967   8.339  0.00  0.00    +0.000 HD
ATOM     44  H   UNL     1     -29.282  16.441   7.760  0.00  0.00    +0.000 HD
ENDBRANCH  38  42
BRANCH  39  45
ATOM     45  O   UNL     1     -27.771  18.982   9.840  0.00  0.00    +0.000 OA
ATOM     46  H   UNL     1     -27.515  19.374  10.691  0.00  0.00    +0.000 HD
ENDBRANCH  39  45
ENDBRANCH  34  36
ENDBRANCH   3  34
TORSDOF 11
ENDMDL
MODEL 2
REMARK VINA RESULT:      -6.5     13.464     17.639
REMARK  Name = 
REMARK  13 active torsions:
REMARK  status: ('A' for Active; 'I' for Inactive)
REMARK    1  A    between atoms: O_1  and  C_13
REMARK    2  A    between atoms: O_1  and  C_19
REMARK    3  A    between atoms: O_3  and  C_14
REMARK    4  A    between atoms: O_4  and  C_22
REMARK    5  A    between atoms: O_5  and  C_24
REMARK    6  A    between atoms: O_6  and  C_26
REMARK    7  A    between atoms: O_8  and  C_30
REMARK    8  A    between atoms: O_11  and  C_35
REMARK    9  A    between atoms: O_11  and  C_39
REMARK   10  A    between atoms: N_12  and  C_21
REMARK   11  A    between atoms: C_14  and  C_25
REMARK   12  A    between atoms: C_23  and  C_29
REMARK   13  A    between atoms: C_25  and  C_30
REMARK                            x       y       z     vdW  Elec       q    Type
REMARK                         _______ _______ _______ _____ _____    ______ ____
ROOT
ATOM      1  O   UNL     1     -14.292  10.054  -4.855  0.00  0.00    +0.000 OA
ATOM      2  O   UNL     1     -15.363  10.493   0.334  0.00  0.00    +0.000 OA
ATOM      3  C   UNL     1     -16.457   5.538  -3.744  0.00  0.00    +0.000 C 
ATOM      4  C   UNL     1     -17.198   4.456  -1.576  0.00  0.00    +0.000 C 
ATOM      5  C   UNL     1     -17.536   4.703  -3.052  0.00  0.00    +0.000 C 
ATOM      6  C   UNL     1     -17.060   5.786  -0.820  0.00  0.00    +0.000 C 
ATOM      7  C   UNL     1     -16.155   6.814  -2.983  0.00  0.00    +0.000 A 
ATOM      8  C   UNL     1     -16.406   6.912  -1.600  0.00  0.00    +0.000 A 
ATOM      9  C   UNL     1     -15.562   7.905  -3.645  0.00  0.00    +0.000 A 
ATOM     10  C   UNL     1     -16.083   8.105  -0.928  0.00  0.00    +0.000 A 
ATOM     11  C   UNL     1     -15.231   9.092  -2.962  0.00  0.00    +0.000 A 
ATOM     12  C   UNL     1     -15.496   9.189  -1.601  0.00  0.00    +0.000 A 
ATOM     13  C   UNL     1     -14.595  10.221  -3.678  0.00  0.00    +0.000 C 
ATOM     14  C   UNL     1     -15.158  10.427  -0.874  0.00  0.00    +0.000 C 
ATOM     15  C   UNL     1     -14.320  11.493  -2.967  0.00  0.00    +0.000 A 
ATOM     16  C   UNL     1     -14.587  11.576  -1.599  0.00  0.00    +0.000 A 
ATOM     17  C   UNL     1     -13.790  12.618  -3.618  0.00  0.00    +0.000 A 
ATOM     18  C   UNL     1     -14.327  12.760  -0.890  0.00  0.00    +0.000 A 
ATOM     19  C   UNL     1     -13.555  13.805  -2.915  0.00  0.00    +0.000 A 
ATOM     20  C   UNL     1     -13.813  13.873  -1.549  0.00  0.00    +0.000 A 
ENDROOT
BRANCH   4  21
ATOM     21  O   UNL     1     -15.988   3.697  -1.456  0.00  0.00    +0.000 OA
ATOM     22  H   UNL     1     -15.321   4.282  -1.038  0.00  0.00    +0.000 HD
ENDBRANCH   4  21
BRANCH   9  23
ATOM     23  O   UNL     1     -15.322   7.760  -4.991  0.00  0.00    +0.000 OA
ATOM     24  H   UNL     1     -15.427   8.638  -5.427  0.00  0.00    +0.000 HD
ENDBRANCH   9  23
BRANCH  10  25
ATOM     25  O   UNL     1     -16.376   8.155   0.413  0.00  0.00    +0.000 OA
ATOM     26  H   UNL     1     -15.726   7.600   0.901  0.00  0.00    +0.000 HD
ENDBRANCH  10  25
BRANCH   4  28
ATOM     27  O   UNL     1     -19.209   4.140  -0.232  0.00  0.00    +0.000 OA
ATOM     28  C   UNL     1     -18.316   3.630  -0.917  0.00  0.00    +0.000 C 
BRANCH  28  29
ATOM     29  C   UNL     1     -18.279   2.117  -1.120  0.00  0.00    +0.000 C 
BRANCH  29  30
ATOM     30  O   UNL     1     -17.504   1.479  -0.112  0.00  0.00    +0.000 OA
ATOM     31  H   UNL     1     -16.958   0.809  -0.573  0.00  0.00    +0.000 HD
ENDBRANCH  29  30
ENDBRANCH  28  29
ENDBRANCH   4  28
BRANCH  17  32
ATOM     32  O   UNL     1     -13.580  12.642  -4.971  0.00  0.00    +0.000 OA
ATOM     33  C   UNL     1     -12.213  12.940  -5.263  0.00  0.00    +0.000 C 
ENDBRANCH  17  32
BRANCH   3  34
ATOM     34  O   UNL     1     -15.233   4.784  -3.767  0.00  0.00    +0.000 OA
BRANCH  34  36
ATOM     35  O   UNL     1     -14.863   2.815  -5.004  0.00  0.00    +0.000 OA
ATOM     36  C   UNL     1     -14.957   4.236  -5.059  0.00  0.00    +0.000 C 
ATOM     37  C   UNL     1     -13.684   4.878  -5.615  0.00  0.00    +0.000 C 
ATOM     38  C   UNL     1     -12.450   4.405  -4.844  0.00  0.00    +0.000 C 
ATOM     39  C   UNL     1     -12.407   2.864  -4.832  0.00  0.00    +0.000 C 
ATOM     40  C   UNL     1     -13.736   2.332  -4.262  0.00  0.00    +0.000 C 
ATOM     41  C   UNL     1     -13.812   0.810  -4.278  0.00  0.00    +0.000 C 
BRANCH  38  42
ATOM     42  N   UNL     1     -11.219   4.951  -5.445  0.00  0.00    +0.000 NA
ATOM     43  H   UNL     1     -10.874   5.729  -4.886  0.00  0.00    +0.000 HD
ATOM     44  H   UNL     1     -11.483   5.350  -6.353  0.00  0.00    +0.000 HD
ENDBRANCH  38  42
BRANCH  39  45
ATOM     45  O   UNL     1     -12.187   2.408  -6.180  0.00  0.00    +0.000 OA
ATOM     46  H   UNL     1     -12.526   3.093  -6.780  0.00  0.00    +0.000 HD
ENDBRANCH  39  45
ENDBRANCH  34  36
ENDBRANCH   3  34
TORSDOF 11
ENDMDL
MODEL 3
REMARK VINA RESULT:      -6.2     19.910     21.879
REMARK  Name = 
REMARK  13 active torsions:
REMARK  status: ('A' for Active; 'I' for Inactive)
REMARK    1  A    between atoms: O_1  and  C_13
REMARK    2  A    between atoms: O_1  and  C_19
REMARK    3  A    between atoms: O_3  and  C_14
REMARK    4  A    between atoms: O_4  and  C_22
REMARK    5  A    between atoms: O_5  and  C_24
REMARK    6  A    between atoms: O_6  and  C_26
REMARK    7  A    between atoms: O_8  and  C_30
REMARK    8  A    between atoms: O_11  and  C_35
REMARK    9  A    between atoms: O_11  and  C_39
REMARK   10  A    between atoms: N_12  and  C_21
REMARK   11  A    between atoms: C_14  and  C_25
REMARK   12  A    between atoms: C_23  and  C_29
REMARK   13  A    between atoms: C_25  and  C_30
REMARK                            x       y       z     vdW  Elec       q    Type
REMARK                         _______ _______ _______ _____ _____    ______ ____
ROOT
ATOM      1  O   UNL     1      -9.086   3.987  17.016  0.00  0.00    +0.000 OA
ATOM      2  O   UNL     1      -9.138   8.219  20.233  0.00  0.00    +0.000 OA
ATOM      3  C   UNL     1     -13.144   3.092  20.023  0.00  0.00    +0.000 C 
ATOM      4  C   UNL     1     -14.076   4.257  22.071  0.00  0.00    +0.000 C 
ATOM      5  C   UNL     1     -14.408   3.564  20.743  0.00  0.00    +0.000 C 
ATOM      6  C   UNL     1     -13.173   5.477  21.836  0.00  0.00    +0.000 C 
ATOM      7  C   UNL     1     -12.130   4.209  19.872  0.00  0.00    +0.000 A 
ATOM      8  C   UNL     1     -12.125   5.310  20.750  0.00  0.00    +0.000 A 
ATOM      9  C   UNL     1     -11.137   4.128  18.877  0.00  0.00    +0.000 A 
ATOM     10  C   UNL     1     -11.148   6.309  20.591  0.00  0.00    +0.000 A 
ATOM     11  C   UNL     1     -10.155   5.127  18.732  0.00  0.00    +0.000 A 
ATOM     12  C   UNL     1     -10.165   6.220  19.591  0.00  0.00    +0.000 A 
ATOM     13  C   UNL     1      -9.113   5.014  17.686  0.00  0.00    +0.000 C 
ATOM     14  C   UNL     1      -9.144   7.275  19.449  0.00  0.00    +0.000 C 
ATOM     15  C   UNL     1      -8.130   6.107  17.493  0.00  0.00    +0.000 A 
ATOM     16  C   UNL     1      -8.148   7.197  18.366  0.00  0.00    +0.000 A 
ATOM     17  C   UNL     1      -7.172   6.082  16.468  0.00  0.00    +0.000 A 
ATOM     18  C   UNL     1      -7.224   8.244  18.222  0.00  0.00    +0.000 A 
ATOM     19  C   UNL     1      -6.268   7.140  16.310  0.00  0.00    +0.000 A 
ATOM     20  C   UNL     1      -6.287   8.215  17.194  0.00  0.00    +0.000 A 
ENDROOT
BRANCH   4  21
ATOM     21  O   UNL     1     -13.439   3.342  22.972  0.00  0.00    +0.000 OA
ATOM     22  H   UNL     1     -12.645   3.794  23.328  0.00  0.00    +0.000 HD
ENDBRANCH   4  21
BRANCH   9  23
ATOM     23  O   UNL     1     -11.172   3.030  18.051  0.00  0.00    +0.000 OA
ATOM     24  H   UNL     1     -12.037   2.571  18.172  0.00  0.00    +0.000 HD
ENDBRANCH   9  23
BRANCH  10  25
ATOM     25  O   UNL     1     -11.207   7.373  21.458  0.00  0.00    +0.000 OA
ATOM     26  H   UNL     1     -11.813   8.053  21.085  0.00  0.00    +0.000 HD
ENDBRANCH  10  25
BRANCH   4  28
ATOM     27  O   UNL     1     -16.447   4.828  22.147  0.00  0.00    +0.000 OA
ATOM     28  C   UNL     1     -15.372   4.729  22.751  0.00  0.00    +0.000 C 
BRANCH  28  29
ATOM     29  C   UNL     1     -15.290   5.105  24.228  0.00  0.00    +0.000 C 
BRANCH  29  30
ATOM     30  O   UNL     1     -16.110   6.230  24.523  0.00  0.00    +0.000 OA
ATOM     31  H   UNL     1     -16.154   6.757  23.699  0.00  0.00    +0.000 HD
ENDBRANCH  29  30
ENDBRANCH  28  29
ENDBRANCH   4  28
BRANCH  17  32
ATOM     32  O   UNL     1      -7.144   5.092  15.523  0.00  0.00    +0.000 OA
ATOM     33  C   UNL     1      -5.821   4.921  15.011  0.00  0.00    +0.000 C 
ENDBRANCH  17  32
BRANCH   3  34
ATOM     34  O   UNL     1     -12.510   2.078  20.820  0.00  0.00    +0.000 OA
BRANCH  34  36
ATOM     35  O   UNL     1     -13.177   0.240  22.133  0.00  0.00    +0.000 OA
ATOM     36  C   UNL     1     -13.264   0.863  20.854  0.00  0.00    +0.000 C 
ATOM     37  C   UNL     1     -12.783  -0.058  19.730  0.00  0.00    +0.000 C 
ATOM     38  C   UNL     1     -11.380  -0.595  20.023  0.00  0.00    +0.000 C 
ATOM     39  C   UNL     1     -11.361  -1.260  21.414  0.00  0.00    +0.000 C 
ATOM     40  C   UNL     1     -11.869  -0.247  22.458  0.00  0.00    +0.000 C 
ATOM     41  C   UNL     1     -11.952  -0.843  23.859  0.00  0.00    +0.000 C 
BRANCH  38  42
ATOM     42  N   UNL     1     -10.962  -1.555  18.986  0.00  0.00    +0.000 NA
ATOM     43  H   UNL     1     -10.064  -1.277  18.594  0.00  0.00    +0.000 HD
ATOM     44  H   UNL     1     -11.640  -1.479  18.220  0.00  0.00    +0.000 HD
ENDBRANCH  38  42
BRANCH  39  45
ATOM     45  O   UNL     1     -12.193  -2.434  21.365  0.00  0.00    +0.000 OA
ATOM     46  H   UNL     1     -11.627  -3.182  21.111  0.00  0.00    +0.000 HD
ENDBRANCH  39  45
ENDBRANCH  34  36
ENDBRANCH   3  34
TORSDOF 11
ENDMDL
MODEL 4
REMARK VINA RESULT:      -6.2     19.623     22.340
REMARK  Name = 
REMARK  13 active torsions:
REMARK  status: ('A' for Active; 'I' for Inactive)
REMARK    1  A    between atoms: O_1  and  C_13
REMARK    2  A    between atoms: O_1  and  C_19
REMARK    3  A    between atoms: O_3  and  C_14
REMARK    4  A    between atoms: O_4  and  C_22
REMARK    5  A    between atoms: O_5  and  C_24
REMARK    6  A    between atoms: O_6  and  C_26
REMARK    7  A    between atoms: O_8  and  C_30
REMARK    8  A    between atoms: O_11  and  C_35
REMARK    9  A    between atoms: O_11  and  C_39
REMARK   10  A    between atoms: N_12  and  C_21
REMARK   11  A    between atoms: C_14  and  C_25
REMARK   12  A    between atoms: C_23  and  C_29
REMARK   13  A    between atoms: C_25  and  C_30
REMARK                            x       y       z     vdW  Elec       q    Type
REMARK                         _______ _______ _______ _____ _____    ______ ____
ROOT
ATOM      1  O   UNL     1      -3.505  13.249   0.313  0.00  0.00    +0.000 OA
ATOM      2  O   UNL     1      -6.927  17.006  -1.251  0.00  0.00    +0.000 OA
ATOM      3  C   UNL     1      -3.184  16.727   4.069  0.00  0.00    +0.000 C 
ATOM      4  C   UNL     1      -4.156  19.048   4.372  0.00  0.00    +0.000 C 
ATOM      5  C   UNL     1      -3.834  17.708   5.046  0.00  0.00    +0.000 C 
ATOM      6  C   UNL     1      -5.112  18.844   3.188  0.00  0.00    +0.000 C 
ATOM      7  C   UNL     1      -3.998  16.572   2.799  0.00  0.00    +0.000 A 
ATOM      8  C   UNL     1      -4.876  17.587   2.370  0.00  0.00    +0.000 A 
ATOM      9  C   UNL     1      -3.842  15.425   1.998  0.00  0.00    +0.000 A 
ATOM     10  C   UNL     1      -5.589  17.413   1.170  0.00  0.00    +0.000 A 
ATOM     11  C   UNL     1      -4.552  15.264   0.793  0.00  0.00    +0.000 A 
ATOM     12  C   UNL     1      -5.428  16.262   0.382  0.00  0.00    +0.000 A 
ATOM     13  C   UNL     1      -4.360  14.056  -0.040  0.00  0.00    +0.000 C 
ATOM     14  C   UNL     1      -6.180  16.106  -0.877  0.00  0.00    +0.000 C 
ATOM     15  C   UNL     1      -5.167  13.861  -1.268  0.00  0.00    +0.000 A 
ATOM     16  C   UNL     1      -6.041  14.873  -1.672  0.00  0.00    +0.000 A 
ATOM     17  C   UNL     1      -5.078  12.699  -2.049  0.00  0.00    +0.000 A 
ATOM     18  C   UNL     1      -6.812  14.730  -2.837  0.00  0.00    +0.000 A 
ATOM     19  C   UNL     1      -5.866  12.547  -3.196  0.00  0.00    +0.000 A 
ATOM     20  C   UNL     1      -6.725  13.567  -3.596  0.00  0.00    +0.000 A 
ENDROOT
BRANCH   4  21
ATOM     21  O   UNL     1      -2.954  19.689   3.927  0.00  0.00    +0.000 OA
ATOM     22  H   UNL     1      -2.501  19.063   3.322  0.00  0.00    +0.000 HD
ENDBRANCH   4  21
BRANCH   9  23
ATOM     23  O   UNL     1      -2.964  14.467   2.449  0.00  0.00    +0.000 OA
ATOM     24  H   UNL     1      -3.059  13.663   1.886  0.00  0.00    +0.000 HD
ENDBRANCH   9  23
BRANCH  10  25
ATOM     25  O   UNL     1      -6.451  18.422   0.815  0.00  0.00    +0.000 OA
ATOM     26  H   UNL     1      -7.374  18.134   1.001  0.00  0.00    +0.000 HD
ENDBRANCH  10  25
BRANCH   4  28
ATOM     27  O   UNL     1      -4.233  20.433   6.379  0.00  0.00    +0.000 OA
ATOM     28  C   UNL     1      -4.823  19.994   5.385  0.00  0.00    +0.000 C 
BRANCH  28  29
ATOM     29  C   UNL     1      -6.281  20.371   5.134  0.00  0.00    +0.000 C 
BRANCH  29  30
ATOM     30  O   UNL     1      -7.129  19.867   6.159  0.00  0.00    +0.000 OA
ATOM     31  H   UNL     1      -7.012  20.465   6.925  0.00  0.00    +0.000 HD
ENDBRANCH  29  30
ENDBRANCH  28  29
ENDBRANCH   4  28
BRANCH  17  32
ATOM     32  O   UNL     1      -4.308  11.629  -1.675  0.00  0.00    +0.000 OA
ATOM     33  C   UNL     1      -3.542  11.149  -2.782  0.00  0.00    +0.000 C 
ENDBRANCH  17  32
BRANCH   3  34
ATOM     34  O   UNL     1      -1.908  17.253   3.667  0.00  0.00    +0.000 OA
BRANCH  34  36
ATOM     35  O   UNL     1       0.241  17.839   4.432  0.00  0.00    +0.000 OA
ATOM     36  C   UNL     1      -0.883  16.984   4.627  0.00  0.00    +0.000 C 
ATOM     37  C   UNL     1      -0.502  15.503   4.552  0.00  0.00    +0.000 C 
ATOM     38  C   UNL     1       0.247  15.194   3.253  0.00  0.00    +0.000 C 
ATOM     39  C   UNL     1       1.450  16.148   3.111  0.00  0.00    +0.000 C 
ATOM     40  C   UNL     1       0.950  17.602   3.209  0.00  0.00    +0.000 C 
ATOM     41  C   UNL     1       2.086  18.617   3.149  0.00  0.00    +0.000 C 
BRANCH  38  42
ATOM     42  N   UNL     1       0.694  13.790   3.231  0.00  0.00    +0.000 NA
ATOM     43  H   UNL     1       0.033  13.222   2.705  0.00  0.00    +0.000 HD
ATOM     44  H   UNL     1       0.654  13.450   4.197  0.00  0.00    +0.000 HD
ENDBRANCH  38  42
BRANCH  39  45
ATOM     45  O   UNL     1       2.395  15.840   4.153  0.00  0.00    +0.000 OA
ATOM     46  H   UNL     1       3.263  16.173   3.869  0.00  0.00    +0.000 HD
ENDBRANCH  39  45
ENDBRANCH  34  36
ENDBRANCH   3  34
TORSDOF 11
ENDMDL
MODEL 5
REMARK VINA RESULT:      -6.0     19.535     21.821
REMARK  Name = 
REMARK  13 active torsions:
REMARK  status: ('A' for Active; 'I' for Inactive)
REMARK    1  A    between atoms: O_1  and  C_13
REMARK    2  A    between atoms: O_1  and  C_19
REMARK    3  A    between atoms: O_3  and  C_14
REMARK    4  A    between atoms: O_4  and  C_22
REMARK    5  A    between atoms: O_5  and  C_24
REMARK    6  A    between atoms: O_6  and  C_26
REMARK    7  A    between atoms: O_8  and  C_30
REMARK    8  A    between atoms: O_11  and  C_35
REMARK    9  A    between atoms: O_11  and  C_39
REMARK   10  A    between atoms: N_12  and  C_21
REMARK   11  A    between atoms: C_14  and  C_25
REMARK   12  A    between atoms: C_23  and  C_29
REMARK   13  A    between atoms: C_25  and  C_30
REMARK                            x       y       z     vdW  Elec       q    Type
REMARK                         _______ _______ _______ _____ _____    ______ ____
ROOT
ATOM      1  O   UNL     1      -5.406  14.234  -0.516  0.00  0.00    +0.000 OA
ATOM      2  O   UNL     1      -6.955  19.314  -0.752  0.00  0.00    +0.000 OA
ATOM      3  C   UNL     1      -3.927  16.096   4.029  0.00  0.00    +0.000 C 
ATOM      4  C   UNL     1      -3.907  18.425   5.026  0.00  0.00    +0.000 C 
ATOM      5  C   UNL     1      -4.184  16.937   5.280  0.00  0.00    +0.000 C 
ATOM      6  C   UNL     1      -4.800  18.958   3.896  0.00  0.00    +0.000 C 
ATOM      7  C   UNL     1      -4.665  16.639   2.821  0.00  0.00    +0.000 A 
ATOM      8  C   UNL     1      -5.041  17.994   2.748  0.00  0.00    +0.000 A 
ATOM      9  C   UNL     1      -4.937  15.798   1.725  0.00  0.00    +0.000 A 
ATOM     10  C   UNL     1      -5.699  18.462   1.596  0.00  0.00    +0.000 A 
ATOM     11  C   UNL     1      -5.586  16.277   0.571  0.00  0.00    +0.000 A 
ATOM     12  C   UNL     1      -5.968  17.612   0.510  0.00  0.00    +0.000 A 
ATOM     13  C   UNL     1      -5.848  15.377  -0.575  0.00  0.00    +0.000 C 
ATOM     14  C   UNL     1      -6.651  18.127  -0.692  0.00  0.00    +0.000 C 
ATOM     15  C   UNL     1      -6.598  15.872  -1.754  0.00  0.00    +0.000 A 
ATOM     16  C   UNL     1      -6.972  17.216  -1.805  0.00  0.00    +0.000 A 
ATOM     17  C   UNL     1      -6.938  15.039  -2.832  0.00  0.00    +0.000 A 
ATOM     18  C   UNL     1      -7.672  17.723  -2.911  0.00  0.00    +0.000 A 
ATOM     19  C   UNL     1      -7.658  15.540  -3.922  0.00  0.00    +0.000 A 
ATOM     20  C   UNL     1      -8.015  16.885  -3.967  0.00  0.00    +0.000 A 
ENDROOT
BRANCH   4  21
ATOM     21  O   UNL     1      -2.527  18.632   4.700  0.00  0.00    +0.000 OA
ATOM     22  H   UNL     1      -2.381  19.601   4.666  0.00  0.00    +0.000 HD
ENDBRANCH   4  21
BRANCH   9  23
ATOM     23  O   UNL     1      -4.540  14.486   1.835  0.00  0.00    +0.000 OA
ATOM     24  H   UNL     1      -3.621  14.404   1.488  0.00  0.00    +0.000 HD
ENDBRANCH   9  23
BRANCH  10  25
ATOM     25  O   UNL     1      -6.066  19.785   1.591  0.00  0.00    +0.000 OA
ATOM     26  H   UNL     1      -5.420  20.293   1.048  0.00  0.00    +0.000 HD
ENDBRANCH  10  25
BRANCH   4  28
ATOM     27  O   UNL     1      -3.515  19.126   7.330  0.00  0.00    +0.000 OA
ATOM     28  C   UNL     1      -4.195  19.233   6.303  0.00  0.00    +0.000 C 
BRANCH  28  29
ATOM     29  C   UNL     1      -5.389  20.185   6.273  0.00  0.00    +0.000 C 
BRANCH  29  30
ATOM     30  O   UNL     1      -6.434  19.730   7.124  0.00  0.00    +0.000 OA
ATOM     31  H   UNL     1      -6.185  18.823   7.399  0.00  0.00    +0.000 HD
ENDBRANCH  29  30
ENDBRANCH  28  29
ENDBRANCH   4  28
BRANCH  17  32
ATOM     32  O   UNL     1      -6.680  13.694  -2.820  0.00  0.00    +0.000 OA
ATOM     33  C   UNL     1      -7.835  12.956  -3.227  0.00  0.00    +0.000 C 
ENDBRANCH  17  32
BRANCH   3  34
ATOM     34  O   UNL     1      -2.528  16.160   3.708  0.00  0.00    +0.000 OA
BRANCH  34  36
ATOM     35  O   UNL     1      -0.777  16.271   5.279  0.00  0.00    +0.000 OA
ATOM     36  C   UNL     1      -1.723  15.423   4.633  0.00  0.00    +0.000 C 
ATOM     37  C   UNL     1      -1.050  14.262   3.897  0.00  0.00    +0.000 C 
ATOM     38  C   UNL     1       0.028  14.771   2.938  0.00  0.00    +0.000 C 
ATOM     39  C   UNL     1       1.018  15.672   3.703  0.00  0.00    +0.000 C 
ATOM     40  C   UNL     1       0.231  16.795   4.405  0.00  0.00    +0.000 C 
ATOM     41  C   UNL     1       1.125  17.697   5.248  0.00  0.00    +0.000 C 
BRANCH  38  42
ATOM     42  N   UNL     1       0.737  13.644   2.305  0.00  0.00    +0.000 NA
ATOM     43  H   UNL     1       0.159  13.235   1.573  0.00  0.00    +0.000 HD
ATOM     44  H   UNL     1       0.841  12.919   3.022  0.00  0.00    +0.000 HD
ENDBRANCH  38  42
BRANCH  39  45
ATOM     45  O   UNL     1       1.734  14.855   4.648  0.00  0.00    +0.000 OA
ATOM     46  H   UNL     1       1.659  13.932   4.352  0.00  0.00    +0.000 HD
ENDBRANCH  39  45
ENDBRANCH  34  36
ENDBRANCH   3  34
TORSDOF 11
ENDMDL
MODEL 6
REMARK VINA RESULT:      -6.0     19.371     21.675
REMARK  Name = 
REMARK  13 active torsions:
REMARK  status: ('A' for Active; 'I' for Inactive)
REMARK    1  A    between atoms: O_1  and  C_13
REMARK    2  A    between atoms: O_1  and  C_19
REMARK    3  A    between atoms: O_3  and  C_14
REMARK    4  A    between atoms: O_4  and  C_22
REMARK    5  A    between atoms: O_5  and  C_24
REMARK    6  A    between atoms: O_6  and  C_26
REMARK    7  A    between atoms: O_8  and  C_30
REMARK    8  A    between atoms: O_11  and  C_35
REMARK    9  A    between atoms: O_11  and  C_39
REMARK   10  A    between atoms: N_12  and  C_21
REMARK   11  A    between atoms: C_14  and  C_25
REMARK   12  A    between atoms: C_23  and  C_29
REMARK   13  A    between atoms: C_25  and  C_30
REMARK                            x       y       z     vdW  Elec       q    Type
REMARK                         _______ _______ _______ _____ _____    ______ ____
ROOT
ATOM      1  O   UNL     1     -12.502   7.146  23.363  0.00  0.00    +0.000 OA
ATOM      2  O   UNL     1     -13.553   2.301  21.442  0.00  0.00    +0.000 OA
ATOM      3  C   UNL     1      -9.945   7.094  18.917  0.00  0.00    +0.000 C 
ATOM      4  C   UNL     1      -9.488   5.289  17.199  0.00  0.00    +0.000 C 
ATOM      5  C   UNL     1      -9.854   6.762  17.427  0.00  0.00    +0.000 C 
ATOM      6  C   UNL     1     -10.537   4.365  17.835  0.00  0.00    +0.000 C 
ATOM      7  C   UNL     1     -10.857   6.135  19.656  0.00  0.00    +0.000 A 
ATOM      8  C   UNL     1     -11.103   4.840  19.161  0.00  0.00    +0.000 A 
ATOM      9  C   UNL     1     -11.429   6.514  20.885  0.00  0.00    +0.000 A 
ATOM     10  C   UNL     1     -11.933   3.973  19.894  0.00  0.00    +0.000 A 
ATOM     11  C   UNL     1     -12.251   5.636  21.618  0.00  0.00    +0.000 A 
ATOM     12  C   UNL     1     -12.502   4.364  21.118  0.00  0.00    +0.000 A 
ATOM     13  C   UNL     1     -12.830   6.051  22.915  0.00  0.00    +0.000 C 
ATOM     14  C   UNL     1     -13.363   3.434  21.874  0.00  0.00    +0.000 C 
ATOM     15  C   UNL     1     -13.753   5.148  23.642  0.00  0.00    +0.000 A 
ATOM     16  C   UNL     1     -13.995   3.871  23.131  0.00  0.00    +0.000 A 
ATOM     17  C   UNL     1     -14.388   5.525  24.836  0.00  0.00    +0.000 A 
ATOM     18  C   UNL     1     -14.853   2.983  23.799  0.00  0.00    +0.000 A 
ATOM     19  C   UNL     1     -15.264   4.647  25.487  0.00  0.00    +0.000 A 
ATOM     20  C   UNL     1     -15.487   3.373  24.975  0.00  0.00    +0.000 A 
ENDROOT
BRANCH   4  21
ATOM     21  O   UNL     1      -8.191   5.003  17.736  0.00  0.00    +0.000 OA
ATOM     22  H   UNL     1      -7.568   5.651  17.344  0.00  0.00    +0.000 HD
ENDBRANCH   4  21
BRANCH   9  23
ATOM     23  O   UNL     1     -11.151   7.783  21.336  0.00  0.00    +0.000 OA
ATOM     24  H   UNL     1     -11.947   8.348  21.198  0.00  0.00    +0.000 HD
ENDBRANCH   9  23
BRANCH  10  25
ATOM     25  O   UNL     1     -12.160   2.732  19.351  0.00  0.00    +0.000 OA
ATOM     26  H   UNL     1     -12.120   2.801  18.370  0.00  0.00    +0.000 HD
ENDBRANCH  10  25
BRANCH   4  28
ATOM     27  O   UNL     1     -10.434   4.950  14.975  0.00  0.00    +0.000 OA
ATOM     28  C   UNL     1      -9.426   4.996  15.690  0.00  0.00    +0.000 C 
BRANCH  28  29
ATOM     29  C   UNL     1      -8.049   4.734  15.085  0.00  0.00    +0.000 C 
BRANCH  29  30
ATOM     30  O   UNL     1      -7.491   3.521  15.576  0.00  0.00    +0.000 OA
ATOM     31  H   UNL     1      -6.763   3.781  16.178  0.00  0.00    +0.000 HD
ENDBRANCH  29  30
ENDBRANCH  28  29
ENDBRANCH   4  28
BRANCH  17  32
ATOM     32  O   UNL     1     -14.269   6.786  25.356  0.00  0.00    +0.000 OA
ATOM     33  C   UNL     1     -13.882   6.730  26.730  0.00  0.00    +0.000 C 
ENDBRANCH  17  32
BRANCH   3  34
ATOM     34  O   UNL     1      -8.641   6.943  19.504  0.00  0.00    +0.000 OA
BRANCH  34  36
ATOM     35  O   UNL     1      -7.725   8.966  18.721  0.00  0.00    +0.000 OA
ATOM     36  C   UNL     1      -8.062   8.197  19.874  0.00  0.00    +0.000 C 
ATOM     37  C   UNL     1      -6.851   7.945  20.774  0.00  0.00    +0.000 C 
ATOM     38  C   UNL     1      -5.695   7.330  19.980  0.00  0.00    +0.000 C 
ATOM     39  C   UNL     1      -5.380   8.214  18.757  0.00  0.00    +0.000 C 
ATOM     40  C   UNL     1      -6.668   8.404  17.933  0.00  0.00    +0.000 C 
ATOM     41  C   UNL     1      -6.466   9.327  16.737  0.00  0.00    +0.000 C 
BRANCH  38  42
ATOM     42  N   UNL     1      -4.501   7.179  20.831  0.00  0.00    +0.000 NA
ATOM     43  H   UNL     1      -4.737   7.376  21.802  0.00  0.00    +0.000 HD
ATOM     44  H   UNL     1      -3.840   7.910  20.547  0.00  0.00    +0.000 HD
ENDBRANCH  38  42
BRANCH  39  45
ATOM     45  O   UNL     1      -4.862   9.472  19.230  0.00  0.00    +0.000 OA
ATOM     46  H   UNL     1      -5.153   9.580  20.151  0.00  0.00    +0.000 HD
ENDBRANCH  39  45
ENDBRANCH  34  36
ENDBRANCH   3  34
TORSDOF 11
ENDMDL
MODEL 7
REMARK VINA RESULT:      -5.7      1.491      2.374
REMARK  Name = 
REMARK  13 active torsions:
REMARK  status: ('A' for Active; 'I' for Inactive)
REMARK    1  A    between atoms: O_1  and  C_13
REMARK    2  A    between atoms: O_1  and  C_19
REMARK    3  A    between atoms: O_3  and  C_14
REMARK    4  A    between atoms: O_4  and  C_22
REMARK    5  A    between atoms: O_5  and  C_24
REMARK    6  A    between atoms: O_6  and  C_26
REMARK    7  A    between atoms: O_8  and  C_30
REMARK    8  A    between atoms: O_11  and  C_35
REMARK    9  A    between atoms: O_11  and  C_39
REMARK   10  A    between atoms: N_12  and  C_21
REMARK   11  A    between atoms: C_14  and  C_25
REMARK   12  A    between atoms: C_23  and  C_29
REMARK   13  A    between atoms: C_25  and  C_30
REMARK                            x       y       z     vdW  Elec       q    Type
REMARK                         _______ _______ _______ _____ _____    ______ ____
ROOT
ATOM      1  O   UNL     1     -25.845  14.047   5.785  0.00  0.00    +0.000 OA
ATOM      2  O   UNL     1     -22.152  11.325   8.471  0.00  0.00    +0.000 OA
ATOM      3  C   UNL     1     -24.035  17.525   9.092  0.00  0.00    +0.000 C 
ATOM      4  C   UNL     1     -22.412  17.393  11.033  0.00  0.00    +0.000 C 
ATOM      5  C   UNL     1     -22.874  18.207   9.818  0.00  0.00    +0.000 C 
ATOM      6  C   UNL     1     -21.954  15.992  10.605  0.00  0.00    +0.000 C 
ATOM      7  C   UNL     1     -23.720  16.082   8.754  0.00  0.00    +0.000 A 
ATOM      8  C   UNL     1     -22.766  15.354   9.493  0.00  0.00    +0.000 A 
ATOM      9  C   UNL     1     -24.423  15.430   7.724  0.00  0.00    +0.000 A 
ATOM     10  C   UNL     1     -22.527  14.008   9.163  0.00  0.00    +0.000 A 
ATOM     11  C   UNL     1     -24.185  14.078   7.407  0.00  0.00    +0.000 A 
ATOM     12  C   UNL     1     -23.232  13.369   8.129  0.00  0.00    +0.000 A 
ATOM     13  C   UNL     1     -24.948  13.411   6.329  0.00  0.00    +0.000 C 
ATOM     14  C   UNL     1     -22.970  11.954   7.807  0.00  0.00    +0.000 C 
ATOM     15  C   UNL     1     -24.637  12.011   5.953  0.00  0.00    +0.000 A 
ATOM     16  C   UNL     1     -23.681  11.308   6.689  0.00  0.00    +0.000 A 
ATOM     17  C   UNL     1     -25.278  11.358   4.889  0.00  0.00    +0.000 A 
ATOM     18  C   UNL     1     -23.370   9.976   6.371  0.00  0.00    +0.000 A 
ATOM     19  C   UNL     1     -24.948  10.039   4.557  0.00  0.00    +0.000 A 
ATOM     20  C   UNL     1     -24.002   9.344   5.305  0.00  0.00    +0.000 A 
ENDROOT
BRANCH   4  21
ATOM     21  O   UNL     1     -23.463  17.292  12.001  0.00  0.00    +0.000 OA
ATOM     22  H   UNL     1     -23.423  18.099  12.556  0.00  0.00    +0.000 HD
ENDBRANCH   4  21
BRANCH   9  23
ATOM     23  O   UNL     1     -25.354  16.175   7.039  0.00  0.00    +0.000 OA
ATOM     24  H   UNL     1     -24.884  16.877   6.530  0.00  0.00    +0.000 HD
ENDBRANCH   9  23
BRANCH  10  25
ATOM     25  O   UNL     1     -21.567  13.355   9.898  0.00  0.00    +0.000 OA
ATOM     26  H   UNL     1     -20.770  13.224   9.336  0.00  0.00    +0.000 HD
ENDBRANCH  10  25
BRANCH   4  28
ATOM     27  O   UNL     1     -21.141  19.338  11.781  0.00  0.00    +0.000 OA
ATOM     28  C   UNL     1     -21.234  18.106  11.720  0.00  0.00    +0.000 C 
BRANCH  28  29
ATOM     29  C   UNL     1     -20.141  17.227  12.323  0.00  0.00    +0.000 C 
BRANCH  29  30
ATOM     30  O   UNL     1     -19.149  18.010  12.977  0.00  0.00    +0.000 OA
ATOM     31  H   UNL     1     -18.870  17.495  13.761  0.00  0.00    +0.000 HD
ENDBRANCH  29  30
ENDBRANCH  28  29
ENDBRANCH   4  28
BRANCH  17  32
ATOM     32  O   UNL     1     -26.164  12.005   4.069  0.00  0.00    +0.000 OA
ATOM     33  C   UNL     1     -27.352  11.227   3.898  0.00  0.00    +0.000 C 
ENDBRANCH  17  32
BRANCH   3  34
ATOM     34  O   UNL     1     -25.173  17.494   9.969  0.00  0.00    +0.000 OA
BRANCH  34  36
ATOM     35  O   UNL     1     -25.916  19.132  11.489  0.00  0.00    +0.000 OA
ATOM     36  C   UNL     1     -25.783  18.780  10.115  0.00  0.00    +0.000 C 
ATOM     37  C   UNL     1     -27.128  18.782   9.384  0.00  0.00    +0.000 C 
ATOM     38  C   UNL     1     -28.150  17.908  10.114  0.00  0.00    +0.000 C 
ATOM     39  C   UNL     1     -28.248  18.348  11.589  0.00  0.00    +0.000 C 
ATOM     40  C   UNL     1     -26.841  18.313  12.215  0.00  0.00    +0.000 C 
ATOM     41  C   UNL     1     -26.831  18.803  13.659  0.00  0.00    +0.000 C 
BRANCH  38  42
ATOM     42  N   UNL     1     -29.469  17.991   9.461  0.00  0.00    +0.000 NA
ATOM     43  H   UNL     1     -30.012  18.749   9.869  0.00  0.00    +0.000 HD
ATOM     44  H   UNL     1     -29.970  17.126   9.692  0.00  0.00    +0.000 HD
ENDBRANCH  38  42
BRANCH  39  45
ATOM     45  O   UNL     1     -28.814  19.671  11.628  0.00  0.00    +0.000 OA
ATOM     46  H   UNL     1     -28.118  20.295  11.361  0.00  0.00    +0.000 HD
ENDBRANCH  39  45
ENDBRANCH  34  36
ENDBRANCH   3  34
TORSDOF 11
ENDMDL
MODEL 8
REMARK VINA RESULT:      -5.6     13.373     18.234
REMARK  Name = 
REMARK  13 active torsions:
REMARK  status: ('A' for Active; 'I' for Inactive)
REMARK    1  A    between atoms: O_1  and  C_13
REMARK    2  A    between atoms: O_1  and  C_19
REMARK    3  A    between atoms: O_3  and  C_14
REMARK    4  A    between atoms: O_4  and  C_22
REMARK    5  A    between atoms: O_5  and  C_24
REMARK    6  A    between atoms: O_6  and  C_26
REMARK    7  A    between atoms: O_8  and  C_30
REMARK    8  A    between atoms: O_11  and  C_35
REMARK    9  A    between atoms: O_11  and  C_39
REMARK   10  A    between atoms: N_12  and  C_21
REMARK   11  A    between atoms: C_14  and  C_25
REMARK   12  A    between atoms: C_23  and  C_29
REMARK   13  A    between atoms: C_25  and  C_30
REMARK                            x       y       z     vdW  Elec       q    Type
REMARK                         _______ _______ _______ _____ _____    ______ ____
ROOT
ATOM      1  O   UNL     1     -14.766   7.328  -3.924  0.00  0.00    +0.000 OA
ATOM      2  O   UNL     1     -16.994   7.554   0.898  0.00  0.00    +0.000 OA
ATOM      3  C   UNL     1     -16.672   2.605  -3.319  0.00  0.00    +0.000 C 
ATOM      4  C   UNL     1     -17.764   1.411  -1.369  0.00  0.00    +0.000 C 
ATOM      5  C   UNL     1     -17.790   1.656  -2.883  0.00  0.00    +0.000 C 
ATOM      6  C   UNL     1     -17.927   2.732  -0.602  0.00  0.00    +0.000 C 
ATOM      7  C   UNL     1     -16.671   3.887  -2.510  0.00  0.00    +0.000 A 
ATOM      8  C   UNL     1     -17.230   3.931  -1.218  0.00  0.00    +0.000 A 
ATOM      9  C   UNL     1     -16.056   5.043  -3.025  0.00  0.00    +0.000 A 
ATOM     10  C   UNL     1     -17.181   5.135  -0.492  0.00  0.00    +0.000 A 
ATOM     11  C   UNL     1     -16.002   6.242  -2.287  0.00  0.00    +0.000 A 
ATOM     12  C   UNL     1     -16.568   6.284  -1.018  0.00  0.00    +0.000 A 
ATOM     13  C   UNL     1     -15.337   7.441  -2.844  0.00  0.00    +0.000 C 
ATOM     14  C   UNL     1     -16.521   7.533  -0.235  0.00  0.00    +0.000 C 
ATOM     15  C   UNL     1     -15.351   8.718  -2.090  0.00  0.00    +0.000 A 
ATOM     16  C   UNL     1     -15.920   8.747  -0.816  0.00  0.00    +0.000 A 
ATOM     17  C   UNL     1     -14.802   9.901  -2.608  0.00  0.00    +0.000 A 
ATOM     18  C   UNL     1     -15.939   9.934  -0.067  0.00  0.00    +0.000 A 
ATOM     19  C   UNL     1     -14.846  11.091  -1.871  0.00  0.00    +0.000 A 
ATOM     20  C   UNL     1     -15.404  11.105  -0.596  0.00  0.00    +0.000 A 
ENDROOT
BRANCH   4  21
ATOM     21  O   UNL     1     -16.542   0.768  -0.984  0.00  0.00    +0.000 OA
ATOM     22  H   UNL     1     -16.463  -0.046  -1.525  0.00  0.00    +0.000 HD
ENDBRANCH   4  21
BRANCH   9  23
ATOM     23  O   UNL     1     -15.512   4.950  -4.284  0.00  0.00    +0.000 OA
ATOM     24  H   UNL     1     -15.800   4.099  -4.690  0.00  0.00    +0.000 HD
ENDBRANCH   9  23
BRANCH  10  25
ATOM     25  O   UNL     1     -17.766   5.129   0.751  0.00  0.00    +0.000 OA
ATOM     26  H   UNL     1     -17.119   5.470   1.409  0.00  0.00    +0.000 HD
ENDBRANCH  10  25
BRANCH   4  28
ATOM     27  O   UNL     1     -19.860   0.214  -1.728  0.00  0.00    +0.000 OA
ATOM     28  C   UNL     1     -18.914   0.469  -0.974  0.00  0.00    +0.000 C 
BRANCH  28  29
ATOM     29  C   UNL     1     -18.865  -0.146   0.423  0.00  0.00    +0.000 C 
BRANCH  29  30
ATOM     30  O   UNL     1     -18.010  -1.282   0.459  0.00  0.00    +0.000 OA
ATOM     31  H   UNL     1     -17.310  -1.075   1.111  0.00  0.00    +0.000 HD
ENDBRANCH  29  30
ENDBRANCH  28  29
ENDBRANCH   4  28
BRANCH  17  32
ATOM     32  O   UNL     1     -14.302   9.975  -3.881  0.00  0.00    +0.000 OA
ATOM     33  C   UNL     1     -14.402  11.308  -4.385  0.00  0.00    +0.000 C 
ENDBRANCH  17  32
BRANCH   3  34
ATOM     34  O   UNL     1     -15.406   1.971  -3.070  0.00  0.00    +0.000 OA
BRANCH  34  36
ATOM     35  O   UNL     1     -14.806  -0.276  -3.442  0.00  0.00    +0.000 OA
ATOM     36  C   UNL     1     -15.092   0.980  -4.053  0.00  0.00    +0.000 C 
ATOM     37  C   UNL     1     -13.931   1.480  -4.915  0.00  0.00    +0.000 C 
ATOM     38  C   UNL     1     -12.625   1.503  -4.118  0.00  0.00    +0.000 C 
ATOM     39  C   UNL     1     -12.375   0.115  -3.494  0.00  0.00    +0.000 C 
ATOM     40  C   UNL     1     -13.606  -0.285  -2.658  0.00  0.00    +0.000 C 
ATOM     41  C   UNL     1     -13.478  -1.681  -2.059  0.00  0.00    +0.000 C 
BRANCH  38  42
ATOM     42  N   UNL     1     -11.494   1.893  -4.980  0.00  0.00    +0.000 NA
ATOM     43  H   UNL     1     -10.872   1.098  -5.119  0.00  0.00    +0.000 HD
ATOM     44  H   UNL     1     -10.951   2.590  -4.460  0.00  0.00    +0.000 HD
ENDBRANCH  38  42
BRANCH  39  45
ATOM     45  O   UNL     1     -12.130  -0.822  -4.560  0.00  0.00    +0.000 OA
ATOM     46  H   UNL     1     -12.991  -1.066  -4.939  0.00  0.00    +0.000 HD
ENDBRANCH  39  45
ENDBRANCH  34  36
ENDBRANCH   3  34
TORSDOF 11
ENDMDL
MODEL 9
REMARK VINA RESULT:      -5.5     18.202     21.072
REMARK  Name = 
REMARK  13 active torsions:
REMARK  status: ('A' for Active; 'I' for Inactive)
REMARK    1  A    between atoms: O_1  and  C_13
REMARK    2  A    between atoms: O_1  and  C_19
REMARK    3  A    between atoms: O_3  and  C_14
REMARK    4  A    between atoms: O_4  and  C_22
REMARK    5  A    between atoms: O_5  and  C_24
REMARK    6  A    between atoms: O_6  and  C_26
REMARK    7  A    between atoms: O_8  and  C_30
REMARK    8  A    between atoms: O_11  and  C_35
REMARK    9  A    between atoms: O_11  and  C_39
REMARK   10  A    between atoms: N_12  and  C_21
REMARK   11  A    between atoms: C_14  and  C_25
REMARK   12  A    between atoms: C_23  and  C_29
REMARK   13  A    between atoms: C_25  and  C_30
REMARK                            x       y       z     vdW  Elec       q    Type
REMARK                         _______ _______ _______ _____ _____    ______ ____
ROOT
ATOM      1  O   UNL     1     -10.674  16.782  23.862  0.00  0.00    +0.000 OA
ATOM      2  O   UNL     1     -14.155  19.404  20.815  0.00  0.00    +0.000 OA
ATOM      3  C   UNL     1      -8.051  17.548  19.521  0.00  0.00    +0.000 C 
ATOM      4  C   UNL     1      -8.684  18.486  17.254  0.00  0.00    +0.000 C 
ATOM      5  C   UNL     1      -7.618  18.440  18.357  0.00  0.00    +0.000 C 
ATOM      6  C   UNL     1     -10.012  19.025  17.805  0.00  0.00    +0.000 C 
ATOM      7  C   UNL     1      -9.425  17.923  20.039  0.00  0.00    +0.000 A 
ATOM      8  C   UNL     1     -10.357  18.585  19.216  0.00  0.00    +0.000 A 
ATOM      9  C   UNL     1      -9.808  17.560  21.344  0.00  0.00    +0.000 A 
ATOM     10  C   UNL     1     -11.631  18.888  19.730  0.00  0.00    +0.000 A 
ATOM     11  C   UNL     1     -11.090  17.857  21.847  0.00  0.00    +0.000 A 
ATOM     12  C   UNL     1     -12.000  18.525  21.035  0.00  0.00    +0.000 A 
ATOM     13  C   UNL     1     -11.475  17.454  23.218  0.00  0.00    +0.000 C 
ATOM     14  C   UNL     1     -13.345  18.845  21.549  0.00  0.00    +0.000 C 
ATOM     15  C   UNL     1     -12.799  17.837  23.763  0.00  0.00    +0.000 A 
ATOM     16  C   UNL     1     -13.706  18.503  22.937  0.00  0.00    +0.000 A 
ATOM     17  C   UNL     1     -13.181  17.545  25.082  0.00  0.00    +0.000 A 
ATOM     18  C   UNL     1     -14.974  18.870  23.414  0.00  0.00    +0.000 A 
ATOM     19  C   UNL     1     -14.436  17.934  25.565  0.00  0.00    +0.000 A 
ATOM     20  C   UNL     1     -15.336  18.587  24.728  0.00  0.00    +0.000 A 
ENDROOT
BRANCH   4  21
ATOM     21  O   UNL     1      -8.880  17.184  16.688  0.00  0.00    +0.000 OA
ATOM     22  H   UNL     1      -8.176  17.053  16.017  0.00  0.00    +0.000 HD
ENDBRANCH   4  21
BRANCH   9  23
ATOM     23  O   UNL     1      -8.872  16.904  22.108  0.00  0.00    +0.000 OA
ATOM     24  H   UNL     1      -9.014  15.932  22.016  0.00  0.00    +0.000 HD
ENDBRANCH   9  23
BRANCH  10  25
ATOM     25  O   UNL     1     -12.489  19.558  18.892  0.00  0.00    +0.000 OA
ATOM     26  H   UNL     1     -12.404  20.525  19.057  0.00  0.00    +0.000 HD
ENDBRANCH  10  25
BRANCH   4  28
ATOM     27  O   UNL     1      -7.114  19.969  16.118  0.00  0.00    +0.000 OA
ATOM     28  C   UNL     1      -8.215  19.407  16.114  0.00  0.00    +0.000 C 
BRANCH  28  29
ATOM     29  C   UNL     1      -9.182  19.631  14.954  0.00  0.00    +0.000 C 
BRANCH  29  30
ATOM     30  O   UNL     1      -9.290  18.470  14.139  0.00  0.00    +0.000 OA
ATOM     31  H   UNL     1      -9.541  18.787  13.247  0.00  0.00    +0.000 HD
ENDBRANCH  29  30
ENDBRANCH  28  29
ENDBRANCH   4  28
BRANCH  17  32
ATOM     32  O   UNL     1     -12.320  16.970  25.978  0.00  0.00    +0.000 OA
ATOM     33  C   UNL     1     -12.753  17.209  27.319  0.00  0.00    +0.000 C 
ENDBRANCH  17  32
BRANCH   3  34
ATOM     34  O   UNL     1      -8.154  16.193  19.051  0.00  0.00    +0.000 OA
BRANCH  34  36
ATOM     35  O   UNL     1      -6.765  15.085  17.506  0.00  0.00    +0.000 OA
ATOM     36  C   UNL     1      -6.873  15.595  18.833  0.00  0.00    +0.000 C 
ATOM     37  C   UNL     1      -6.637  14.514  19.889  0.00  0.00    +0.000 C 
ATOM     38  C   UNL     1      -7.550  13.308  19.653  0.00  0.00    +0.000 C 
ATOM     39  C   UNL     1      -7.376  12.804  18.206  0.00  0.00    +0.000 C 
ATOM     40  C   UNL     1      -7.629  13.974  17.236  0.00  0.00    +0.000 C 
ATOM     41  C   UNL     1      -7.409  13.583  15.779  0.00  0.00    +0.000 C 
BRANCH  38  42
ATOM     42  N   UNL     1      -7.250  12.231  20.615  0.00  0.00    +0.000 NA
ATOM     43  H   UNL     1      -8.113  11.780  20.912  0.00  0.00    +0.000 HD
ATOM     44  H   UNL     1      -6.863  12.680  21.452  0.00  0.00    +0.000 HD
ENDBRANCH  38  42
BRANCH  39  45
ATOM     45  O   UNL     1      -6.042  12.279  18.068  0.00  0.00    +0.000 OA
ATOM     46  H   UNL     1      -5.974  11.883  17.183  0.00  0.00    +0.000 HD
ENDBRANCH  39  45
ENDBRANCH  34  36
ENDBRANCH   3  34
TORSDOF 11
ENDMDL
