MODEL 1
REMARK VINA RESULT:      -6.0      0.000      0.000
REMARK  Name = Dronabinol.pdbqt.pdb
REMARK  3 active torsions:
REMARK  status: ('A' for Active; 'I' for Inactive)
REMARK    1  A    between atoms: C_13  and  O_18
REMARK    2  A    between atoms: C_16  and  C_20
REMARK    3  A    between atoms: C_21  and  C_22
REMARK                            x       y       z     vdW  Elec       q    Type
REMARK                         _______ _______ _______ _____ _____    ______ ____
ROOT
ATOM      1  O   UNL     1     -15.857   8.027  -0.145  0.00  0.00    +0.000 OA
ATOM      2  C   UNL     1     -15.268   9.846  -1.700  0.00  0.00    +0.000 A 
ATOM      3  C   UNL     1     -15.430   8.875  -2.810  0.00  0.00    +0.000 A 
ATOM      4  C   UNL     1     -15.816   9.458  -0.353  0.00  0.00    +0.000 C 
ATOM      5  C   UNL     1     -14.797  11.129  -2.151  0.00  0.00    +0.000 A 
ATOM      6  C   UNL     1     -15.985   7.549  -2.549  0.00  0.00    +0.000 A 
ATOM      7  C   UNL     1     -14.451  11.470  -3.613  0.00  0.00    +0.000 A 
ATOM      8  C   UNL     1     -15.033   9.417  -4.092  0.00  0.00    +0.000 A 
ATOM      9  C   UNL     1     -14.578  10.504  -4.667  0.00  0.00    +0.000 A 
ATOM     10  C   UNL     1     -16.169   7.207  -1.201  0.00  0.00    +0.000 A 
ATOM     11  C   UNL     1     -14.893  10.027   0.759  0.00  0.00    +0.000 C 
ATOM     12  C   UNL     1     -17.259  10.023  -0.198  0.00  0.00    +0.000 C 
ATOM     13  C   UNL     1     -16.322   6.606  -3.528  0.00  0.00    +0.000 A 
ATOM     14  C   UNL     1     -16.643   5.942  -0.848  0.00  0.00    +0.000 A 
ATOM     15  C   UNL     1     -13.541  10.421  -5.742  0.00  0.00    +0.000 C 
ATOM     16  C   UNL     1     -16.972   5.018  -1.834  0.00  0.00    +0.000 A 
ATOM     17  C   UNL     1     -16.816   5.348  -3.175  0.00  0.00    +0.000 A 
ENDROOT
BRANCH  13  18
ATOM     18  O   UNL     1     -16.183   6.902  -4.855  0.00  0.00    +0.000 OA
ATOM     19  H   UNL     1     -16.956   6.565  -5.342  0.00  0.00    +0.000 HD
ENDBRANCH  13  18
BRANCH  16  20
ATOM     20  C   UNL     1     -17.480   3.739  -1.469  0.00  0.00    +0.000 C 
ATOM     21  C   UNL     1     -18.031   2.367  -1.064  0.00  0.00    +0.000 C 
BRANCH  21  22
ATOM     22  C   UNL     1     -18.588   1.002  -0.653  0.00  0.00    +0.000 C 
ATOM     23  C   UNL     1     -19.141  -0.366  -0.239  0.00  0.00    +0.000 C 
ATOM     24  C   UNL     1     -19.692  -1.734   0.178  0.00  0.00    +0.000 C 
ENDBRANCH  21  22
ENDBRANCH  16  20
TORSDOF 3
ENDMDL
MODEL 2
REMARK VINA RESULT:      -5.9     19.100     22.295
REMARK  Name = Dronabinol.pdbqt.pdb
REMARK  3 active torsions:
REMARK  status: ('A' for Active; 'I' for Inactive)
REMARK    1  A    between atoms: C_13  and  O_18
REMARK    2  A    between atoms: C_16  and  C_20
REMARK    3  A    between atoms: C_21  and  C_22
REMARK                            x       y       z     vdW  Elec       q    Type
REMARK                         _______ _______ _______ _____ _____    ______ ____
ROOT
ATOM      1  O   UNL     1      -8.174   5.072  15.022  0.00  0.00    +0.000 OA
ATOM      2  C   UNL     1      -9.522   4.375  16.964  0.00  0.00    +0.000 A 
ATOM      3  C   UNL     1      -8.270   3.872  17.582  0.00  0.00    +0.000 A 
ATOM      4  C   UNL     1      -9.390   5.289  15.775  0.00  0.00    +0.000 C 
ATOM      5  C   UNL     1     -10.688   4.081  17.755  0.00  0.00    +0.000 A 
ATOM      6  C   UNL     1      -6.979   4.160  16.962  0.00  0.00    +0.000 A 
ATOM      7  C   UNL     1     -10.670   3.293  19.079  0.00  0.00    +0.000 A 
ATOM      8  C   UNL     1      -8.503   3.154  18.817  0.00  0.00    +0.000 A 
ATOM      9  C   UNL     1      -9.453   2.781  19.641  0.00  0.00    +0.000 A 
ATOM     10  C   UNL     1      -7.018   4.758  15.694  0.00  0.00    +0.000 A 
ATOM     11  C   UNL     1     -10.559   5.018  14.789  0.00  0.00    +0.000 C 
ATOM     12  C   UNL     1      -9.419   6.770  16.254  0.00  0.00    +0.000 C 
ATOM     13  C   UNL     1      -5.729   3.870  17.524  0.00  0.00    +0.000 A 
ATOM     14  C   UNL     1      -5.838   5.023  14.997  0.00  0.00    +0.000 A 
ATOM     15  C   UNL     1      -9.426   1.424  20.270  0.00  0.00    +0.000 C 
ATOM     16  C   UNL     1      -4.606   4.727  15.570  0.00  0.00    +0.000 A 
ATOM     17  C   UNL     1      -4.548   4.153  16.834  0.00  0.00    +0.000 A 
ENDROOT
BRANCH  13  18
ATOM     18  O   UNL     1      -5.640   3.308  18.766  0.00  0.00    +0.000 OA
ATOM     19  H   UNL     1      -4.896   3.712  19.248  0.00  0.00    +0.000 HD
ENDBRANCH  13  18
BRANCH  16  20
ATOM     20  C   UNL     1      -3.405   5.023  14.866  0.00  0.00    +0.000 C 
ATOM     21  C   UNL     1      -2.108   5.329  14.108  0.00  0.00    +0.000 C 
BRANCH  21  22
ATOM     22  C   UNL     1      -0.811   5.624  13.349  0.00  0.00    +0.000 C 
ATOM     23  C   UNL     1       0.488   5.914  12.591  0.00  0.00    +0.000 C 
ATOM     24  C   UNL     1       1.787   6.202  11.831  0.00  0.00    +0.000 C 
ENDBRANCH  21  22
ENDBRANCH  16  20
TORSDOF 3
ENDMDL
MODEL 3
REMARK VINA RESULT:      -5.7     10.766     13.813
REMARK  Name = Dronabinol.pdbqt.pdb
REMARK  3 active torsions:
REMARK  status: ('A' for Active; 'I' for Inactive)
REMARK    1  A    between atoms: C_13  and  O_18
REMARK    2  A    between atoms: C_16  and  C_20
REMARK    3  A    between atoms: C_21  and  C_22
REMARK                            x       y       z     vdW  Elec       q    Type
REMARK                         _______ _______ _______ _____ _____    ______ ____
ROOT
ATOM      1  O   UNL     1     -25.142  11.152   3.686  0.00  0.00    +0.000 OA
ATOM      2  C   UNL     1     -25.850   8.858   3.126  0.00  0.00    +0.000 A 
ATOM      3  C   UNL     1     -25.070   8.390   4.298  0.00  0.00    +0.000 A 
ATOM      4  C   UNL     1     -26.136  10.333   3.027  0.00  0.00    +0.000 C 
ATOM      5  C   UNL     1     -26.415   7.774   2.367  0.00  0.00    +0.000 A 
ATOM      6  C   UNL     1     -24.500   9.357   5.233  0.00  0.00    +0.000 A 
ATOM      7  C   UNL     1     -26.209   6.281   2.689  0.00  0.00    +0.000 A 
ATOM      8  C   UNL     1     -25.007   6.947   4.390  0.00  0.00    +0.000 A 
ATOM      9  C   UNL     1     -25.418   5.848   3.805  0.00  0.00    +0.000 A 
ATOM     10  C   UNL     1     -24.579  10.707   4.857  0.00  0.00    +0.000 A 
ATOM     11  C   UNL     1     -26.119  10.759   1.533  0.00  0.00    +0.000 C 
ATOM     12  C   UNL     1     -27.526  10.636   3.659  0.00  0.00    +0.000 C 
ATOM     13  C   UNL     1     -23.876   9.039   6.446  0.00  0.00    +0.000 A 
ATOM     14  C   UNL     1     -24.016  11.701   5.658  0.00  0.00    +0.000 A 
ATOM     15  C   UNL     1     -24.506   4.670   3.671  0.00  0.00    +0.000 C 
ATOM     16  C   UNL     1     -23.399  11.367   6.858  0.00  0.00    +0.000 A 
ATOM     17  C   UNL     1     -23.330  10.037   7.256  0.00  0.00    +0.000 A 
ENDROOT
BRANCH  13  18
ATOM     18  O   UNL     1     -23.795   7.741   6.866  0.00  0.00    +0.000 OA
ATOM     19  H   UNL     1     -22.877   7.430   6.772  0.00  0.00    +0.000 HD
ENDBRANCH  13  18
BRANCH  16  20
ATOM     20  C   UNL     1     -22.850  12.387   7.685  0.00  0.00    +0.000 C 
ATOM     21  C   UNL     1     -22.249  13.477   8.581  0.00  0.00    +0.000 C 
BRANCH  21  22
ATOM     22  C   UNL     1     -21.642  14.559   9.478  0.00  0.00    +0.000 C 
ATOM     23  C   UNL     1     -21.037  15.640  10.379  0.00  0.00    +0.000 C 
ATOM     24  C   UNL     1     -20.431  16.719  11.283  0.00  0.00    +0.000 C 
ENDBRANCH  21  22
ENDBRANCH  16  20
TORSDOF 3
ENDMDL
MODEL 4
REMARK VINA RESULT:      -5.6      2.001      4.202
REMARK  Name = Dronabinol.pdbqt.pdb
REMARK  3 active torsions:
REMARK  status: ('A' for Active; 'I' for Inactive)
REMARK    1  A    between atoms: C_13  and  O_18
REMARK    2  A    between atoms: C_16  and  C_20
REMARK    3  A    between atoms: C_21  and  C_22
REMARK                            x       y       z     vdW  Elec       q    Type
REMARK                         _______ _______ _______ _____ _____    ______ ____
ROOT
ATOM      1  O   UNL     1     -17.193   6.109  -3.860  0.00  0.00    +0.000 OA
ATOM      2  C   UNL     1     -16.023   7.769  -2.463  0.00  0.00    +0.000 A 
ATOM      3  C   UNL     1     -16.490   7.016  -1.273  0.00  0.00    +0.000 A 
ATOM      4  C   UNL     1     -16.130   7.089  -3.801  0.00  0.00    +0.000 C 
ATOM      5  C   UNL     1     -15.320   8.975  -2.114  0.00  0.00    +0.000 A 
ATOM      6  C   UNL     1     -17.145   5.720  -1.437  0.00  0.00    +0.000 A 
ATOM      7  C   UNL     1     -15.101   9.473  -0.673  0.00  0.00    +0.000 A 
ATOM      8  C   UNL     1     -16.179   7.684  -0.028  0.00  0.00    +0.000 A 
ATOM      9  C   UNL     1     -15.594   8.749   0.464  0.00  0.00    +0.000 A 
ATOM     10  C   UNL     1     -17.457   5.343  -2.752  0.00  0.00    +0.000 A 
ATOM     11  C   UNL     1     -16.462   8.147  -4.889  0.00  0.00    +0.000 C 
ATOM     12  C   UNL     1     -14.784   6.379  -4.131  0.00  0.00    +0.000 C 
ATOM     13  C   UNL     1     -17.494   4.852  -0.394  0.00  0.00    +0.000 A 
ATOM     14  C   UNL     1     -18.132   4.147  -3.006  0.00  0.00    +0.000 A 
ATOM     15  C   UNL     1     -16.194   9.482   1.622  0.00  0.00    +0.000 C 
ATOM     16  C   UNL     1     -18.471   3.299  -1.959  0.00  0.00    +0.000 A 
ATOM     17  C   UNL     1     -18.151   3.647  -0.652  0.00  0.00    +0.000 A 
ENDROOT
BRANCH  13  18
ATOM     18  O   UNL     1     -17.190   5.165   0.901  0.00  0.00    +0.000 OA
ATOM     19  H   UNL     1     -16.752   4.402   1.321  0.00  0.00    +0.000 HD
ENDBRANCH  13  18
BRANCH  16  20
ATOM     20  C   UNL     1     -19.135   2.068  -2.226  0.00  0.00    +0.000 C 
ATOM     21  C   UNL     1     -19.859   0.750  -2.522  0.00  0.00    +0.000 C 
BRANCH  21  22
ATOM     22  C   UNL     1     -20.587  -0.563  -2.826  0.00  0.00    +0.000 C 
ATOM     23  C   UNL     1     -21.316  -1.876  -3.125  0.00  0.00    +0.000 C 
ATOM     24  C   UNL     1     -22.048  -3.189  -3.423  0.00  0.00    +0.000 C 
ENDBRANCH  21  22
ENDBRANCH  16  20
TORSDOF 3
ENDMDL
MODEL 5
REMARK VINA RESULT:      -5.3      3.817      4.313
REMARK  Name = Dronabinol.pdbqt.pdb
REMARK  3 active torsions:
REMARK  status: ('A' for Active; 'I' for Inactive)
REMARK    1  A    between atoms: C_13  and  O_18
REMARK    2  A    between atoms: C_16  and  C_20
REMARK    3  A    between atoms: C_21  and  C_22
REMARK                            x       y       z     vdW  Elec       q    Type
REMARK                         _______ _______ _______ _____ _____    ______ ____
ROOT
ATOM      1  O   UNL     1     -15.085   8.366  -1.472  0.00  0.00    +0.000 OA
ATOM      2  C   UNL     1     -14.921  10.826  -1.451  0.00  0.00    +0.000 A 
ATOM      3  C   UNL     1     -14.500  10.755  -2.871  0.00  0.00    +0.000 A 
ATOM      4  C   UNL     1     -15.535   9.591  -0.846  0.00  0.00    +0.000 C 
ATOM      5  C   UNL     1     -14.879  12.166  -0.926  0.00  0.00    +0.000 A 
ATOM      6  C   UNL     1     -14.567   9.488  -3.594  0.00  0.00    +0.000 A 
ATOM      7  C   UNL     1     -14.410  13.400  -1.718  0.00  0.00    +0.000 A 
ATOM      8  C   UNL     1     -14.093  12.040  -3.401  0.00  0.00    +0.000 A 
ATOM      9  C   UNL     1     -13.969  13.305  -3.081  0.00  0.00    +0.000 A 
ATOM     10  C   UNL     1     -14.865   8.351  -2.828  0.00  0.00    +0.000 A 
ATOM     11  C   UNL     1     -15.116   9.488   0.646  0.00  0.00    +0.000 C 
ATOM     12  C   UNL     1     -17.085   9.670  -0.968  0.00  0.00    +0.000 C 
ATOM     13  C   UNL     1     -14.340   9.325  -4.967  0.00  0.00    +0.000 A 
ATOM     14  C   UNL     1     -14.899   7.086  -3.417  0.00  0.00    +0.000 A 
ATOM     15  C   UNL     1     -12.790  14.098  -3.548  0.00  0.00    +0.000 C 
ATOM     16  C   UNL     1     -14.671   6.944  -4.782  0.00  0.00    +0.000 A 
ATOM     17  C   UNL     1     -14.394   8.062  -5.559  0.00  0.00    +0.000 A 
ENDROOT
BRANCH  13  18
ATOM     18  O   UNL     1     -14.069  10.405  -5.758  0.00  0.00    +0.000 OA
ATOM     19  H   UNL     1     -13.353  10.929  -5.353  0.00  0.00    +0.000 HD
ENDBRANCH  13  18
BRANCH  16  20
ATOM     20  C   UNL     1     -14.732   5.655  -5.383  0.00  0.00    +0.000 C 
ATOM     21  C   UNL     1     -14.796   4.261  -6.019  0.00  0.00    +0.000 C 
BRANCH  21  22
ATOM     22  C   UNL     1     -14.862   2.865  -6.643  0.00  0.00    +0.000 C 
ATOM     23  C   UNL     1     -14.923   1.468  -7.270  0.00  0.00    +0.000 C 
ATOM     24  C   UNL     1     -14.982   0.070  -7.894  0.00  0.00    +0.000 C 
ENDBRANCH  21  22
ENDBRANCH  16  20
TORSDOF 3
ENDMDL
MODEL 6
REMARK VINA RESULT:      -5.3     18.641     21.095
REMARK  Name = Dronabinol.pdbqt.pdb
REMARK  3 active torsions:
REMARK  status: ('A' for Active; 'I' for Inactive)
REMARK    1  A    between atoms: C_13  and  O_18
REMARK    2  A    between atoms: C_16  and  C_20
REMARK    3  A    between atoms: C_21  and  C_22
REMARK                            x       y       z     vdW  Elec       q    Type
REMARK                         _______ _______ _______ _____ _____    ______ ____
ROOT
ATOM      1  O   UNL     1      -1.406  15.142  12.444  0.00  0.00    +0.000 OA
ATOM      2  C   UNL     1      -1.457  16.419  10.336  0.00  0.00    +0.000 A 
ATOM      3  C   UNL     1      -2.920  16.176  10.288  0.00  0.00    +0.000 A 
ATOM      4  C   UNL     1      -0.751  16.149  11.637  0.00  0.00    +0.000 C 
ATOM      5  C   UNL     1      -0.970  17.103   9.167  0.00  0.00    +0.000 A 
ATOM      6  C   UNL     1      -3.601  15.573  11.431  0.00  0.00    +0.000 A 
ATOM      7  C   UNL     1      -1.844  17.509   7.965  0.00  0.00    +0.000 A 
ATOM      8  C   UNL     1      -3.525  16.635   9.056  0.00  0.00    +0.000 A 
ATOM      9  C   UNL     1      -3.251  17.230   7.920  0.00  0.00    +0.000 A 
ATOM     10  C   UNL     1      -2.779  15.087  12.459  0.00  0.00    +0.000 A 
ATOM     11  C   UNL     1       0.673  15.602  11.344  0.00  0.00    +0.000 C 
ATOM     12  C   UNL     1      -0.664  17.466  12.464  0.00  0.00    +0.000 C 
ATOM     13  C   UNL     1      -4.988  15.431  11.564  0.00  0.00    +0.000 A 
ATOM     14  C   UNL     1      -3.332  14.446  13.568  0.00  0.00    +0.000 A 
ATOM     15  C   UNL     1      -3.889  16.773   6.647  0.00  0.00    +0.000 C 
ATOM     16  C   UNL     1      -4.712  14.314  13.683  0.00  0.00    +0.000 A 
ATOM     17  C   UNL     1      -5.542  14.807  12.684  0.00  0.00    +0.000 A 
ENDROOT
BRANCH  13  18
ATOM     18  O   UNL     1      -5.830  15.909  10.601  0.00  0.00    +0.000 OA
ATOM     19  H   UNL     1      -6.619  16.292  11.025  0.00  0.00    +0.000 HD
ENDBRANCH  13  18
BRANCH  16  20
ATOM     20  C   UNL     1      -5.273  13.683  14.829  0.00  0.00    +0.000 C 
ATOM     21  C   UNL     1      -5.866  12.997  16.066  0.00  0.00    +0.000 C 
BRANCH  21  22
ATOM     22  C   UNL     1      -6.447  12.309  17.304  0.00  0.00    +0.000 C 
ATOM     23  C   UNL     1      -7.028  11.617  18.541  0.00  0.00    +0.000 C 
ATOM     24  C   UNL     1      -7.607  10.923  19.779  0.00  0.00    +0.000 C 
ENDBRANCH  21  22
ENDBRANCH  16  20
TORSDOF 3
ENDMDL
MODEL 7
REMARK VINA RESULT:      -5.2     13.984     17.358
REMARK  Name = Dronabinol.pdbqt.pdb
REMARK  3 active torsions:
REMARK  status: ('A' for Active; 'I' for Inactive)
REMARK    1  A    between atoms: C_13  and  O_18
REMARK    2  A    between atoms: C_16  and  C_20
REMARK    3  A    between atoms: C_21  and  C_22
REMARK                            x       y       z     vdW  Elec       q    Type
REMARK                         _______ _______ _______ _____ _____    ______ ____
ROOT
ATOM      1  O   UNL     1      -5.100  16.763   1.971  0.00  0.00    +0.000 OA
ATOM      2  C   UNL     1      -4.228  15.491   0.048  0.00  0.00    +0.000 A 
ATOM      3  C   UNL     1      -3.141  15.005   0.932  0.00  0.00    +0.000 A 
ATOM      4  C   UNL     1      -5.416  16.143   0.702  0.00  0.00    +0.000 C 
ATOM      5  C   UNL     1      -4.072  15.053  -1.314  0.00  0.00    +0.000 A 
ATOM      6  C   UNL     1      -3.186  15.278   2.367  0.00  0.00    +0.000 A 
ATOM      7  C   UNL     1      -2.892  14.208  -1.831  0.00  0.00    +0.000 A 
ATOM      8  C   UNL     1      -2.139  14.239   0.222  0.00  0.00    +0.000 A 
ATOM      9  C   UNL     1      -1.830  13.779  -0.966  0.00  0.00    +0.000 A 
ATOM     10  C   UNL     1      -4.189  16.158   2.801  0.00  0.00    +0.000 A 
ATOM     11  C   UNL     1      -5.943  17.283  -0.212  0.00  0.00    +0.000 C 
ATOM     12  C   UNL     1      -6.530  15.079   0.934  0.00  0.00    +0.000 C 
ATOM     13  C   UNL     1      -2.305  14.750   3.319  0.00  0.00    +0.000 A 
ATOM     14  C   UNL     1      -4.280  16.523   4.145  0.00  0.00    +0.000 A 
ATOM     15  C   UNL     1      -0.413  13.799  -1.446  0.00  0.00    +0.000 C 
ATOM     16  C   UNL     1      -3.396  15.989   5.076  0.00  0.00    +0.000 A 
ATOM     17  C   UNL     1      -2.410  15.100   4.667  0.00  0.00    +0.000 A 
ENDROOT
BRANCH  13  18
ATOM     18  O   UNL     1      -1.327  13.871   2.948  0.00  0.00    +0.000 OA
ATOM     19  H   UNL     1      -1.377  13.078   3.513  0.00  0.00    +0.000 HD
ENDBRANCH  13  18
BRANCH  16  20
ATOM     20  C   UNL     1      -3.510  16.345   6.450  0.00  0.00    +0.000 C 
ATOM     21  C   UNL     1      -3.638  16.715   7.932  0.00  0.00    +0.000 C 
BRANCH  21  22
ATOM     22  C   UNL     1      -3.768  17.075   9.415  0.00  0.00    +0.000 C 
ATOM     23  C   UNL     1      -3.901  17.430  10.900  0.00  0.00    +0.000 C 
ATOM     24  C   UNL     1      -4.033  17.783  12.385  0.00  0.00    +0.000 C 
ENDBRANCH  21  22
ENDBRANCH  16  20
TORSDOF 3
ENDMDL
MODEL 8
REMARK VINA RESULT:      -5.1      9.152     12.840
REMARK  Name = Dronabinol.pdbqt.pdb
REMARK  3 active torsions:
REMARK  status: ('A' for Active; 'I' for Inactive)
REMARK    1  A    between atoms: C_13  and  O_18
REMARK    2  A    between atoms: C_16  and  C_20
REMARK    3  A    between atoms: C_21  and  C_22
REMARK                            x       y       z     vdW  Elec       q    Type
REMARK                         _______ _______ _______ _____ _____    ______ ____
ROOT
ATOM      1  O   UNL     1     -10.720  -2.188   3.523  0.00  0.00    +0.000 OA
ATOM      2  C   UNL     1     -12.889  -2.654   2.450  0.00  0.00    +0.000 A 
ATOM      3  C   UNL     1     -12.681  -1.438   1.626  0.00  0.00    +0.000 A 
ATOM      4  C   UNL     1     -11.701  -3.200   3.195  0.00  0.00    +0.000 C 
ATOM      5  C   UNL     1     -14.174  -3.263   2.224  0.00  0.00    +0.000 A 
ATOM      6  C   UNL     1     -11.397  -0.741   1.659  0.00  0.00    +0.000 A 
ATOM      7  C   UNL     1     -15.249  -2.707   1.271  0.00  0.00    +0.000 A 
ATOM      8  C   UNL     1     -13.833  -1.104   0.816  0.00  0.00    +0.000 A 
ATOM      9  C   UNL     1     -15.043  -1.507   0.511  0.00  0.00    +0.000 A 
ATOM     10  C   UNL     1     -10.479  -1.176   2.627  0.00  0.00    +0.000 A 
ATOM     11  C   UNL     1     -12.174  -3.793   4.550  0.00  0.00    +0.000 C 
ATOM     12  C   UNL     1     -11.010  -4.299   2.336  0.00  0.00    +0.000 C 
ATOM     13  C   UNL     1     -11.031   0.322   0.823  0.00  0.00    +0.000 A 
ATOM     14  C   UNL     1      -9.246  -0.538   2.773  0.00  0.00    +0.000 A 
ATOM     15  C   UNL     1     -16.155  -0.520   0.345  0.00  0.00    +0.000 C 
ATOM     16  C   UNL     1      -8.900   0.516   1.934  0.00  0.00    +0.000 A 
ATOM     17  C   UNL     1      -9.790   0.946   0.957  0.00  0.00    +0.000 A 
ENDROOT
BRANCH  13  18
ATOM     18  O   UNL     1     -11.883   0.765  -0.149  0.00  0.00    +0.000 OA
ATOM     19  H   UNL     1     -11.438   1.453  -0.676  0.00  0.00    +0.000 HD
ENDBRANCH  13  18
BRANCH  16  20
ATOM     20  C   UNL     1      -7.631   1.146   2.070  0.00  0.00    +0.000 C 
ATOM     21  C   UNL     1      -6.261   1.817   2.227  0.00  0.00    +0.000 C 
BRANCH  21  22
ATOM     22  C   UNL     1      -4.891   2.480   2.391  0.00  0.00    +0.000 C 
ATOM     23  C   UNL     1      -3.517   3.139   2.551  0.00  0.00    +0.000 C 
ATOM     24  C   UNL     1      -2.143   3.799   2.709  0.00  0.00    +0.000 C 
ENDBRANCH  21  22
ENDBRANCH  16  20
TORSDOF 3
ENDMDL
MODEL 9
REMARK VINA RESULT:      -5.0     19.309     22.603
REMARK  Name = Dronabinol.pdbqt.pdb
REMARK  3 active torsions:
REMARK  status: ('A' for Active; 'I' for Inactive)
REMARK    1  A    between atoms: C_13  and  O_18
REMARK    2  A    between atoms: C_16  and  C_20
REMARK    3  A    between atoms: C_21  and  C_22
REMARK                            x       y       z     vdW  Elec       q    Type
REMARK                         _______ _______ _______ _____ _____    ______ ____
ROOT
ATOM      1  O   UNL     1      -8.230   5.405  15.741  0.00  0.00    +0.000 OA
ATOM      2  C   UNL     1      -9.490   5.996  17.775  0.00  0.00    +0.000 A 
ATOM      3  C   UNL     1      -8.190   6.107  18.482  0.00  0.00    +0.000 A 
ATOM      4  C   UNL     1      -9.461   5.951  16.271  0.00  0.00    +0.000 C 
ATOM      5  C   UNL     1     -10.615   6.178  18.654  0.00  0.00    +0.000 A 
ATOM      6  C   UNL     1      -6.939   6.040  17.730  0.00  0.00    +0.000 A 
ATOM      7  C   UNL     1     -10.509   6.419  20.172  0.00  0.00    +0.000 A 
ATOM      8  C   UNL     1      -8.340   6.324  19.905  0.00  0.00    +0.000 A 
ATOM      9  C   UNL     1      -9.242   6.485  20.843  0.00  0.00    +0.000 A 
ATOM     10  C   UNL     1      -7.045   5.687  16.376  0.00  0.00    +0.000 A 
ATOM     11  C   UNL     1     -10.595   5.019  15.765  0.00  0.00    +0.000 C 
ATOM     12  C   UNL     1      -9.649   7.389  15.705  0.00  0.00    +0.000 C 
ATOM     13  C   UNL     1      -5.663   6.278  18.258  0.00  0.00    +0.000 A 
ATOM     14  C   UNL     1      -5.903   5.544  15.588  0.00  0.00    +0.000 A 
ATOM     15  C   UNL     1      -9.067   5.847  22.185  0.00  0.00    +0.000 C 
ATOM     16  C   UNL     1      -4.645   5.783  16.129  0.00  0.00    +0.000 A 
ATOM     17  C   UNL     1      -4.522   6.153  17.463  0.00  0.00    +0.000 A 
ENDROOT
BRANCH  13  18
ATOM     18  O   UNL     1      -5.511   6.646  19.565  0.00  0.00    +0.000 OA
ATOM     19  H   UNL     1      -4.939   7.433  19.612  0.00  0.00    +0.000 HD
ENDBRANCH  13  18
BRANCH  16  20
ATOM     20  C   UNL     1      -3.484   5.661  15.314  0.00  0.00    +0.000 C 
ATOM     21  C   UNL     1      -2.234   5.544  14.434  0.00  0.00    +0.000 C 
BRANCH  21  22
ATOM     22  C   UNL     1      -0.983   5.437  13.557  0.00  0.00    +0.000 C 
ATOM     23  C   UNL     1       0.266   5.326  12.677  0.00  0.00    +0.000 C 
ATOM     24  C   UNL     1       1.514   5.215  11.794  0.00  0.00    +0.000 C 
ENDBRANCH  21  22
ENDBRANCH  16  20
TORSDOF 3
ENDMDL
