REMARK  Name = Dronabinol.pdbqt.pdb
REMARK  3 active torsions:
REMARK  status: ('A' for Active; 'I' for Inactive)
REMARK    1  A    between atoms: C_13  and  O_18
REMARK    2  A    between atoms: C_16  and  C_20
REMARK    3  A    between atoms: C_21  and  C_22
REMARK                            x       y       z     vdW  Elec       q    Type
REMARK                         _______ _______ _______ _____ _____    ______ ____
ROOT
ATOM      1  O   UNL     1      -0.746  -2.049   0.372  0.00  0.00    +0.000 OA
ATOM      2  C   UNL     1      -2.956  -1.007   0.047  0.00  0.00    +0.000 A 
ATOM      3  C   UNL     1      -2.270   0.308   0.012  0.00  0.00    +0.000 A 
ATOM      4  C   UNL     1      -2.103  -2.239  -0.093  0.00  0.00    +0.000 C 
ATOM      5  C   UNL     1      -4.389  -0.886  -0.015  0.00  0.00    +0.000 A 
ATOM      6  C   UNL     1      -0.811   0.373  -0.025  0.00  0.00    +0.000 A 
ATOM      7  C   UNL     1      -5.152   0.451  -0.068  0.00  0.00    +0.000 A 
ATOM      8  C   UNL     1      -3.193   1.422  -0.027  0.00  0.00    +0.000 A 
ATOM      9  C   UNL     1      -4.471   1.714  -0.062  0.00  0.00    +0.000 A 
ATOM     10  C   UNL     1      -0.130  -0.840   0.159  0.00  0.00    +0.000 A 
ATOM     11  C   UNL     1      -2.699  -3.377   0.780  0.00  0.00    +0.000 C 
ATOM     12  C   UNL     1      -2.058  -2.672  -1.588  0.00  0.00    +0.000 C 
ATOM     13  C   UNL     1      -0.057   1.539  -0.208  0.00  0.00    +0.000 A 
ATOM     14  C   UNL     1       1.265  -0.873   0.194  0.00  0.00    +0.000 A 
ATOM     15  C   UNL     1      -5.013   2.859   0.734  0.00  0.00    +0.000 C 
ATOM     16  C   UNL     1       1.997   0.295   0.011  0.00  0.00    +0.000 A 
ATOM     17  C   UNL     1       1.339   1.502  -0.193  0.00  0.00    +0.000 A 
ENDROOT
BRANCH  13  18
ATOM     18  O   UNL     1      -0.675   2.740  -0.414  0.00  0.00    +0.000 OA
ATOM     19  H   UNL     1      -0.001   3.440  -0.486  0.00  0.00    +0.000 HD
ENDBRANCH  13  18
BRANCH  16  20
ATOM     20  C   UNL     1       3.420   0.252   0.021  0.00  0.00    +0.000 C 
ATOM     21  C   UNL     1       4.952   0.197   0.021  0.00  0.00    +0.000 C 
BRANCH  21  22
ATOM     22  C   UNL     1       6.482   0.138   0.011  0.00  0.00    +0.000 C 
ATOM     23  C   UNL     1       8.013   0.078  -0.004  0.00  0.00    +0.000 C 
ATOM     24  C   UNL     1       9.544   0.020  -0.021  0.00  0.00    +0.000 C 
ENDBRANCH  21  22
ENDBRANCH  16  20
TORSDOF 3
