MODEL 1
REMARK VINA RESULT:      -7.9      0.000      0.000
REMARK  Name = Ellipticine.pdbqt.pdb
REMARK  0 active torsions:
REMARK  status: ('A' for Active; 'I' for Inactive)
REMARK                            x       y       z     vdW  Elec       q    Type
REMARK                         _______ _______ _______ _____ _____    ______ ____
ROOT
ATOM      1  N   UNL     1     -14.904  11.423  -0.214  0.00  0.00    +0.000 N 
ATOM      2  N   UNL     1     -17.139   5.631  -1.855  0.00  0.00    +0.000 NA
ATOM      3  C   UNL     1     -15.179  10.104  -2.004  0.00  0.00    +0.000 A 
ATOM      4  C   UNL     1     -15.370  10.190  -0.621  0.00  0.00    +0.000 A 
ATOM      5  C   UNL     1     -15.583   8.917  -2.667  0.00  0.00    +0.000 A 
ATOM      6  C   UNL     1     -14.574  11.345  -2.413  0.00  0.00    +0.000 A 
ATOM      7  C   UNL     1     -15.943   9.157   0.136  0.00  0.00    +0.000 A 
ATOM      8  C   UNL     1     -16.343   7.980  -0.524  0.00  0.00    +0.000 A 
ATOM      9  C   UNL     1     -16.162   7.865  -1.919  0.00  0.00    +0.000 A 
ATOM     10  C   UNL     1     -14.419  12.138  -1.279  0.00  0.00    +0.000 A 
ATOM     11  C   UNL     1     -15.390   8.790  -4.163  0.00  0.00    +0.000 C 
ATOM     12  C   UNL     1     -14.145  11.862  -3.652  0.00  0.00    +0.000 A 
ATOM     13  C   UNL     1     -16.103   9.357   1.625  0.00  0.00    +0.000 C 
ATOM     14  C   UNL     1     -13.859  13.420  -1.312  0.00  0.00    +0.000 A 
ATOM     15  C   UNL     1     -16.922   6.905   0.168  0.00  0.00    +0.000 A 
ATOM     16  C   UNL     1     -16.580   6.672  -2.509  0.00  0.00    +0.000 A 
ATOM     17  C   UNL     1     -13.583  13.140  -3.708  0.00  0.00    +0.000 A 
ATOM     18  C   UNL     1     -13.444  13.903  -2.555  0.00  0.00    +0.000 A 
ATOM     19  C   UNL     1     -17.298   5.771  -0.527  0.00  0.00    +0.000 A 
ATOM     20  H   UNL     1     -14.923  11.747   0.746  0.00  0.00    +0.000 HD
ENDROOT
TORSDOF 0
ENDMDL
MODEL 2
REMARK VINA RESULT:      -7.7      1.758      5.461
REMARK  Name = Ellipticine.pdbqt.pdb
REMARK  0 active torsions:
REMARK  status: ('A' for Active; 'I' for Inactive)
REMARK                            x       y       z     vdW  Elec       q    Type
REMARK                         _______ _______ _______ _____ _____    ______ ____
ROOT
ATOM      1  N   UNL     1     -15.163  11.187  -0.164  0.00  0.00    +0.000 N 
ATOM      2  N   UNL     1     -13.416  11.806  -6.312  0.00  0.00    +0.000 NA
ATOM      3  C   UNL     1     -15.185  10.066  -2.103  0.00  0.00    +0.000 A 
ATOM      4  C   UNL     1     -14.808  11.267  -1.495  0.00  0.00    +0.000 A 
ATOM      5  C   UNL     1     -14.923   9.901  -3.488  0.00  0.00    +0.000 A 
ATOM      6  C   UNL     1     -15.784   9.255  -1.076  0.00  0.00    +0.000 A 
ATOM      7  C   UNL     1     -14.185  12.314  -2.193  0.00  0.00    +0.000 A 
ATOM      8  C   UNL     1     -13.927  12.148  -3.567  0.00  0.00    +0.000 A 
ATOM      9  C   UNL     1     -14.296  10.946  -4.207  0.00  0.00    +0.000 A 
ATOM     10  C   UNL     1     -15.754   9.981   0.112  0.00  0.00    +0.000 A 
ATOM     11  C   UNL     1     -15.317   8.613  -4.178  0.00  0.00    +0.000 C 
ATOM     12  C   UNL     1     -16.350   7.965  -1.054  0.00  0.00    +0.000 A 
ATOM     13  C   UNL     1     -13.822  13.569  -1.435  0.00  0.00    +0.000 C 
ATOM     14  C   UNL     1     -16.258   9.491   1.322  0.00  0.00    +0.000 A 
ATOM     15  C   UNL     1     -13.308  13.151  -4.328  0.00  0.00    +0.000 A 
ATOM     16  C   UNL     1     -14.011  10.848  -5.569  0.00  0.00    +0.000 A 
ATOM     17  C   UNL     1     -16.860   7.456   0.143  0.00  0.00    +0.000 A 
ATOM     18  C   UNL     1     -16.812   8.210   1.309  0.00  0.00    +0.000 A 
ATOM     19  C   UNL     1     -13.077  12.939  -5.674  0.00  0.00    +0.000 A 
ATOM     20  H   UNL     1     -15.004  11.927   0.510  0.00  0.00    +0.000 HD
ENDROOT
TORSDOF 0
ENDMDL
MODEL 3
REMARK VINA RESULT:      -7.2      2.217      6.583
REMARK  Name = Ellipticine.pdbqt.pdb
REMARK  0 active torsions:
REMARK  status: ('A' for Active; 'I' for Inactive)
REMARK                            x       y       z     vdW  Elec       q    Type
REMARK                         _______ _______ _______ _____ _____    ______ ____
ROOT
ATOM      1  N   UNL     1     -14.907   9.519  -3.359  0.00  0.00    +0.000 N 
ATOM      2  N   UNL     1     -12.989  15.400  -5.083  0.00  0.00    +0.000 NA
ATOM      3  C   UNL     1     -14.463  11.533  -2.485  0.00  0.00    +0.000 A 
ATOM      4  C   UNL     1     -14.498  10.799  -3.674  0.00  0.00    +0.000 A 
ATOM      5  C   UNL     1     -14.068  12.895  -2.546  0.00  0.00    +0.000 A 
ATOM      6  C   UNL     1     -14.870  10.637  -1.436  0.00  0.00    +0.000 A 
ATOM      7  C   UNL     1     -14.161  11.348  -4.922  0.00  0.00    +0.000 A 
ATOM      8  C   UNL     1     -13.770  12.699  -4.979  0.00  0.00    +0.000 A 
ATOM      9  C   UNL     1     -13.725  13.465  -3.794  0.00  0.00    +0.000 A 
ATOM     10  C   UNL     1     -15.137   9.398  -2.013  0.00  0.00    +0.000 A 
ATOM     11  C   UNL     1     -14.019  13.719  -1.278  0.00  0.00    +0.000 C 
ATOM     12  C   UNL     1     -15.034  10.771  -0.042  0.00  0.00    +0.000 A 
ATOM     13  C   UNL     1     -14.235  10.462  -6.143  0.00  0.00    +0.000 C 
ATOM     14  C   UNL     1     -15.559   8.285  -1.277  0.00  0.00    +0.000 A 
ATOM     15  C   UNL     1     -13.419  13.315  -6.190  0.00  0.00    +0.000 A 
ATOM     16  C   UNL     1     -13.329  14.796  -3.924  0.00  0.00    +0.000 A 
ATOM     17  C   UNL     1     -15.455   9.673   0.712  0.00  0.00    +0.000 A 
ATOM     18  C   UNL     1     -15.712   8.452   0.100  0.00  0.00    +0.000 A 
ATOM     19  C   UNL     1     -13.042  14.645  -6.193  0.00  0.00    +0.000 A 
ATOM     20  H   UNL     1     -15.018   8.776  -4.040  0.00  0.00    +0.000 HD
ENDROOT
TORSDOF 0
ENDMDL
MODEL 4
REMARK VINA RESULT:      -7.0      1.410      3.151
REMARK  Name = Ellipticine.pdbqt.pdb
REMARK  0 active torsions:
REMARK  status: ('A' for Active; 'I' for Inactive)
REMARK                            x       y       z     vdW  Elec       q    Type
REMARK                         _______ _______ _______ _____ _____    ______ ____
ROOT
ATOM      1  N   UNL     1     -14.355  11.006  -4.355  0.00  0.00    +0.000 N 
ATOM      2  N   UNL     1     -16.147   5.448  -1.685  0.00  0.00    +0.000 NA
ATOM      3  C   UNL     1     -14.815  10.100  -2.359  0.00  0.00    +0.000 A 
ATOM      4  C   UNL     1     -14.739   9.837  -3.730  0.00  0.00    +0.000 A 
ATOM      5  C   UNL     1     -15.194   9.044  -1.491  0.00  0.00    +0.000 A 
ATOM      6  C   UNL     1     -14.459  11.483  -2.184  0.00  0.00    +0.000 A 
ATOM      7  C   UNL     1     -15.020   8.578  -4.284  0.00  0.00    +0.000 A 
ATOM      8  C   UNL     1     -15.396   7.532  -3.420  0.00  0.00    +0.000 A 
ATOM      9  C   UNL     1     -15.482   7.768  -2.031  0.00  0.00    +0.000 A 
ATOM     10  C   UNL     1     -14.180  12.013  -3.442  0.00  0.00    +0.000 A 
ATOM     11  C   UNL     1     -15.286   9.292  -0.001  0.00  0.00    +0.000 C 
ATOM     12  C   UNL     1     -14.349  12.332  -1.065  0.00  0.00    +0.000 A 
ATOM     13  C   UNL     1     -14.906   8.407  -5.780  0.00  0.00    +0.000 C 
ATOM     14  C   UNL     1     -13.798  13.344  -3.644  0.00  0.00    +0.000 A 
ATOM     15  C   UNL     1     -15.692   6.248  -3.902  0.00  0.00    +0.000 A 
ATOM     16  C   UNL     1     -15.860   6.688  -1.234  0.00  0.00    +0.000 A 
ATOM     17  C   UNL     1     -13.969  13.665  -1.244  0.00  0.00    +0.000 A 
ATOM     18  C   UNL     1     -13.699  14.158  -2.514  0.00  0.00    +0.000 A 
ATOM     19  C   UNL     1     -16.057   5.254  -3.013  0.00  0.00    +0.000 A 
ATOM     20  H   UNL     1     -14.223  11.096  -5.356  0.00  0.00    +0.000 HD
ENDROOT
TORSDOF 0
ENDMDL
MODEL 5
REMARK VINA RESULT:      -6.4     19.660     22.481
REMARK  Name = Ellipticine.pdbqt.pdb
REMARK  0 active torsions:
REMARK  status: ('A' for Active; 'I' for Inactive)
REMARK                            x       y       z     vdW  Elec       q    Type
REMARK                         _______ _______ _______ _____ _____    ______ ____
ROOT
ATOM      1  N   UNL     1     -11.408   3.998  18.053  0.00  0.00    +0.000 N 
ATOM      2  N   UNL     1     -12.968   6.061  23.930  0.00  0.00    +0.000 NA
ATOM      3  C   UNL     1     -11.124   5.752  19.416  0.00  0.00    +0.000 A 
ATOM      4  C   UNL     1     -11.714   4.490  19.305  0.00  0.00    +0.000 A 
ATOM      5  C   UNL     1     -11.296   6.472  20.627  0.00  0.00    +0.000 A 
ATOM      6  C   UNL     1     -10.446   6.001  18.171  0.00  0.00    +0.000 A 
ATOM      7  C   UNL     1     -12.467   3.905  20.335  0.00  0.00    +0.000 A 
ATOM      8  C   UNL     1     -12.636   4.621  21.535  0.00  0.00    +0.000 A 
ATOM      9  C   UNL     1     -12.051   5.898  21.676  0.00  0.00    +0.000 A 
ATOM     10  C   UNL     1     -10.643   4.893  17.350  0.00  0.00    +0.000 A 
ATOM     11  C   UNL     1     -10.670   7.841  20.782  0.00  0.00    +0.000 C 
ATOM     12  C   UNL     1      -9.680   7.073  17.670  0.00  0.00    +0.000 A 
ATOM     13  C   UNL     1     -13.060   2.535  20.106  0.00  0.00    +0.000 C 
ATOM     14  C   UNL     1     -10.119   4.796  16.056  0.00  0.00    +0.000 A 
ATOM     15  C   UNL     1     -13.375   4.099  22.608  0.00  0.00    +0.000 A 
ATOM     16  C   UNL     1     -12.258   6.552  22.890  0.00  0.00    +0.000 A 
ATOM     17  C   UNL     1      -9.148   6.997  16.381  0.00  0.00    +0.000 A 
ATOM     18  C   UNL     1      -9.366   5.876  15.591  0.00  0.00    +0.000 A 
ATOM     19  C   UNL     1     -13.512   4.843  23.766  0.00  0.00    +0.000 A 
ATOM     20  H   UNL     1     -11.713   3.095  17.708  0.00  0.00    +0.000 HD
ENDROOT
TORSDOF 0
ENDMDL
MODEL 6
REMARK VINA RESULT:      -5.9     11.733     13.127
REMARK  Name = Ellipticine.pdbqt.pdb
REMARK  0 active torsions:
REMARK  status: ('A' for Active; 'I' for Inactive)
REMARK                            x       y       z     vdW  Elec       q    Type
REMARK                         _______ _______ _______ _____ _____    ______ ____
ROOT
ATOM      1  N   UNL     1     -25.171  11.141   4.557  0.00  0.00    +0.000 N 
ATOM      2  N   UNL     1     -22.042  14.704   8.887  0.00  0.00    +0.000 NA
ATOM      3  C   UNL     1     -23.892  10.937   6.384  0.00  0.00    +0.000 A 
ATOM      4  C   UNL     1     -24.481  11.858   5.513  0.00  0.00    +0.000 A 
ATOM      5  C   UNL     1     -23.120  11.433   7.466  0.00  0.00    +0.000 A 
ATOM      6  C   UNL     1     -24.258   9.629   5.909  0.00  0.00    +0.000 A 
ATOM      7  C   UNL     1     -24.343  13.247   5.661  0.00  0.00    +0.000 A 
ATOM      8  C   UNL     1     -23.576  13.736   6.736  0.00  0.00    +0.000 A 
ATOM      9  C   UNL     1     -22.969  12.830   7.631  0.00  0.00    +0.000 A 
ATOM     10  C   UNL     1     -25.050   9.793   4.776  0.00  0.00    +0.000 A 
ATOM     11  C   UNL     1     -22.467  10.465   8.429  0.00  0.00    +0.000 C 
ATOM     12  C   UNL     1     -23.983   8.317   6.346  0.00  0.00    +0.000 A 
ATOM     13  C   UNL     1     -25.024  14.150   4.660  0.00  0.00    +0.000 C 
ATOM     14  C   UNL     1     -25.584   8.720   4.053  0.00  0.00    +0.000 A 
ATOM     15  C   UNL     1     -23.395  15.112   6.946  0.00  0.00    +0.000 A 
ATOM     16  C   UNL     1     -22.224  13.383   8.673  0.00  0.00    +0.000 A 
ATOM     17  C   UNL     1     -24.506   7.231   5.639  0.00  0.00    +0.000 A 
ATOM     18  C   UNL     1     -25.293   7.434   4.512  0.00  0.00    +0.000 A 
ATOM     19  C   UNL     1     -22.632  15.542   8.017  0.00  0.00    +0.000 A 
ATOM     20  H   UNL     1     -25.693  11.565   3.798  0.00  0.00    +0.000 HD
ENDROOT
TORSDOF 0
ENDMDL
MODEL 7
REMARK VINA RESULT:      -5.6      2.548      4.686
REMARK  Name = Ellipticine.pdbqt.pdb
REMARK  0 active torsions:
REMARK  status: ('A' for Active; 'I' for Inactive)
REMARK                            x       y       z     vdW  Elec       q    Type
REMARK                         _______ _______ _______ _____ _____    ______ ____
ROOT
ATOM      1  N   UNL     1     -14.134  10.881  -5.433  0.00  0.00    +0.000 N 
ATOM      2  N   UNL     1     -15.676   8.682   0.400  0.00  0.00    +0.000 NA
ATOM      3  C   UNL     1     -14.627   8.976  -4.363  0.00  0.00    +0.000 A 
ATOM      4  C   UNL     1     -14.468  10.356  -4.202  0.00  0.00    +0.000 A 
ATOM      5  C   UNL     1     -14.975   8.201  -3.227  0.00  0.00    +0.000 A 
ATOM      6  C   UNL     1     -14.372   8.692  -5.751  0.00  0.00    +0.000 A 
ATOM      7  C   UNL     1     -14.639  11.005  -2.969  0.00  0.00    +0.000 A 
ATOM      8  C   UNL     1     -14.985  10.234  -1.843  0.00  0.00    +0.000 A 
ATOM      9  C   UNL     1     -15.151   8.839  -1.976  0.00  0.00    +0.000 A 
ATOM     10  C   UNL     1     -14.070   9.896  -6.383  0.00  0.00    +0.000 A 
ATOM     11  C   UNL     1     -15.154   6.704  -3.365  0.00  0.00    +0.000 C 
ATOM     12  C   UNL     1     -14.372   7.514  -6.525  0.00  0.00    +0.000 A 
ATOM     13  C   UNL     1     -14.443  12.502  -2.910  0.00  0.00    +0.000 C 
ATOM     14  C   UNL     1     -13.769   9.989  -7.747  0.00  0.00    +0.000 A 
ATOM     15  C   UNL     1     -15.171  10.815  -0.580  0.00  0.00    +0.000 A 
ATOM     16  C   UNL     1     -15.494   8.135  -0.822  0.00  0.00    +0.000 A 
ATOM     17  C   UNL     1     -14.074   7.585  -7.888  0.00  0.00    +0.000 A 
ATOM     18  C   UNL     1     -13.778   8.804  -8.485  0.00  0.00    +0.000 A 
ATOM     19  C   UNL     1     -15.511  10.013   0.495  0.00  0.00    +0.000 A 
ATOM     20  H   UNL     1     -13.962  11.866  -5.600  0.00  0.00    +0.000 HD
ENDROOT
TORSDOF 0
ENDMDL
MODEL 8
REMARK VINA RESULT:      -5.6     23.893     26.912
REMARK  Name = Ellipticine.pdbqt.pdb
REMARK  0 active torsions:
REMARK  status: ('A' for Active; 'I' for Inactive)
REMARK                            x       y       z     vdW  Elec       q    Type
REMARK                         _______ _______ _______ _____ _____    ______ ____
ROOT
ATOM      1  N   UNL     1     -12.626  16.154  25.048  0.00  0.00    +0.000 N 
ATOM      2  N   UNL     1     -12.495  19.115  19.352  0.00  0.00    +0.000 NA
ATOM      3  C   UNL     1     -13.527  17.899  23.970  0.00  0.00    +0.000 A 
ATOM      4  C   UNL     1     -12.637  16.828  23.844  0.00  0.00    +0.000 A 
ATOM      5  C   UNL     1     -13.714  18.753  22.853  0.00  0.00    +0.000 A 
ATOM      6  C   UNL     1     -14.054  17.841  25.308  0.00  0.00    +0.000 A 
ATOM      7  C   UNL     1     -11.923  16.562  22.665  0.00  0.00    +0.000 A 
ATOM      8  C   UNL     1     -12.112  17.411  21.558  0.00  0.00    +0.000 A 
ATOM      9  C   UNL     1     -13.004  18.501  21.656  0.00  0.00    +0.000 A 
ATOM     10  C   UNL     1     -13.475  16.747  25.947  0.00  0.00    +0.000 A 
ATOM     11  C   UNL     1     -14.670  19.922  22.954  0.00  0.00    +0.000 C 
ATOM     12  C   UNL     1     -14.976  18.623  26.032  0.00  0.00    +0.000 A 
ATOM     13  C   UNL     1     -10.987  15.377  22.640  0.00  0.00    +0.000 C 
ATOM     14  C   UNL     1     -13.764  16.392  27.269  0.00  0.00    +0.000 A 
ATOM     15  C   UNL     1     -11.433  17.207  20.347  0.00  0.00    +0.000 A 
ATOM     16  C   UNL     1     -13.143  19.301  20.522  0.00  0.00    +0.000 A 
ATOM     17  C   UNL     1     -15.279  18.286  27.353  0.00  0.00    +0.000 A 
ATOM     18  C   UNL     1     -14.681  17.188  27.958  0.00  0.00    +0.000 A 
ATOM     19  C   UNL     1     -11.653  18.070  19.289  0.00  0.00    +0.000 A 
ATOM     20  H   UNL     1     -12.063  15.331  25.232  0.00  0.00    +0.000 HD
ENDROOT
TORSDOF 0
ENDMDL
MODEL 9
REMARK VINA RESULT:      -5.6     11.621     12.809
REMARK  Name = Ellipticine.pdbqt.pdb
REMARK  0 active torsions:
REMARK  status: ('A' for Active; 'I' for Inactive)
REMARK                            x       y       z     vdW  Elec       q    Type
REMARK                         _______ _______ _______ _____ _____    ______ ____
ROOT
ATOM      1  N   UNL     1     -23.819   8.044   6.785  0.00  0.00    +0.000 N 
ATOM      2  N   UNL     1     -24.229  14.233   5.122  0.00  0.00    +0.000 NA
ATOM      3  C   UNL     1     -24.764   9.378   5.254  0.00  0.00    +0.000 A 
ATOM      4  C   UNL     1     -23.941   9.358   6.384  0.00  0.00    +0.000 A 
ATOM      5  C   UNL     1     -25.045  10.629   4.647  0.00  0.00    +0.000 A 
ATOM      6  C   UNL     1     -25.134   8.012   4.991  0.00  0.00    +0.000 A 
ATOM      7  C   UNL     1     -23.382  10.519   6.942  0.00  0.00    +0.000 A 
ATOM      8  C   UNL     1     -23.662  11.759   6.338  0.00  0.00    +0.000 A 
ATOM      9  C   UNL     1     -24.491  11.809   5.196  0.00  0.00    +0.000 A 
ATOM     10  C   UNL     1     -24.531   7.213   5.960  0.00  0.00    +0.000 A 
ATOM     11  C   UNL     1     -25.933  10.687   3.423  0.00  0.00    +0.000 C 
ATOM     12  C   UNL     1     -25.932   7.385   4.013  0.00  0.00    +0.000 A 
ATOM     13  C   UNL     1     -22.506  10.381   8.165  0.00  0.00    +0.000 C 
ATOM     14  C   UNL     1     -24.678   5.823   6.005  0.00  0.00    +0.000 A 
ATOM     15  C   UNL     1     -23.138  12.960   6.840  0.00  0.00    +0.000 A 
ATOM     16  C   UNL     1     -24.727  13.070   4.648  0.00  0.00    +0.000 A 
ATOM     17  C   UNL     1     -26.093   5.998   4.040  0.00  0.00    +0.000 A 
ATOM     18  C   UNL     1     -25.474   5.233   5.021  0.00  0.00    +0.000 A 
ATOM     19  C   UNL     1     -23.444  14.152   6.210  0.00  0.00    +0.000 A 
ATOM     20  H   UNL     1     -23.273   7.744   7.585  0.00  0.00    +0.000 HD
ENDROOT
TORSDOF 0
ENDMDL
