MODEL 1
REMARK VINA RESULT:      -5.8      0.000      0.000
REMARK  Name = Enterolactone.pdbqt.pdb
REMARK  2 active torsions:
REMARK  status: ('A' for Active; 'I' for Inactive)
REMARK    1  A    between atoms: C_10  and  O_14
REMARK    2  A    between atoms: C_19  and  O_23
REMARK                            x       y       z     vdW  Elec       q    Type
REMARK                         _______ _______ _______ _____ _____    ______ ____
ROOT
ATOM      1  O   UNL     1     -14.365   6.818  -5.846  0.00  0.00    +0.000 OA
ATOM      2  O   UNL     1     -13.826   8.664  -7.163  0.00  0.00    +0.000 OA
ATOM      3  C   UNL     1     -14.834   7.925  -3.803  0.00  0.00    +0.000 C 
ATOM      4  C   UNL     1     -14.473   8.896  -4.808  0.00  0.00    +0.000 C 
ATOM      5  C   UNL     1     -14.733   6.767  -4.575  0.00  0.00    +0.000 C 
ATOM      6  C   UNL     1     -14.167   8.169  -6.105  0.00  0.00    +0.000 C 
ATOM      7  C   UNL     1     -15.573   8.178  -2.631  0.00  0.00    +0.000 C 
ATOM      8  C   UNL     1     -16.314   8.453  -1.446  0.00  0.00    +0.000 C 
ATOM      9  C   UNL     1     -17.271   9.465  -1.448  0.00  0.00    +0.000 C 
ATOM     10  C   UNL     1     -17.981   9.731  -0.281  0.00  0.00    +0.000 C 
ATOM     11  C   UNL     1     -17.747   9.002   0.880  0.00  0.00    +0.000 C 
ATOM     12  C   UNL     1     -16.789   7.991   0.876  0.00  0.00    +0.000 C 
ATOM     13  C   UNL     1     -16.072   7.716  -0.288  0.00  0.00    +0.000 C 
ATOM     14  C   UNL     1     -14.484  10.299  -4.644  0.00  0.00    +0.000 C 
ATOM     15  C   UNL     1     -14.503  11.713  -4.472  0.00  0.00    +0.000 C 
ATOM     16  C   UNL     1     -14.082  12.270  -3.268  0.00  0.00    +0.000 C 
ATOM     17  C   UNL     1     -14.116  13.652  -3.109  0.00  0.00    +0.000 C 
ATOM     18  C   UNL     1     -14.563  14.479  -4.134  0.00  0.00    +0.000 C 
ATOM     19  C   UNL     1     -14.982  13.916  -5.337  0.00  0.00    +0.000 C 
ATOM     20  C   UNL     1     -14.953  12.532  -5.507  0.00  0.00    +0.000 C 
ENDROOT
BRANCH  10  21
ATOM     21  O   UNL     1     -18.926  10.715  -0.248  0.00  0.00    +0.000 OA
ATOM     22  H   UNL     1     -18.475  11.576  -0.204  0.00  0.00    +0.000 HD
ENDBRANCH  10  21
BRANCH  17  23
ATOM     23  O   UNL     1     -13.712  14.230  -1.941  0.00  0.00    +0.000 OA
ATOM     24  H   UNL     1     -14.455  14.744  -1.577  0.00  0.00    +0.000 HD
ENDBRANCH  17  23
TORSDOF 2
ENDMDL
MODEL 2
REMARK VINA RESULT:      -5.5     21.543     22.800
REMARK  Name = Enterolactone.pdbqt.pdb
REMARK  2 active torsions:
REMARK  status: ('A' for Active; 'I' for Inactive)
REMARK    1  A    between atoms: C_10  and  O_14
REMARK    2  A    between atoms: C_19  and  O_23
REMARK                            x       y       z     vdW  Elec       q    Type
REMARK                         _______ _______ _______ _____ _____    ______ ____
ROOT
ATOM      1  O   UNL     1      -6.523   2.669  15.200  0.00  0.00    +0.000 OA
ATOM      2  O   UNL     1      -8.240   3.738  16.359  0.00  0.00    +0.000 OA
ATOM      3  C   UNL     1      -5.023   4.490  14.966  0.00  0.00    +0.000 C 
ATOM      4  C   UNL     1      -6.199   4.919  15.685  0.00  0.00    +0.000 C 
ATOM      5  C   UNL     1      -5.369   3.152  14.769  0.00  0.00    +0.000 C 
ATOM      6  C   UNL     1      -7.151   3.745  15.816  0.00  0.00    +0.000 C 
ATOM      7  C   UNL     1      -3.760   5.110  14.992  0.00  0.00    +0.000 C 
ATOM      8  C   UNL     1      -2.491   5.757  15.023  0.00  0.00    +0.000 C 
ATOM      9  C   UNL     1      -2.084   6.430  16.173  0.00  0.00    +0.000 C 
ATOM     10  C   UNL     1      -0.847   7.066  16.187  0.00  0.00    +0.000 C 
ATOM     11  C   UNL     1      -0.016   7.037  15.072  0.00  0.00    +0.000 C 
ATOM     12  C   UNL     1      -0.427   6.363  13.925  0.00  0.00    +0.000 C 
ATOM     13  C   UNL     1      -1.665   5.722  13.900  0.00  0.00    +0.000 C 
ATOM     14  C   UNL     1      -6.400   6.198  16.252  0.00  0.00    +0.000 C 
ATOM     15  C   UNL     1      -6.593   7.488  16.825  0.00  0.00    +0.000 C 
ATOM     16  C   UNL     1      -6.153   8.620  16.145  0.00  0.00    +0.000 C 
ATOM     17  C   UNL     1      -6.338   9.874  16.721  0.00  0.00    +0.000 C 
ATOM     18  C   UNL     1      -6.952  10.008  17.961  0.00  0.00    +0.000 C 
ATOM     19  C   UNL     1      -7.390   8.870  18.636  0.00  0.00    +0.000 C 
ATOM     20  C   UNL     1      -7.211   7.609  18.069  0.00  0.00    +0.000 C 
ENDROOT
BRANCH  10  21
ATOM     21  O   UNL     1      -0.419   7.734  17.297  0.00  0.00    +0.000 OA
ATOM     22  H   UNL     1      -1.157   7.791  17.928  0.00  0.00    +0.000 HD
ENDBRANCH  10  21
BRANCH  17  23
ATOM     23  O   UNL     1      -5.918  11.004  16.082  0.00  0.00    +0.000 OA
ATOM     24  H   UNL     1      -5.850  10.813  15.129  0.00  0.00    +0.000 HD
ENDBRANCH  17  23
TORSDOF 2
ENDMDL
MODEL 3
REMARK VINA RESULT:      -5.4      1.795      2.084
REMARK  Name = Enterolactone.pdbqt.pdb
REMARK  2 active torsions:
REMARK  status: ('A' for Active; 'I' for Inactive)
REMARK    1  A    between atoms: C_10  and  O_14
REMARK    2  A    between atoms: C_19  and  O_23
REMARK                            x       y       z     vdW  Elec       q    Type
REMARK                         _______ _______ _______ _____ _____    ______ ____
ROOT
ATOM      1  O   UNL     1     -14.543   6.048  -5.241  0.00  0.00    +0.000 OA
ATOM      2  O   UNL     1     -15.212   7.188  -7.162  0.00  0.00    +0.000 OA
ATOM      3  C   UNL     1     -14.930   7.745  -3.632  0.00  0.00    +0.000 C 
ATOM      4  C   UNL     1     -15.291   8.229  -4.942  0.00  0.00    +0.000 C 
ATOM      5  C   UNL     1     -14.526   6.456  -3.982  0.00  0.00    +0.000 C 
ATOM      6  C   UNL     1     -15.028   7.135  -5.960  0.00  0.00    +0.000 C 
ATOM      7  C   UNL     1     -15.389   8.253  -2.402  0.00  0.00    +0.000 C 
ATOM      8  C   UNL     1     -15.858   8.785  -1.166  0.00  0.00    +0.000 C 
ATOM      9  C   UNL     1     -17.130   9.350  -1.094  0.00  0.00    +0.000 C 
ATOM     10  C   UNL     1     -17.572   9.876   0.116  0.00  0.00    +0.000 C 
ATOM     11  C   UNL     1     -16.763   9.845   1.248  0.00  0.00    +0.000 C 
ATOM     12  C   UNL     1     -15.494   9.278   1.169  0.00  0.00    +0.000 C 
ATOM     13  C   UNL     1     -15.040   8.749  -0.038  0.00  0.00    +0.000 C 
ATOM     14  C   UNL     1     -15.875   9.483  -5.228  0.00  0.00    +0.000 C 
ATOM     15  C   UNL     1     -16.469  10.748  -5.507  0.00  0.00    +0.000 C 
ATOM     16  C   UNL     1     -16.052  11.878  -4.809  0.00  0.00    +0.000 C 
ATOM     17  C   UNL     1     -16.648  13.106  -5.084  0.00  0.00    +0.000 C 
ATOM     18  C   UNL     1     -17.650  13.216  -6.042  0.00  0.00    +0.000 C 
ATOM     19  C   UNL     1     -18.062  12.082  -6.737  0.00  0.00    +0.000 C 
ATOM     20  C   UNL     1     -17.472  10.847  -6.470  0.00  0.00    +0.000 C 
ENDROOT
BRANCH  10  21
ATOM     21  O   UNL     1     -18.812  10.437   0.221  0.00  0.00    +0.000 OA
ATOM     22  H   UNL     1     -19.428   9.932  -0.337  0.00  0.00    +0.000 HD
ENDBRANCH  10  21
BRANCH  17  23
ATOM     23  O   UNL     1     -16.264  14.232  -4.417  0.00  0.00    +0.000 OA
ATOM     24  H   UNL     1     -16.393  14.086  -3.463  0.00  0.00    +0.000 HD
ENDBRANCH  17  23
TORSDOF 2
ENDMDL
MODEL 4
REMARK VINA RESULT:      -5.4     24.770     27.641
REMARK  Name = Enterolactone.pdbqt.pdb
REMARK  2 active torsions:
REMARK  status: ('A' for Active; 'I' for Inactive)
REMARK    1  A    between atoms: C_10  and  O_14
REMARK    2  A    between atoms: C_19  and  O_23
REMARK                            x       y       z     vdW  Elec       q    Type
REMARK                         _______ _______ _______ _____ _____    ______ ____
ROOT
ATOM      1  O   UNL     1      -9.489  16.717  19.799  0.00  0.00    +0.000 OA
ATOM      2  O   UNL     1     -11.091  18.154  18.902  0.00  0.00    +0.000 OA
ATOM      3  C   UNL     1     -10.220  16.684  22.054  0.00  0.00    +0.000 C 
ATOM      4  C   UNL     1     -11.092  17.529  21.274  0.00  0.00    +0.000 C 
ATOM      5  C   UNL     1      -9.349  16.281  21.041  0.00  0.00    +0.000 C 
ATOM      6  C   UNL     1     -10.603  17.547  19.837  0.00  0.00    +0.000 C 
ATOM      7  C   UNL     1     -10.536  16.071  23.281  0.00  0.00    +0.000 C 
ATOM      8  C   UNL     1     -10.870  15.465  24.527  0.00  0.00    +0.000 C 
ATOM      9  C   UNL     1     -12.189  15.101  24.788  0.00  0.00    +0.000 C 
ATOM     10  C   UNL     1     -12.503  14.520  26.013  0.00  0.00    +0.000 C 
ATOM     11  C   UNL     1     -11.522  14.301  26.974  0.00  0.00    +0.000 C 
ATOM     12  C   UNL     1     -10.205  14.667  26.706  0.00  0.00    +0.000 C 
ATOM     13  C   UNL     1      -9.878  15.250  25.483  0.00  0.00    +0.000 C 
ATOM     14  C   UNL     1     -12.260  18.169  21.744  0.00  0.00    +0.000 C 
ATOM     15  C   UNL     1     -13.440  18.807  22.226  0.00  0.00    +0.000 C 
ATOM     16  C   UNL     1     -13.458  19.355  23.505  0.00  0.00    +0.000 C 
ATOM     17  C   UNL     1     -14.620  19.966  23.967  0.00  0.00    +0.000 C 
ATOM     18  C   UNL     1     -15.758  20.034  23.170  0.00  0.00    +0.000 C 
ATOM     19  C   UNL     1     -15.733  19.485  21.890  0.00  0.00    +0.000 C 
ATOM     20  C   UNL     1     -14.574  18.870  21.417  0.00  0.00    +0.000 C 
ENDROOT
BRANCH  10  21
ATOM     21  O   UNL     1     -13.785  14.152  26.301  0.00  0.00    +0.000 OA
ATOM     22  H   UNL     1     -13.920  13.236  26.001  0.00  0.00    +0.000 HD
ENDBRANCH  10  21
BRANCH  17  23
ATOM     23  O   UNL     1     -14.672  20.511  25.216  0.00  0.00    +0.000 OA
ATOM     24  H   UNL     1     -13.783  20.830  25.452  0.00  0.00    +0.000 HD
ENDBRANCH  17  23
TORSDOF 2
ENDMDL
MODEL 5
REMARK VINA RESULT:      -5.2      4.111      6.481
REMARK  Name = Enterolactone.pdbqt.pdb
REMARK  2 active torsions:
REMARK  status: ('A' for Active; 'I' for Inactive)
REMARK    1  A    between atoms: C_10  and  O_14
REMARK    2  A    between atoms: C_19  and  O_23
REMARK                            x       y       z     vdW  Elec       q    Type
REMARK                         _______ _______ _______ _____ _____    ______ ____
ROOT
ATOM      1  O   UNL     1     -20.430   5.763  -3.618  0.00  0.00    +0.000 OA
ATOM      2  O   UNL     1     -21.008   6.999  -1.728  0.00  0.00    +0.000 OA
ATOM      3  C   UNL     1     -18.090   6.141  -3.626  0.00  0.00    +0.000 C 
ATOM      4  C   UNL     1     -18.687   6.822  -2.503  0.00  0.00    +0.000 C 
ATOM      5  C   UNL     1     -19.241   5.564  -4.164  0.00  0.00    +0.000 C 
ATOM      6  C   UNL     1     -20.185   6.578  -2.519  0.00  0.00    +0.000 C 
ATOM      7  C   UNL     1     -16.740   5.763  -3.748  0.00  0.00    +0.000 C 
ATOM      8  C   UNL     1     -15.367   5.395  -3.857  0.00  0.00    +0.000 C 
ATOM      9  C   UNL     1     -14.643   5.077  -2.711  0.00  0.00    +0.000 C 
ATOM     10  C   UNL     1     -13.300   4.730  -2.830  0.00  0.00    +0.000 C 
ATOM     11  C   UNL     1     -12.678   4.697  -4.073  0.00  0.00    +0.000 C 
ATOM     12  C   UNL     1     -13.408   5.016  -5.215  0.00  0.00    +0.000 C 
ATOM     13  C   UNL     1     -14.753   5.366  -5.108  0.00  0.00    +0.000 C 
ATOM     14  C   UNL     1     -17.989   7.531  -1.500  0.00  0.00    +0.000 C 
ATOM     15  C   UNL     1     -17.276   8.239  -0.490  0.00  0.00    +0.000 C 
ATOM     16  C   UNL     1     -16.172   9.013  -0.834  0.00  0.00    +0.000 C 
ATOM     17  C   UNL     1     -15.478   9.691   0.164  0.00  0.00    +0.000 C 
ATOM     18  C   UNL     1     -15.873   9.604   1.494  0.00  0.00    +0.000 C 
ATOM     19  C   UNL     1     -16.979   8.829   1.832  0.00  0.00    +0.000 C 
ATOM     20  C   UNL     1     -17.682   8.145   0.841  0.00  0.00    +0.000 C 
ENDROOT
BRANCH  10  21
ATOM     21  O   UNL     1     -12.562   4.412  -1.727  0.00  0.00    +0.000 OA
ATOM     22  H   UNL     1     -11.701   4.861  -1.790  0.00  0.00    +0.000 HD
ENDBRANCH  10  21
BRANCH  17  23
ATOM     23  O   UNL     1     -14.391  10.457  -0.140  0.00  0.00    +0.000 OA
ATOM     24  H   UNL     1     -13.606  10.058   0.275  0.00  0.00    +0.000 HD
ENDBRANCH  17  23
TORSDOF 2
ENDMDL
MODEL 6
REMARK VINA RESULT:      -5.0     21.634     23.914
REMARK  Name = Enterolactone.pdbqt.pdb
REMARK  2 active torsions:
REMARK  status: ('A' for Active; 'I' for Inactive)
REMARK    1  A    between atoms: C_10  and  O_14
REMARK    2  A    between atoms: C_19  and  O_23
REMARK                            x       y       z     vdW  Elec       q    Type
REMARK                         _______ _______ _______ _____ _____    ______ ____
ROOT
ATOM      1  O   UNL     1     -11.807   4.605  19.066  0.00  0.00    +0.000 OA
ATOM      2  O   UNL     1     -10.836   6.258  17.740  0.00  0.00    +0.000 OA
ATOM      3  C   UNL     1     -10.282   2.837  18.657  0.00  0.00    +0.000 C 
ATOM      4  C   UNL     1      -9.871   4.011  17.925  0.00  0.00    +0.000 C 
ATOM      5  C   UNL     1     -11.419   3.357  19.277  0.00  0.00    +0.000 C 
ATOM      6  C   UNL     1     -10.863   5.128  18.191  0.00  0.00    +0.000 C 
ATOM      7  C   UNL     1      -9.460   1.754  19.022  0.00  0.00    +0.000 C 
ATOM      8  C   UNL     1      -8.615   0.662  19.376  0.00  0.00    +0.000 C 
ATOM      9  C   UNL     1      -7.263   0.886  19.623  0.00  0.00    +0.000 C 
ATOM     10  C   UNL     1      -6.446  -0.190  19.957  0.00  0.00    +0.000 C 
ATOM     11  C   UNL     1      -6.962  -1.479  20.046  0.00  0.00    +0.000 C 
ATOM     12  C   UNL     1      -8.315  -1.696  19.798  0.00  0.00    +0.000 C 
ATOM     13  C   UNL     1      -9.142  -0.625  19.463  0.00  0.00    +0.000 C 
ATOM     14  C   UNL     1      -8.693   4.134  17.155  0.00  0.00    +0.000 C 
ATOM     15  C   UNL     1      -7.500   4.251  16.385  0.00  0.00    +0.000 C 
ATOM     16  C   UNL     1      -7.064   3.177  15.614  0.00  0.00    +0.000 C 
ATOM     17  C   UNL     1      -5.892   3.301  14.875  0.00  0.00    +0.000 C 
ATOM     18  C   UNL     1      -5.154   4.479  14.897  0.00  0.00    +0.000 C 
ATOM     19  C   UNL     1      -5.596   5.551  15.669  0.00  0.00    +0.000 C 
ATOM     20  C   UNL     1      -6.769   5.438  16.414  0.00  0.00    +0.000 C 
ENDROOT
BRANCH  10  21
ATOM     21  O   UNL     1      -5.117  -0.006  20.206  0.00  0.00    +0.000 OA
ATOM     22  H   UNL     1      -4.910  -0.382  21.079  0.00  0.00    +0.000 HD
ENDBRANCH  10  21
BRANCH  17  23
ATOM     23  O   UNL     1      -5.436   2.267  14.111  0.00  0.00    +0.000 OA
ATOM     24  H   UNL     1      -6.159   1.624  13.997  0.00  0.00    +0.000 HD
ENDBRANCH  17  23
TORSDOF 2
ENDMDL
MODEL 7
REMARK VINA RESULT:      -4.7     21.294     24.544
REMARK  Name = Enterolactone.pdbqt.pdb
REMARK  2 active torsions:
REMARK  status: ('A' for Active; 'I' for Inactive)
REMARK    1  A    between atoms: C_10  and  O_14
REMARK    2  A    between atoms: C_19  and  O_23
REMARK                            x       y       z     vdW  Elec       q    Type
REMARK                         _______ _______ _______ _____ _____    ______ ____
ROOT
ATOM      1  O   UNL     1      -6.219   0.315  17.544  0.00  0.00    +0.000 OA
ATOM      2  O   UNL     1      -7.159  -1.037  19.194  0.00  0.00    +0.000 OA
ATOM      3  C   UNL     1      -7.876   2.007  17.441  0.00  0.00    +0.000 C 
ATOM      4  C   UNL     1      -8.245   1.027  18.434  0.00  0.00    +0.000 C 
ATOM      5  C   UNL     1      -6.666   1.449  17.027  0.00  0.00    +0.000 C 
ATOM      6  C   UNL     1      -7.180  -0.052  18.479  0.00  0.00    +0.000 C 
ATOM      7  C   UNL     1      -8.337   3.335  17.372  0.00  0.00    +0.000 C 
ATOM      8  C   UNL     1      -8.821   4.674  17.313  0.00  0.00    +0.000 C 
ATOM      9  C   UNL     1      -9.158   5.341  18.489  0.00  0.00    +0.000 C 
ATOM     10  C   UNL     1      -9.640   6.645  18.417  0.00  0.00    +0.000 C 
ATOM     11  C   UNL     1      -9.787   7.286  17.191  0.00  0.00    +0.000 C 
ATOM     12  C   UNL     1      -9.448   6.614  16.019  0.00  0.00    +0.000 C 
ATOM     13  C   UNL     1      -8.965   5.308  16.080  0.00  0.00    +0.000 C 
ATOM     14  C   UNL     1      -9.368   1.098  19.288  0.00  0.00    +0.000 C 
ATOM     15  C   UNL     1     -10.501   1.180  20.149  0.00  0.00    +0.000 C 
ATOM     16  C   UNL     1     -11.708   1.670  19.660  0.00  0.00    +0.000 C 
ATOM     17  C   UNL     1     -12.804   1.755  20.515  0.00  0.00    +0.000 C 
ATOM     18  C   UNL     1     -12.706   1.360  21.844  0.00  0.00    +0.000 C 
ATOM     19  C   UNL     1     -11.494   0.870  22.327  0.00  0.00    +0.000 C 
ATOM     20  C   UNL     1     -10.390   0.781  21.480  0.00  0.00    +0.000 C 
ENDROOT
BRANCH  10  21
ATOM     21  O   UNL     1      -9.979   7.326  19.549  0.00  0.00    +0.000 OA
ATOM     22  H   UNL     1      -9.211   7.848  19.839  0.00  0.00    +0.000 HD
ENDBRANCH  10  21
BRANCH  17  23
ATOM     23  O   UNL     1     -14.001   2.231  20.068  0.00  0.00    +0.000 OA
ATOM     24  H   UNL     1     -14.527   2.516  20.837  0.00  0.00    +0.000 HD
ENDBRANCH  17  23
TORSDOF 2
ENDMDL
MODEL 8
REMARK VINA RESULT:      -4.5     26.373     29.586
REMARK  Name = Enterolactone.pdbqt.pdb
REMARK  2 active torsions:
REMARK  status: ('A' for Active; 'I' for Inactive)
REMARK    1  A    between atoms: C_10  and  O_14
REMARK    2  A    between atoms: C_19  and  O_23
REMARK                            x       y       z     vdW  Elec       q    Type
REMARK                         _______ _______ _______ _____ _____    ______ ____
ROOT
ATOM      1  O   UNL     1     -11.056  16.531  21.260  0.00  0.00    +0.000 OA
ATOM      2  O   UNL     1     -11.582  14.938  22.879  0.00  0.00    +0.000 OA
ATOM      3  C   UNL     1     -12.069  18.433  22.246  0.00  0.00    +0.000 C 
ATOM      4  C   UNL     1     -12.261  17.285  23.099  0.00  0.00    +0.000 C 
ATOM      5  C   UNL     1     -11.339  17.823  21.225  0.00  0.00    +0.000 C 
ATOM      6  C   UNL     1     -11.616  16.076  22.448  0.00  0.00    +0.000 C 
ATOM      7  C   UNL     1     -12.129  19.783  22.643  0.00  0.00    +0.000 C 
ATOM      8  C   UNL     1     -12.201  21.143  23.060  0.00  0.00    +0.000 C 
ATOM      9  C   UNL     1     -11.832  21.490  24.358  0.00  0.00    +0.000 C 
ATOM     10  C   UNL     1     -11.918  22.820  24.756  0.00  0.00    +0.000 C 
ATOM     11  C   UNL     1     -12.365  23.802  23.878  0.00  0.00    +0.000 C 
ATOM     12  C   UNL     1     -12.732  23.450  22.582  0.00  0.00    +0.000 C 
ATOM     13  C   UNL     1     -12.650  22.120  22.172  0.00  0.00    +0.000 C 
ATOM     14  C   UNL     1     -12.873  17.294  24.372  0.00  0.00    +0.000 C 
ATOM     15  C   UNL     1     -13.487  17.313  25.658  0.00  0.00    +0.000 C 
ATOM     16  C   UNL     1     -14.600  18.118  25.882  0.00  0.00    +0.000 C 
ATOM     17  C   UNL     1     -15.184  18.136  27.146  0.00  0.00    +0.000 C 
ATOM     18  C   UNL     1     -14.669  17.364  28.182  0.00  0.00    +0.000 C 
ATOM     19  C   UNL     1     -13.555  16.560  27.951  0.00  0.00    +0.000 C 
ATOM     20  C   UNL     1     -12.962  16.535  26.689  0.00  0.00    +0.000 C 
ENDROOT
BRANCH  10  21
ATOM     21  O   UNL     1     -11.564  23.194  26.020  0.00  0.00    +0.000 OA
ATOM     22  H   UNL     1     -12.228  22.849  26.642  0.00  0.00    +0.000 HD
ENDBRANCH  10  21
BRANCH  17  23
ATOM     23  O   UNL     1     -16.275  18.914  27.399  0.00  0.00    +0.000 OA
ATOM     24  H   UNL     1     -16.127  19.792  27.004  0.00  0.00    +0.000 HD
ENDBRANCH  17  23
TORSDOF 2
ENDMDL
MODEL 9
REMARK VINA RESULT:      -4.4     11.624     14.186
REMARK  Name = Enterolactone.pdbqt.pdb
REMARK  2 active torsions:
REMARK  status: ('A' for Active; 'I' for Inactive)
REMARK    1  A    between atoms: C_10  and  O_14
REMARK    2  A    between atoms: C_19  and  O_23
REMARK                            x       y       z     vdW  Elec       q    Type
REMARK                         _______ _______ _______ _____ _____    ______ ____
ROOT
ATOM      1  O   UNL     1       0.643  15.734   0.946  0.00  0.00    +0.000 OA
ATOM      2  O   UNL     1      -0.696  17.559   1.501  0.00  0.00    +0.000 OA
ATOM      3  C   UNL     1      -1.043  14.209   0.273  0.00  0.00    +0.000 C 
ATOM      4  C   UNL     1      -1.648  15.459   0.667  0.00  0.00    +0.000 C 
ATOM      5  C   UNL     1       0.296  14.543   0.484  0.00  0.00    +0.000 C 
ATOM      6  C   UNL     1      -0.557  16.418   1.103  0.00  0.00    +0.000 C 
ATOM      7  C   UNL     1      -1.618  13.234  -0.563  0.00  0.00    +0.000 C 
ATOM      8  C   UNL     1      -2.219  12.253  -1.404  0.00  0.00    +0.000 C 
ATOM      9  C   UNL     1      -3.107  12.648  -2.402  0.00  0.00    +0.000 C 
ATOM     10  C   UNL     1      -3.695  11.679  -3.210  0.00  0.00    +0.000 C 
ATOM     11  C   UNL     1      -3.408  10.330  -3.034  0.00  0.00    +0.000 C 
ATOM     12  C   UNL     1      -2.519   9.942  -2.034  0.00  0.00    +0.000 C 
ATOM     13  C   UNL     1      -1.924  10.903  -1.219  0.00  0.00    +0.000 C 
ATOM     14  C   UNL     1      -3.023  15.774   0.582  0.00  0.00    +0.000 C 
ATOM     15  C   UNL     1      -4.410  16.086   0.488  0.00  0.00    +0.000 C 
ATOM     16  C   UNL     1      -5.360  15.115   0.791  0.00  0.00    +0.000 C 
ATOM     17  C   UNL     1      -6.712  15.429   0.684  0.00  0.00    +0.000 C 
ATOM     18  C   UNL     1      -7.122  16.695   0.280  0.00  0.00    +0.000 C 
ATOM     19  C   UNL     1      -6.166  17.662  -0.020  0.00  0.00    +0.000 C 
ATOM     20  C   UNL     1      -4.809  17.359   0.082  0.00  0.00    +0.000 C 
ENDROOT
BRANCH  10  21
ATOM     21  O   UNL     1      -4.569  12.032  -4.197  0.00  0.00    +0.000 OA
ATOM     22  H   UNL     1      -4.941  11.222  -4.586  0.00  0.00    +0.000 HD
ENDBRANCH  10  21
BRANCH  17  23
ATOM     23  O   UNL     1      -7.669  14.500   0.972  0.00  0.00    +0.000 OA
ATOM     24  H   UNL     1      -7.814  13.951   0.181  0.00  0.00    +0.000 HD
ENDBRANCH  17  23
TORSDOF 2
ENDMDL
