REMARK  Name = Enterolactone.pdbqt.pdb
REMARK  2 active torsions:
REMARK  status: ('A' for Active; 'I' for Inactive)
REMARK    1  A    between atoms: C_10  and  O_14
REMARK    2  A    between atoms: C_19  and  O_23
REMARK                            x       y       z     vdW  Elec       q    Type
REMARK                         _______ _______ _______ _____ _____    ______ ____
ROOT
ATOM      1  O   UNL     1      -4.393   0.534   0.203  0.00  0.00    +0.000 OA
ATOM      2  O   UNL     1      -4.243  -1.774  -0.089  0.00  0.00    +0.000 OA
ATOM      3  C   UNL     1      -2.095   1.036   0.497  0.00  0.00    +0.000 C 
ATOM      4  C   UNL     1      -2.258  -0.382   0.283  0.00  0.00    +0.000 C 
ATOM      5  C   UNL     1      -3.433   1.422   0.408  0.00  0.00    +0.000 C 
ATOM      6  C   UNL     1      -3.734  -0.686   0.107  0.00  0.00    +0.000 C 
ATOM      7  C   UNL     1      -0.917   1.778   0.290  0.00  0.00    +0.000 C 
ATOM      8  C   UNL     1       0.287   2.512   0.083  0.00  0.00    +0.000 C 
ATOM      9  C   UNL     1       1.183   2.108  -0.904  0.00  0.00    +0.000 C 
ATOM     10  C   UNL     1       2.360   2.827  -1.089  0.00  0.00    +0.000 C 
ATOM     11  C   UNL     1       2.650   3.938  -0.304  0.00  0.00    +0.000 C 
ATOM     12  C   UNL     1       1.750   4.337   0.681  0.00  0.00    +0.000 C 
ATOM     13  C   UNL     1       0.568   3.624   0.875  0.00  0.00    +0.000 C 
ATOM     14  C   UNL     1      -1.213  -1.326   0.169  0.00  0.00    +0.000 C 
ATOM     15  C   UNL     1      -0.153  -2.271   0.050  0.00  0.00    +0.000 C 
ATOM     16  C   UNL     1       0.971  -2.157   0.863  0.00  0.00    +0.000 C 
ATOM     17  C   UNL     1       2.004  -3.080   0.729  0.00  0.00    +0.000 C 
ATOM     18  C   UNL     1       1.927  -4.109  -0.203  0.00  0.00    +0.000 C 
ATOM     19  C   UNL     1       0.799  -4.218  -1.013  0.00  0.00    +0.000 C 
ATOM     20  C   UNL     1      -0.242  -3.299  -0.888  0.00  0.00    +0.000 C 
ENDROOT
BRANCH  10  21
ATOM     21  O   UNL     1       3.259   2.458  -2.047  0.00  0.00    +0.000 OA
ATOM     22  H   UNL     1       2.912   1.678  -2.514  0.00  0.00    +0.000 HD
ENDBRANCH  10  21
BRANCH  17  23
ATOM     23  O   UNL     1       3.120  -2.996   1.509  0.00  0.00    +0.000 OA
ATOM     24  H   UNL     1       3.015  -2.244   2.119  0.00  0.00    +0.000 HD
ENDBRANCH  17  23
TORSDOF 2
