MODEL 1
REMARK VINA RESULT:      -6.0      0.000      0.000
REMARK  Name = 
REMARK  12 active torsions:
REMARK  status: ('A' for Active; 'I' for Inactive)
REMARK    1  A    between atoms: O_2  and  C_12
REMARK    2  A    between atoms: O_2  and  C_24
REMARK    3  A    between atoms: O_3  and  C_18
REMARK    4  A    between atoms: O_4  and  C_23
REMARK    5  A    between atoms: O_5  and  C_25
REMARK    6  A    between atoms: O_6  and  C_26
REMARK    7  A    between atoms: O_8  and  C_27
REMARK    8  A    between atoms: O_9  and  C_31
REMARK    9  A    between atoms: O_10  and  C_32
REMARK   10  A    between atoms: O_11  and  C_33
REMARK   11  A    between atoms: C_13  and  C_16
REMARK   12  A    between atoms: C_24  and  C_28
REMARK                            x       y       z     vdW  Elec       q    Type
REMARK                         _______ _______ _______ _____ _____    ______ ____
ROOT
ATOM      1  O   UNL     1     -23.339  14.260   4.713  0.00  0.00    +0.000 OA
ATOM      2  C   UNL     1     -23.974  13.038   6.764  0.00  0.00    +0.000 C 
ATOM      3  C   UNL     1     -24.205  14.262   5.861  0.00  0.00    +0.000 C 
ATOM      4  C   UNL     1     -24.303  11.779   5.964  0.00  0.00    +0.000 C 
ATOM      5  C   UNL     1     -23.741  11.854   4.566  0.00  0.00    +0.000 A 
ATOM      6  C   UNL     1     -23.304  13.073   4.030  0.00  0.00    +0.000 A 
ATOM      7  C   UNL     1     -23.665  10.708   3.766  0.00  0.00    +0.000 A 
ATOM      8  C   UNL     1     -22.763  13.134   2.745  0.00  0.00    +0.000 A 
ATOM      9  C   UNL     1     -23.138  10.760   2.477  0.00  0.00    +0.000 A 
ATOM     10  C   UNL     1     -22.687  11.976   1.979  0.00  0.00    +0.000 A 
ENDROOT
BRANCH   3  11
ATOM     11  C   UNL     1     -24.012  15.567   6.622  0.00  0.00    +0.000 A 
ATOM     12  C   UNL     1     -24.887  15.898   7.675  0.00  0.00    +0.000 A 
ATOM     13  C   UNL     1     -22.949  16.438   6.317  0.00  0.00    +0.000 A 
ATOM     14  C   UNL     1     -22.779  17.608   7.050  0.00  0.00    +0.000 A 
ATOM     15  C   UNL     1     -24.706  17.078   8.400  0.00  0.00    +0.000 A 
ATOM     16  C   UNL     1     -23.652  17.930   8.086  0.00  0.00    +0.000 A 
BRANCH  14  17
ATOM     17  O   UNL     1     -21.755  18.478   6.788  0.00  0.00    +0.000 OA
ATOM     18  H   UNL     1     -21.414  18.289   5.896  0.00  0.00    +0.000 HD
ENDBRANCH  14  17
BRANCH  15  19
ATOM     19  O   UNL     1     -25.554  17.404   9.419  0.00  0.00    +0.000 OA
ATOM     20  H   UNL     1     -25.108  17.271  10.269  0.00  0.00    +0.000 HD
ENDBRANCH  15  19
BRANCH  16  21
ATOM     21  O   UNL     1     -23.455  19.089   8.786  0.00  0.00    +0.000 OA
ATOM     22  H   UNL     1     -23.112  19.721   8.126  0.00  0.00    +0.000 HD
ENDBRANCH  16  21
ENDBRANCH   3  11
BRANCH   7  23
ATOM     23  O   UNL     1     -24.119   9.524   4.275  0.00  0.00    +0.000 OA
ATOM     24  H   UNL     1     -23.415   9.122   4.810  0.00  0.00    +0.000 HD
ENDBRANCH   7  23
BRANCH  10  25
ATOM     25  O   UNL     1     -22.173  11.991   0.716  0.00  0.00    +0.000 OA
ATOM     26  H   UNL     1     -21.224  11.788   0.760  0.00  0.00    +0.000 HD
ENDBRANCH  10  25
BRANCH   2  27
ATOM     27  O   UNL     1     -22.584  12.988   7.171  0.00  0.00    +0.000 OA
BRANCH  27  29
ATOM     28  O   UNL     1     -22.131  11.443   8.807  0.00  0.00    +0.000 OA
ATOM     29  C   UNL     1     -22.341  12.587   8.438  0.00  0.00    +0.000 C 
BRANCH  29  30
ATOM     30  C   UNL     1     -22.403  13.753   9.355  0.00  0.00    +0.000 A 
ATOM     31  C   UNL     1     -21.421  14.748   9.221  0.00  0.00    +0.000 A 
ATOM     32  C   UNL     1     -23.411  13.878  10.326  0.00  0.00    +0.000 A 
ATOM     33  C   UNL     1     -23.425  14.989  11.167  0.00  0.00    +0.000 A 
ATOM     34  C   UNL     1     -21.449  15.847  10.071  0.00  0.00    +0.000 A 
ATOM     35  C   UNL     1     -22.443  15.967  11.043  0.00  0.00    +0.000 A 
BRANCH  33  36
ATOM     36  O   UNL     1     -24.397  15.126  12.117  0.00  0.00    +0.000 OA
ATOM     37  H   UNL     1     -24.055  15.645  12.860  0.00  0.00    +0.000 HD
ENDBRANCH  33  36
BRANCH  34  38
ATOM     38  O   UNL     1     -20.515  16.843   9.989  0.00  0.00    +0.000 OA
ATOM     39  H   UNL     1     -20.247  17.094  10.892  0.00  0.00    +0.000 HD
ENDBRANCH  34  38
BRANCH  35  40
ATOM     40  O   UNL     1     -22.439  17.062  11.862  0.00  0.00    +0.000 OA
ATOM     41  H   UNL     1     -22.308  16.705  12.762  0.00  0.00    +0.000 HD
ENDBRANCH  35  40
ENDBRANCH  29  30
ENDBRANCH  27  29
ENDBRANCH   2  27
TORSDOF 12
ENDMDL
MODEL 2
REMARK VINA RESULT:      -5.8     16.861     20.159
REMARK  Name = 
REMARK  12 active torsions:
REMARK  status: ('A' for Active; 'I' for Inactive)
REMARK    1  A    between atoms: O_2  and  C_12
REMARK    2  A    between atoms: O_2  and  C_24
REMARK    3  A    between atoms: O_3  and  C_18
REMARK    4  A    between atoms: O_4  and  C_23
REMARK    5  A    between atoms: O_5  and  C_25
REMARK    6  A    between atoms: O_6  and  C_26
REMARK    7  A    between atoms: O_8  and  C_27
REMARK    8  A    between atoms: O_9  and  C_31
REMARK    9  A    between atoms: O_10  and  C_32
REMARK   10  A    between atoms: O_11  and  C_33
REMARK   11  A    between atoms: C_13  and  C_16
REMARK   12  A    between atoms: C_24  and  C_28
REMARK                            x       y       z     vdW  Elec       q    Type
REMARK                         _______ _______ _______ _____ _____    ______ ____
ROOT
ATOM      1  O   UNL     1     -10.892  17.806  24.146  0.00  0.00    +0.000 OA
ATOM      2  C   UNL     1     -10.955  18.441  21.759  0.00  0.00    +0.000 C 
ATOM      3  C   UNL     1     -10.656  18.868  23.207  0.00  0.00    +0.000 C 
ATOM      4  C   UNL     1     -10.007  17.301  21.387  0.00  0.00    +0.000 C 
ATOM      5  C   UNL     1      -9.890  16.297  22.506  0.00  0.00    +0.000 A 
ATOM      6  C   UNL     1     -10.327  16.607  23.800  0.00  0.00    +0.000 A 
ATOM      7  C   UNL     1      -9.318  15.040  22.278  0.00  0.00    +0.000 A 
ATOM      8  C   UNL     1     -10.237  15.666  24.828  0.00  0.00    +0.000 A 
ATOM      9  C   UNL     1      -9.212  14.098  23.299  0.00  0.00    +0.000 A 
ATOM     10  C   UNL     1      -9.679  14.419  24.568  0.00  0.00    +0.000 A 
ENDROOT
BRANCH   3  11
ATOM     11  C   UNL     1     -11.481  20.081  23.616  0.00  0.00    +0.000 A 
ATOM     12  C   UNL     1     -11.531  21.209  22.774  0.00  0.00    +0.000 A 
ATOM     13  C   UNL     1     -12.228  20.085  24.808  0.00  0.00    +0.000 A 
ATOM     14  C   UNL     1     -12.997  21.195  25.142  0.00  0.00    +0.000 A 
ATOM     15  C   UNL     1     -12.305  22.318  23.123  0.00  0.00    +0.000 A 
ATOM     16  C   UNL     1     -13.036  22.309  24.306  0.00  0.00    +0.000 A 
BRANCH  14  17
ATOM     17  O   UNL     1     -13.742  21.236  26.290  0.00  0.00    +0.000 OA
ATOM     18  H   UNL     1     -13.448  20.512  26.870  0.00  0.00    +0.000 HD
ENDBRANCH  14  17
BRANCH  15  19
ATOM     19  O   UNL     1     -12.353  23.414  22.311  0.00  0.00    +0.000 OA
ATOM     20  H   UNL     1     -11.629  23.375  21.668  0.00  0.00    +0.000 HD
ENDBRANCH  15  19
BRANCH  16  21
ATOM     21  O   UNL     1     -13.804  23.383  24.665  0.00  0.00    +0.000 OA
ATOM     22  H   UNL     1     -13.650  23.487  25.623  0.00  0.00    +0.000 HD
ENDBRANCH  16  21
ENDBRANCH   3  11
BRANCH   7  23
ATOM     23  O   UNL     1      -8.861  14.747  21.024  0.00  0.00    +0.000 OA
ATOM     24  H   UNL     1      -9.034  15.505  20.442  0.00  0.00    +0.000 HD
ENDBRANCH   7  23
BRANCH  10  25
ATOM     25  O   UNL     1      -9.564  13.474  25.543  0.00  0.00    +0.000 OA
ATOM     26  H   UNL     1      -8.731  12.989  25.414  0.00  0.00    +0.000 HD
ENDBRANCH  10  25
BRANCH   2  27
ATOM     27  O   UNL     1     -12.321  17.965  21.664  0.00  0.00    +0.000 OA
BRANCH  27  29
ATOM     28  O   UNL     1     -12.907  18.999  19.700  0.00  0.00    +0.000 OA
ATOM     29  C   UNL     1     -13.145  18.658  20.847  0.00  0.00    +0.000 C 
BRANCH  29  30
ATOM     30  C   UNL     1     -14.400  18.993  21.565  0.00  0.00    +0.000 A 
ATOM     31  C   UNL     1     -15.403  19.673  20.856  0.00  0.00    +0.000 A 
ATOM     32  C   UNL     1     -14.600  18.639  22.911  0.00  0.00    +0.000 A 
ATOM     33  C   UNL     1     -15.793  18.979  23.545  0.00  0.00    +0.000 A 
ATOM     34  C   UNL     1     -16.585  20.006  21.505  0.00  0.00    +0.000 A 
ATOM     35  C   UNL     1     -16.780  19.666  22.844  0.00  0.00    +0.000 A 
BRANCH  33  36
ATOM     36  O   UNL     1     -16.003  18.645  24.852  0.00  0.00    +0.000 OA
ATOM     37  H   UNL     1     -16.926  18.818  25.089  0.00  0.00    +0.000 HD
ENDBRANCH  33  36
BRANCH  34  38
ATOM     38  O   UNL     1     -17.594  20.673  20.864  0.00  0.00    +0.000 OA
ATOM     39  H   UNL     1     -18.191  21.052  21.534  0.00  0.00    +0.000 HD
ENDBRANCH  34  38
BRANCH  35  40
ATOM     40  O   UNL     1     -17.957  20.011  23.451  0.00  0.00    +0.000 OA
ATOM     41  H   UNL     1     -18.634  19.938  22.751  0.00  0.00    +0.000 HD
ENDBRANCH  35  40
ENDBRANCH  29  30
ENDBRANCH  27  29
ENDBRANCH   2  27
TORSDOF 12
ENDMDL
MODEL 3
REMARK VINA RESULT:      -5.7     16.667     20.409
REMARK  Name = 
REMARK  12 active torsions:
REMARK  status: ('A' for Active; 'I' for Inactive)
REMARK    1  A    between atoms: O_2  and  C_12
REMARK    2  A    between atoms: O_2  and  C_24
REMARK    3  A    between atoms: O_3  and  C_18
REMARK    4  A    between atoms: O_4  and  C_23
REMARK    5  A    between atoms: O_5  and  C_25
REMARK    6  A    between atoms: O_6  and  C_26
REMARK    7  A    between atoms: O_8  and  C_27
REMARK    8  A    between atoms: O_9  and  C_31
REMARK    9  A    between atoms: O_10  and  C_32
REMARK   10  A    between atoms: O_11  and  C_33
REMARK   11  A    between atoms: C_13  and  C_16
REMARK   12  A    between atoms: C_24  and  C_28
REMARK                            x       y       z     vdW  Elec       q    Type
REMARK                         _______ _______ _______ _____ _____    ______ ____
ROOT
ATOM      1  O   UNL     1     -10.828  16.819  24.419  0.00  0.00    +0.000 OA
ATOM      2  C   UNL     1     -13.200  16.886  23.730  0.00  0.00    +0.000 C 
ATOM      3  C   UNL     1     -11.725  16.804  23.296  0.00  0.00    +0.000 C 
ATOM      4  C   UNL     1     -13.523  15.652  24.571  0.00  0.00    +0.000 C 
ATOM      5  C   UNL     1     -12.419  15.353  25.554  0.00  0.00    +0.000 A 
ATOM      6  C   UNL     1     -11.155  15.941  25.418  0.00  0.00    +0.000 A 
ATOM      7  C   UNL     1     -12.630  14.460  26.612  0.00  0.00    +0.000 A 
ATOM      8  C   UNL     1     -10.142  15.679  26.343  0.00  0.00    +0.000 A 
ATOM      9  C   UNL     1     -11.623  14.182  27.534  0.00  0.00    +0.000 A 
ATOM     10  C   UNL     1     -10.386  14.799  27.393  0.00  0.00    +0.000 A 
ENDROOT
BRANCH   3  11
ATOM     11  C   UNL     1     -11.354  17.941  22.353  0.00  0.00    +0.000 A 
ATOM     12  C   UNL     1     -12.138  18.184  21.208  0.00  0.00    +0.000 A 
ATOM     13  C   UNL     1     -10.259  18.783  22.622  0.00  0.00    +0.000 A 
ATOM     14  C   UNL     1      -9.961  19.832  21.759  0.00  0.00    +0.000 A 
ATOM     15  C   UNL     1     -11.825  19.240  20.349  0.00  0.00    +0.000 A 
ATOM     16  C   UNL     1     -10.738  20.062  20.626  0.00  0.00    +0.000 A 
BRANCH  14  17
ATOM     17  O   UNL     1      -8.907  20.675  21.989  0.00  0.00    +0.000 OA
ATOM     18  H   UNL     1      -8.103  20.139  22.094  0.00  0.00    +0.000 HD
ENDBRANCH  14  17
BRANCH  15  19
ATOM     19  O   UNL     1     -12.581  19.476  19.236  0.00  0.00    +0.000 OA
ATOM     20  H   UNL     1     -12.298  18.888  18.520  0.00  0.00    +0.000 HD
ENDBRANCH  15  19
BRANCH  16  21
ATOM     21  O   UNL     1     -10.417  21.103  19.800  0.00  0.00    +0.000 OA
ATOM     22  H   UNL     1     -10.425  21.890  20.378  0.00  0.00    +0.000 HD
ENDBRANCH  16  21
ENDBRANCH   3  11
BRANCH   7  23
ATOM     23  O   UNL     1     -13.852  13.861  26.729  0.00  0.00    +0.000 OA
ATOM     24  H   UNL     1     -14.531  14.462  26.380  0.00  0.00    +0.000 HD
ENDBRANCH   7  23
BRANCH  10  25
ATOM     25  O   UNL     1      -9.424  14.508  28.314  0.00  0.00    +0.000 OA
ATOM     26  H   UNL     1      -9.855  14.224  29.139  0.00  0.00    +0.000 HD
ENDBRANCH  10  25
BRANCH   2  27
ATOM     27  O   UNL     1     -13.406  18.072  24.536  0.00  0.00    +0.000 OA
BRANCH  27  29
ATOM     28  O   UNL     1     -15.330  18.310  25.766  0.00  0.00    +0.000 OA
ATOM     29  C   UNL     1     -14.688  18.449  24.737  0.00  0.00    +0.000 C 
BRANCH  29  30
ATOM     30  C   UNL     1     -15.240  19.037  23.491  0.00  0.00    +0.000 A 
ATOM     31  C   UNL     1     -16.498  18.593  23.055  0.00  0.00    +0.000 A 
ATOM     32  C   UNL     1     -14.542  20.016  22.763  0.00  0.00    +0.000 A 
ATOM     33  C   UNL     1     -15.099  20.536  21.595  0.00  0.00    +0.000 A 
ATOM     34  C   UNL     1     -17.036  19.120  21.887  0.00  0.00    +0.000 A 
ATOM     35  C   UNL     1     -16.340  20.083  21.157  0.00  0.00    +0.000 A 
BRANCH  33  36
ATOM     36  O   UNL     1     -14.434  21.486  20.874  0.00  0.00    +0.000 OA
ATOM     37  H   UNL     1     -14.893  21.639  20.035  0.00  0.00    +0.000 HD
ENDBRANCH  33  36
BRANCH  34  38
ATOM     38  O   UNL     1     -18.255  18.720  21.413  0.00  0.00    +0.000 OA
ATOM     39  H   UNL     1     -18.745  19.506  21.111  0.00  0.00    +0.000 HD
ENDBRANCH  34  38
BRANCH  35  40
ATOM     40  O   UNL     1     -16.900  20.580  20.012  0.00  0.00    +0.000 OA
ATOM     41  H   UNL     1     -16.282  21.272  19.707  0.00  0.00    +0.000 HD
ENDBRANCH  35  40
ENDBRANCH  29  30
ENDBRANCH  27  29
ENDBRANCH   2  27
TORSDOF 12
ENDMDL
MODEL 4
REMARK VINA RESULT:      -5.7     12.473     15.737
REMARK  Name = 
REMARK  12 active torsions:
REMARK  status: ('A' for Active; 'I' for Inactive)
REMARK    1  A    between atoms: O_2  and  C_12
REMARK    2  A    between atoms: O_2  and  C_24
REMARK    3  A    between atoms: O_3  and  C_18
REMARK    4  A    between atoms: O_4  and  C_23
REMARK    5  A    between atoms: O_5  and  C_25
REMARK    6  A    between atoms: O_6  and  C_26
REMARK    7  A    between atoms: O_8  and  C_27
REMARK    8  A    between atoms: O_9  and  C_31
REMARK    9  A    between atoms: O_10  and  C_32
REMARK   10  A    between atoms: O_11  and  C_33
REMARK   11  A    between atoms: C_13  and  C_16
REMARK   12  A    between atoms: C_24  and  C_28
REMARK                            x       y       z     vdW  Elec       q    Type
REMARK                         _______ _______ _______ _____ _____    ______ ____
ROOT
ATOM      1  O   UNL     1     -23.839   5.919  16.675  0.00  0.00    +0.000 OA
ATOM      2  C   UNL     1     -21.877   4.418  16.624  0.00  0.00    +0.000 C 
ATOM      3  C   UNL     1     -23.216   4.824  15.983  0.00  0.00    +0.000 C 
ATOM      4  C   UNL     1     -20.918   5.604  16.531  0.00  0.00    +0.000 C 
ATOM      5  C   UNL     1     -21.610   6.897  16.883  0.00  0.00    +0.000 A 
ATOM      6  C   UNL     1     -23.008   6.978  16.928  0.00  0.00    +0.000 A 
ATOM      7  C   UNL     1     -20.866   8.053  17.149  0.00  0.00    +0.000 A 
ATOM      8  C   UNL     1     -23.643   8.172  17.276  0.00  0.00    +0.000 A 
ATOM      9  C   UNL     1     -21.490   9.253  17.486  0.00  0.00    +0.000 A 
ATOM     10  C   UNL     1     -22.877   9.300  17.550  0.00  0.00    +0.000 A 
ENDROOT
BRANCH   3  11
ATOM     11  C   UNL     1     -24.190   3.655  15.929  0.00  0.00    +0.000 A 
ATOM     12  C   UNL     1     -23.791   2.438  15.343  0.00  0.00    +0.000 A 
ATOM     13  C   UNL     1     -25.478   3.754  16.489  0.00  0.00    +0.000 A 
ATOM     14  C   UNL     1     -26.336   2.660  16.452  0.00  0.00    +0.000 A 
ATOM     15  C   UNL     1     -24.665   1.349  15.311  0.00  0.00    +0.000 A 
ATOM     16  C   UNL     1     -25.935   1.462  15.866  0.00  0.00    +0.000 A 
BRANCH  14  17
ATOM     17  O   UNL     1     -27.594   2.715  16.990  0.00  0.00    +0.000 OA
ATOM     18  H   UNL     1     -27.861   1.813  17.237  0.00  0.00    +0.000 HD
ENDBRANCH  14  17
BRANCH  15  19
ATOM     19  O   UNL     1     -24.282   0.169  14.740  0.00  0.00    +0.000 OA
ATOM     20  H   UNL     1     -24.346  -0.544  15.393  0.00  0.00    +0.000 HD
ENDBRANCH  15  19
BRANCH  16  21
ATOM     21  O   UNL     1     -26.805   0.406  15.848  0.00  0.00    +0.000 OA
ATOM     22  H   UNL     1     -26.817   0.081  16.769  0.00  0.00    +0.000 HD
ENDBRANCH  16  21
ENDBRANCH   3  11
BRANCH   7  23
ATOM     23  O   UNL     1     -19.503   7.986  17.075  0.00  0.00    +0.000 OA
ATOM     24  H   UNL     1     -19.131   8.194  17.948  0.00  0.00    +0.000 HD
ENDBRANCH   7  23
BRANCH  10  25
ATOM     25  O   UNL     1     -23.456  10.487  17.886  0.00  0.00    +0.000 OA
ATOM     26  H   UNL     1     -24.155  10.690  17.241  0.00  0.00    +0.000 HD
ENDBRANCH  10  25
BRANCH   2  27
ATOM     27  O   UNL     1     -22.085   4.090  18.020  0.00  0.00    +0.000 OA
BRANCH  27  29
ATOM     28  O   UNL     1     -20.994   2.074  18.151  0.00  0.00    +0.000 OA
ATOM     29  C   UNL     1     -21.227   3.199  18.564  0.00  0.00    +0.000 C 
BRANCH  29  30
ATOM     30  C   UNL     1     -20.616   3.773  19.789  0.00  0.00    +0.000 A 
ATOM     31  C   UNL     1     -21.194   3.448  21.027  0.00  0.00    +0.000 A 
ATOM     32  C   UNL     1     -19.488   4.610  19.731  0.00  0.00    +0.000 A 
ATOM     33  C   UNL     1     -18.953   5.129  20.908  0.00  0.00    +0.000 A 
ATOM     34  C   UNL     1     -20.648   3.978  22.189  0.00  0.00    +0.000 A 
ATOM     35  C   UNL     1     -19.536   4.818  22.133  0.00  0.00    +0.000 A 
BRANCH  33  36
ATOM     36  O   UNL     1     -17.858   5.946  20.870  0.00  0.00    +0.000 OA
ATOM     37  H   UNL     1     -17.498   6.049  21.763  0.00  0.00    +0.000 HD
ENDBRANCH  33  36
BRANCH  34  38
ATOM     38  O   UNL     1     -21.173   3.700  23.422  0.00  0.00    +0.000 OA
ATOM     39  H   UNL     1     -21.561   4.516  23.786  0.00  0.00    +0.000 HD
ENDBRANCH  34  38
BRANCH  35  40
ATOM     40  O   UNL     1     -19.025   5.322  23.298  0.00  0.00    +0.000 OA
ATOM     41  H   UNL     1     -18.296   4.717  23.537  0.00  0.00    +0.000 HD
ENDBRANCH  35  40
ENDBRANCH  29  30
ENDBRANCH  27  29
ENDBRANCH   2  27
TORSDOF 12
ENDMDL
MODEL 5
REMARK VINA RESULT:      -5.6     12.324     15.528
REMARK  Name = 
REMARK  12 active torsions:
REMARK  status: ('A' for Active; 'I' for Inactive)
REMARK    1  A    between atoms: O_2  and  C_12
REMARK    2  A    between atoms: O_2  and  C_24
REMARK    3  A    between atoms: O_3  and  C_18
REMARK    4  A    between atoms: O_4  and  C_23
REMARK    5  A    between atoms: O_5  and  C_25
REMARK    6  A    between atoms: O_6  and  C_26
REMARK    7  A    between atoms: O_8  and  C_27
REMARK    8  A    between atoms: O_9  and  C_31
REMARK    9  A    between atoms: O_10  and  C_32
REMARK   10  A    between atoms: O_11  and  C_33
REMARK   11  A    between atoms: C_13  and  C_16
REMARK   12  A    between atoms: C_24  and  C_28
REMARK                            x       y       z     vdW  Elec       q    Type
REMARK                         _______ _______ _______ _____ _____    ______ ____
ROOT
ATOM      1  O   UNL     1     -23.771   5.781  16.440  0.00  0.00    +0.000 OA
ATOM      2  C   UNL     1     -21.614   4.587  16.604  0.00  0.00    +0.000 C 
ATOM      3  C   UNL     1     -22.909   4.821  15.806  0.00  0.00    +0.000 C 
ATOM      4  C   UNL     1     -20.841   5.903  16.666  0.00  0.00    +0.000 C 
ATOM      5  C   UNL     1     -21.757   7.065  16.958  0.00  0.00    +0.000 A 
ATOM      6  C   UNL     1     -23.146   6.938  16.825  0.00  0.00    +0.000 A 
ATOM      7  C   UNL     1     -21.235   8.304  17.348  0.00  0.00    +0.000 A 
ATOM      8  C   UNL     1     -23.992   8.009  17.118  0.00  0.00    +0.000 A 
ATOM      9  C   UNL     1     -22.069   9.383  17.631  0.00  0.00    +0.000 A 
ATOM     10  C   UNL     1     -23.445   9.224  17.518  0.00  0.00    +0.000 A 
ENDROOT
BRANCH   3  11
ATOM     11  C   UNL     1     -23.682   3.526  15.598  0.00  0.00    +0.000 A 
ATOM     12  C   UNL     1     -24.848   3.279  16.348  0.00  0.00    +0.000 A 
ATOM     13  C   UNL     1     -23.273   2.579  14.639  0.00  0.00    +0.000 A 
ATOM     14  C   UNL     1     -24.016   1.419  14.450  0.00  0.00    +0.000 A 
ATOM     15  C   UNL     1     -25.582   2.108  16.149  0.00  0.00    +0.000 A 
ATOM     16  C   UNL     1     -25.166   1.180  15.200  0.00  0.00    +0.000 A 
BRANCH  14  17
ATOM     17  O   UNL     1     -23.654   0.477  13.524  0.00  0.00    +0.000 OA
ATOM     18  H   UNL     1     -24.301  -0.249  13.557  0.00  0.00    +0.000 HD
ENDBRANCH  14  17
BRANCH  15  19
ATOM     19  O   UNL     1     -26.712   1.864  16.877  0.00  0.00    +0.000 OA
ATOM     20  H   UNL     1     -26.704   0.948  17.194  0.00  0.00    +0.000 HD
ENDBRANCH  15  19
BRANCH  16  21
ATOM     21  O   UNL     1     -25.872   0.029  14.986  0.00  0.00    +0.000 OA
ATOM     22  H   UNL     1     -26.707   0.156  15.476  0.00  0.00    +0.000 HD
ENDBRANCH  16  21
ENDBRANCH   3  11
BRANCH   7  23
ATOM     23  O   UNL     1     -19.879   8.440  17.448  0.00  0.00    +0.000 OA
ATOM     24  H   UNL     1     -19.659   8.735  18.348  0.00  0.00    +0.000 HD
ENDBRANCH   7  23
BRANCH  10  25
ATOM     25  O   UNL     1     -24.233  10.298  17.806  0.00  0.00    +0.000 OA
ATOM     26  H   UNL     1     -24.809  10.479  17.044  0.00  0.00    +0.000 HD
ENDBRANCH  10  25
BRANCH   2  27
ATOM     27  O   UNL     1     -21.942   4.170  17.953  0.00  0.00    +0.000 OA
BRANCH  27  29
ATOM     28  O   UNL     1     -20.860   2.156  18.157  0.00  0.00    +0.000 OA
ATOM     29  C   UNL     1     -21.095   3.292  18.535  0.00  0.00    +0.000 C 
BRANCH  29  30
ATOM     30  C   UNL     1     -20.501   3.898  19.752  0.00  0.00    +0.000 A 
ATOM     31  C   UNL     1     -19.283   4.583  19.619  0.00  0.00    +0.000 A 
ATOM     32  C   UNL     1     -21.129   3.808  21.006  0.00  0.00    +0.000 A 
ATOM     33  C   UNL     1     -20.530   4.389  22.122  0.00  0.00    +0.000 A 
ATOM     34  C   UNL     1     -18.699   5.154  20.743  0.00  0.00    +0.000 A 
ATOM     35  C   UNL     1     -19.315   5.055  21.991  0.00  0.00    +0.000 A 
BRANCH  33  36
ATOM     36  O   UNL     1     -21.126   4.308  23.349  0.00  0.00    +0.000 OA
ATOM     37  H   UNL     1     -21.428   3.402  23.505  0.00  0.00    +0.000 HD
ENDBRANCH  33  36
BRANCH  34  38
ATOM     38  O   UNL     1     -17.510   5.827  20.672  0.00  0.00    +0.000 OA
ATOM     39  H   UNL     1     -17.481   6.484  21.391  0.00  0.00    +0.000 HD
ENDBRANCH  34  38
BRANCH  35  40
ATOM     40  O   UNL     1     -18.711   5.628  23.076  0.00  0.00    +0.000 OA
ATOM     41  H   UNL     1     -18.314   6.454  22.738  0.00  0.00    +0.000 HD
ENDBRANCH  35  40
ENDBRANCH  29  30
ENDBRANCH  27  29
ENDBRANCH   2  27
TORSDOF 12
ENDMDL
MODEL 6
REMARK VINA RESULT:      -5.5      3.295      8.695
REMARK  Name = 
REMARK  12 active torsions:
REMARK  status: ('A' for Active; 'I' for Inactive)
REMARK    1  A    between atoms: O_2  and  C_12
REMARK    2  A    between atoms: O_2  and  C_24
REMARK    3  A    between atoms: O_3  and  C_18
REMARK    4  A    between atoms: O_4  and  C_23
REMARK    5  A    between atoms: O_5  and  C_25
REMARK    6  A    between atoms: O_6  and  C_26
REMARK    7  A    between atoms: O_8  and  C_27
REMARK    8  A    between atoms: O_9  and  C_31
REMARK    9  A    between atoms: O_10  and  C_32
REMARK   10  A    between atoms: O_11  and  C_33
REMARK   11  A    between atoms: C_13  and  C_16
REMARK   12  A    between atoms: C_24  and  C_28
REMARK                            x       y       z     vdW  Elec       q    Type
REMARK                         _______ _______ _______ _____ _____    ______ ____
ROOT
ATOM      1  O   UNL     1     -24.896  18.285  12.720  0.00  0.00    +0.000 OA
ATOM      2  C   UNL     1     -22.777  18.458  11.460  0.00  0.00    +0.000 C 
ATOM      3  C   UNL     1     -24.305  18.640  11.458  0.00  0.00    +0.000 C 
ATOM      4  C   UNL     1     -22.181  19.397  12.508  0.00  0.00    +0.000 C 
ATOM      5  C   UNL     1     -22.987  19.379  13.782  0.00  0.00    +0.000 A 
ATOM      6  C   UNL     1     -24.279  18.837  13.811  0.00  0.00    +0.000 A 
ATOM      7  C   UNL     1     -22.467  19.926  14.962  0.00  0.00    +0.000 A 
ATOM      8  C   UNL     1     -25.012  18.802  14.998  0.00  0.00    +0.000 A 
ATOM      9  C   UNL     1     -23.196  19.908  16.149  0.00  0.00    +0.000 A 
ATOM     10  C   UNL     1     -24.463  19.340  16.157  0.00  0.00    +0.000 A 
ENDROOT
BRANCH   3  11
ATOM     11  C   UNL     1     -24.966  17.823  10.356  0.00  0.00    +0.000 A 
ATOM     12  C   UNL     1     -24.626  18.059   9.010  0.00  0.00    +0.000 A 
ATOM     13  C   UNL     1     -25.891  16.805  10.659  0.00  0.00    +0.000 A 
ATOM     14  C   UNL     1     -26.457  16.055   9.633  0.00  0.00    +0.000 A 
ATOM     15  C   UNL     1     -25.204  17.299   7.991  0.00  0.00    +0.000 A 
ATOM     16  C   UNL     1     -26.118  16.298   8.304  0.00  0.00    +0.000 A 
BRANCH  14  17
ATOM     17  O   UNL     1     -27.355  15.053   9.887  0.00  0.00    +0.000 OA
ATOM     18  H   UNL     1     -26.908  14.365  10.408  0.00  0.00    +0.000 HD
ENDBRANCH  14  17
BRANCH  15  19
ATOM     19  O   UNL     1     -24.878  17.527   6.684  0.00  0.00    +0.000 OA
ATOM     20  H   UNL     1     -23.915  17.576   6.593  0.00  0.00    +0.000 HD
ENDBRANCH  15  19
BRANCH  16  21
ATOM     21  O   UNL     1     -26.693  15.540   7.322  0.00  0.00    +0.000 OA
ATOM     22  H   UNL     1     -26.063  14.809   7.172  0.00  0.00    +0.000 HD
ENDBRANCH  16  21
ENDBRANCH   3  11
BRANCH   7  23
ATOM     23  O   UNL     1     -21.220  20.484  14.930  0.00  0.00    +0.000 OA
ATOM     24  H   UNL     1     -21.306  21.449  14.996  0.00  0.00    +0.000 HD
ENDBRANCH   7  23
BRANCH  10  25
ATOM     25  O   UNL     1     -25.148  19.335  17.337  0.00  0.00    +0.000 OA
ATOM     26  H   UNL     1     -26.086  19.513  17.156  0.00  0.00    +0.000 HD
ENDBRANCH  10  25
BRANCH   2  27
ATOM     27  O   UNL     1     -22.450  17.090  11.813  0.00  0.00    +0.000 OA
BRANCH  27  29
ATOM     28  O   UNL     1     -20.388  16.681  10.891  0.00  0.00    +0.000 OA
ATOM     29  C   UNL     1     -21.581  16.450  11.000  0.00  0.00    +0.000 C 
BRANCH  29  30
ATOM     30  C   UNL     1     -22.300  15.422  10.206  0.00  0.00    +0.000 A 
ATOM     31  C   UNL     1     -23.103  14.500  10.896  0.00  0.00    +0.000 A 
ATOM     32  C   UNL     1     -22.198  15.364   8.805  0.00  0.00    +0.000 A 
ATOM     33  C   UNL     1     -22.888  14.378   8.103  0.00  0.00    +0.000 A 
ATOM     34  C   UNL     1     -23.780  13.522  10.179  0.00  0.00    +0.000 A 
ATOM     35  C   UNL     1     -23.671  13.456   8.790  0.00  0.00    +0.000 A 
BRANCH  33  36
ATOM     36  O   UNL     1     -22.798  14.306   6.742  0.00  0.00    +0.000 OA
ATOM     37  H   UNL     1     -22.735  13.379   6.468  0.00  0.00    +0.000 HD
ENDBRANCH  33  36
BRANCH  34  38
ATOM     38  O   UNL     1     -24.572  12.594  10.800  0.00  0.00    +0.000 OA
ATOM     39  H   UNL     1     -25.135  12.166  10.131  0.00  0.00    +0.000 HD
ENDBRANCH  34  38
BRANCH  35  40
ATOM     40  O   UNL     1     -24.353  12.478   8.117  0.00  0.00    +0.000 OA
ATOM     41  H   UNL     1     -24.168  12.645   7.173  0.00  0.00    +0.000 HD
ENDBRANCH  35  40
ENDBRANCH  29  30
ENDBRANCH  27  29
ENDBRANCH   2  27
TORSDOF 12
ENDMDL
MODEL 7
REMARK VINA RESULT:      -5.4     12.214     15.726
REMARK  Name = 
REMARK  12 active torsions:
REMARK  status: ('A' for Active; 'I' for Inactive)
REMARK    1  A    between atoms: O_2  and  C_12
REMARK    2  A    between atoms: O_2  and  C_24
REMARK    3  A    between atoms: O_3  and  C_18
REMARK    4  A    between atoms: O_4  and  C_23
REMARK    5  A    between atoms: O_5  and  C_25
REMARK    6  A    between atoms: O_6  and  C_26
REMARK    7  A    between atoms: O_8  and  C_27
REMARK    8  A    between atoms: O_9  and  C_31
REMARK    9  A    between atoms: O_10  and  C_32
REMARK   10  A    between atoms: O_11  and  C_33
REMARK   11  A    between atoms: C_13  and  C_16
REMARK   12  A    between atoms: C_24  and  C_28
REMARK                            x       y       z     vdW  Elec       q    Type
REMARK                         _______ _______ _______ _____ _____    ______ ____
ROOT
ATOM      1  O   UNL     1     -14.860   7.996  -3.721  0.00  0.00    +0.000 OA
ATOM      2  C   UNL     1     -15.604   7.769  -1.376  0.00  0.00    +0.000 C 
ATOM      3  C   UNL     1     -14.717   7.231  -2.512  0.00  0.00    +0.000 C 
ATOM      4  C   UNL     1     -15.162   9.196  -1.053  0.00  0.00    +0.000 C 
ATOM      5  C   UNL     1     -14.909   9.990  -2.310  0.00  0.00    +0.000 A 
ATOM      6  C   UNL     1     -14.769   9.352  -3.549  0.00  0.00    +0.000 A 
ATOM      7  C   UNL     1     -14.784  11.384  -2.259  0.00  0.00    +0.000 A 
ATOM      8  C   UNL     1     -14.557  10.093  -4.713  0.00  0.00    +0.000 A 
ATOM      9  C   UNL     1     -14.561  12.132  -3.413  0.00  0.00    +0.000 A 
ATOM     10  C   UNL     1     -14.453  11.478  -4.634  0.00  0.00    +0.000 A 
ENDROOT
BRANCH   3  11
ATOM     11  C   UNL     1     -15.017   5.769  -2.815  0.00  0.00    +0.000 A 
ATOM     12  C   UNL     1     -14.546   4.765  -1.947  0.00  0.00    +0.000 A 
ATOM     13  C   UNL     1     -15.790   5.400  -3.931  0.00  0.00    +0.000 A 
ATOM     14  C   UNL     1     -16.074   4.059  -4.166  0.00  0.00    +0.000 A 
ATOM     15  C   UNL     1     -14.836   3.422  -2.197  0.00  0.00    +0.000 A 
ATOM     16  C   UNL     1     -15.599   3.071  -3.305  0.00  0.00    +0.000 A 
BRANCH  14  17
ATOM     17  O   UNL     1     -16.827   3.660  -5.238  0.00  0.00    +0.000 OA
ATOM     18  H   UNL     1     -16.807   2.689  -5.282  0.00  0.00    +0.000 HD
ENDBRANCH  14  17
BRANCH  15  19
ATOM     19  O   UNL     1     -14.379   2.445  -1.359  0.00  0.00    +0.000 OA
ATOM     20  H   UNL     1     -14.998   1.700  -1.359  0.00  0.00    +0.000 HD
ENDBRANCH  15  19
BRANCH  16  21
ATOM     21  O   UNL     1     -15.898   1.762  -3.566  0.00  0.00    +0.000 OA
ATOM     22  H   UNL     1     -15.861   1.689  -4.539  0.00  0.00    +0.000 HD
ENDBRANCH  16  21
ENDBRANCH   3  11
BRANCH   7  23
ATOM     23  O   UNL     1     -14.888  12.006  -1.047  0.00  0.00    +0.000 OA
ATOM     24  H   UNL     1     -15.829  12.131  -0.839  0.00  0.00    +0.000 HD
ENDBRANCH   7  23
BRANCH  10  25
ATOM     25  O   UNL     1     -14.238  12.239  -5.744  0.00  0.00    +0.000 OA
ATOM     26  H   UNL     1     -13.433  12.768  -5.611  0.00  0.00    +0.000 HD
ENDBRANCH  10  25
BRANCH   2  27
ATOM     27  O   UNL     1     -16.988   7.792  -1.808  0.00  0.00    +0.000 OA
BRANCH  27  29
ATOM     28  O   UNL     1     -18.310   7.911   0.065  0.00  0.00    +0.000 OA
ATOM     29  C   UNL     1     -17.902   7.329  -0.927  0.00  0.00    +0.000 C 
BRANCH  29  30
ATOM     30  C   UNL     1     -18.328   5.961  -1.317  0.00  0.00    +0.000 A 
ATOM     31  C   UNL     1     -17.859   4.882  -0.551  0.00  0.00    +0.000 A 
ATOM     32  C   UNL     1     -19.181   5.736  -2.412  0.00  0.00    +0.000 A 
ATOM     33  C   UNL     1     -19.549   4.434  -2.743  0.00  0.00    +0.000 A 
ATOM     34  C   UNL     1     -18.235   3.591  -0.898  0.00  0.00    +0.000 A 
ATOM     35  C   UNL     1     -19.072   3.364  -1.991  0.00  0.00    +0.000 A 
BRANCH  33  36
ATOM     36  O   UNL     1     -20.376   4.197  -3.804  0.00  0.00    +0.000 OA
ATOM     37  H   UNL     1     -20.933   4.973  -3.963  0.00  0.00    +0.000 HD
ENDBRANCH  33  36
BRANCH  34  38
ATOM     38  O   UNL     1     -17.803   2.502  -0.191  0.00  0.00    +0.000 OA
ATOM     39  H   UNL     1     -17.471   2.804   0.673  0.00  0.00    +0.000 HD
ENDBRANCH  34  38
BRANCH  35  40
ATOM     40  O   UNL     1     -19.421   2.079  -2.304  0.00  0.00    +0.000 OA
ATOM     41  H   UNL     1     -18.770   1.519  -1.839  0.00  0.00    +0.000 HD
ENDBRANCH  35  40
ENDBRANCH  29  30
ENDBRANCH  27  29
ENDBRANCH   2  27
TORSDOF 12
ENDMDL
MODEL 8
REMARK VINA RESULT:      -5.4     16.731     20.099
REMARK  Name = 
REMARK  12 active torsions:
REMARK  status: ('A' for Active; 'I' for Inactive)
REMARK    1  A    between atoms: O_2  and  C_12
REMARK    2  A    between atoms: O_2  and  C_24
REMARK    3  A    between atoms: O_3  and  C_18
REMARK    4  A    between atoms: O_4  and  C_23
REMARK    5  A    between atoms: O_5  and  C_25
REMARK    6  A    between atoms: O_6  and  C_26
REMARK    7  A    between atoms: O_8  and  C_27
REMARK    8  A    between atoms: O_9  and  C_31
REMARK    9  A    between atoms: O_10  and  C_32
REMARK   10  A    between atoms: O_11  and  C_33
REMARK   11  A    between atoms: C_13  and  C_16
REMARK   12  A    between atoms: C_24  and  C_28
REMARK                            x       y       z     vdW  Elec       q    Type
REMARK                         _______ _______ _______ _____ _____    ______ ____
ROOT
ATOM      1  O   UNL     1     -13.396  18.586  21.298  0.00  0.00    +0.000 OA
ATOM      2  C   UNL     1     -12.311  17.811  23.379  0.00  0.00    +0.000 C 
ATOM      3  C   UNL     1     -12.205  18.661  22.100  0.00  0.00    +0.000 C 
ATOM      4  C   UNL     1     -13.455  18.362  24.230  0.00  0.00    +0.000 C 
ATOM      5  C   UNL     1     -14.662  18.684  23.386  0.00  0.00    +0.000 A 
ATOM      6  C   UNL     1     -14.561  18.780  21.992  0.00  0.00    +0.000 A 
ATOM      7  C   UNL     1     -15.907  18.916  23.982  0.00  0.00    +0.000 A 
ATOM      8  C   UNL     1     -15.686  19.057  21.212  0.00  0.00    +0.000 A 
ATOM      9  C   UNL     1     -17.034  19.204  23.214  0.00  0.00    +0.000 A 
ATOM     10  C   UNL     1     -16.913  19.268  21.832  0.00  0.00    +0.000 A 
ENDROOT
BRANCH   3  11
ATOM     11  C   UNL     1     -11.011  18.250  21.250  0.00  0.00    +0.000 A 
ATOM     12  C   UNL     1      -9.706  18.565  21.678  0.00  0.00    +0.000 A 
ATOM     13  C   UNL     1     -11.181  17.526  20.056  0.00  0.00    +0.000 A 
ATOM     14  C   UNL     1     -10.070  17.137  19.315  0.00  0.00    +0.000 A 
ATOM     15  C   UNL     1      -8.600  18.171  20.923  0.00  0.00    +0.000 A 
ATOM     16  C   UNL     1      -8.784  17.458  19.743  0.00  0.00    +0.000 A 
BRANCH  14  17
ATOM     17  O   UNL     1     -10.194  16.427  18.151  0.00  0.00    +0.000 OA
ATOM     18  H   UNL     1      -9.474  15.775  18.112  0.00  0.00    +0.000 HD
ENDBRANCH  14  17
BRANCH  15  19
ATOM     19  O   UNL     1      -7.334  18.478  21.333  0.00  0.00    +0.000 OA
ATOM     20  H   UNL     1      -6.690  18.043  20.755  0.00  0.00    +0.000 HD
ENDBRANCH  15  19
BRANCH  16  21
ATOM     21  O   UNL     1      -7.714  17.059  18.990  0.00  0.00    +0.000 OA
ATOM     22  H   UNL     1      -7.367  17.883  18.596  0.00  0.00    +0.000 HD
ENDBRANCH  16  21
ENDBRANCH   3  11
BRANCH   7  23
ATOM     23  O   UNL     1     -16.002  18.853  25.344  0.00  0.00    +0.000 OA
ATOM     24  H   UNL     1     -16.726  19.433  25.634  0.00  0.00    +0.000 HD
ENDBRANCH   7  23
BRANCH  10  25
ATOM     25  O   UNL     1     -18.035  19.548  21.110  0.00  0.00    +0.000 OA
ATOM     26  H   UNL     1     -18.319  20.456  21.310  0.00  0.00    +0.000 HD
ENDBRANCH  10  25
BRANCH   2  27
ATOM     27  O   UNL     1     -12.606  16.436  23.027  0.00  0.00    +0.000 OA
BRANCH  27  29
ATOM     28  O   UNL     1     -12.652  14.819  24.655  0.00  0.00    +0.000 OA
ATOM     29  C   UNL     1     -12.065  15.483  23.816  0.00  0.00    +0.000 C 
BRANCH  29  30
ATOM     30  C   UNL     1     -10.609  15.374  23.546  0.00  0.00    +0.000 A 
ATOM     31  C   UNL     1     -10.206  14.771  22.344  0.00  0.00    +0.000 A 
ATOM     32  C   UNL     1      -9.650  15.863  24.451  0.00  0.00    +0.000 A 
ATOM     33  C   UNL     1      -8.294  15.734  24.156  0.00  0.00    +0.000 A 
ATOM     34  C   UNL     1      -8.850  14.648  22.069  0.00  0.00    +0.000 A 
ATOM     35  C   UNL     1      -7.897  15.122  22.971  0.00  0.00    +0.000 A 
BRANCH  33  36
ATOM     36  O   UNL     1      -7.349  16.201  25.024  0.00  0.00    +0.000 OA
ATOM     37  H   UNL     1      -6.970  17.023  24.681  0.00  0.00    +0.000 HD
ENDBRANCH  33  36
BRANCH  34  38
ATOM     38  O   UNL     1      -8.400  14.064  20.916  0.00  0.00    +0.000 OA
ATOM     39  H   UNL     1      -7.867  14.714  20.425  0.00  0.00    +0.000 HD
ENDBRANCH  34  38
BRANCH  35  40
ATOM     40  O   UNL     1      -6.570  14.984  22.667  0.00  0.00    +0.000 OA
ATOM     41  H   UNL     1      -6.421  15.579  21.907  0.00  0.00    +0.000 HD
ENDBRANCH  35  40
ENDBRANCH  29  30
ENDBRANCH  27  29
ENDBRANCH   2  27
TORSDOF 12
ENDMDL
MODEL 9
REMARK VINA RESULT:      -5.4     16.701     20.094
REMARK  Name = 
REMARK  12 active torsions:
REMARK  status: ('A' for Active; 'I' for Inactive)
REMARK    1  A    between atoms: O_2  and  C_12
REMARK    2  A    between atoms: O_2  and  C_24
REMARK    3  A    between atoms: O_3  and  C_18
REMARK    4  A    between atoms: O_4  and  C_23
REMARK    5  A    between atoms: O_5  and  C_25
REMARK    6  A    between atoms: O_6  and  C_26
REMARK    7  A    between atoms: O_8  and  C_27
REMARK    8  A    between atoms: O_9  and  C_31
REMARK    9  A    between atoms: O_10  and  C_32
REMARK   10  A    between atoms: O_11  and  C_33
REMARK   11  A    between atoms: C_13  and  C_16
REMARK   12  A    between atoms: C_24  and  C_28
REMARK                            x       y       z     vdW  Elec       q    Type
REMARK                         _______ _______ _______ _____ _____    ______ ____
ROOT
ATOM      1  O   UNL     1     -13.416  18.693  21.145  0.00  0.00    +0.000 OA
ATOM      2  C   UNL     1     -12.207  17.943  23.165  0.00  0.00    +0.000 C 
ATOM      3  C   UNL     1     -12.194  18.810  21.894  0.00  0.00    +0.000 C 
ATOM      4  C   UNL     1     -13.333  18.436  24.073  0.00  0.00    +0.000 C 
ATOM      5  C   UNL     1     -14.589  18.716  23.288  0.00  0.00    +0.000 A 
ATOM      6  C   UNL     1     -14.555  18.832  21.892  0.00  0.00    +0.000 A 
ATOM      7  C   UNL     1     -15.815  18.890  23.942  0.00  0.00    +0.000 A 
ATOM      8  C   UNL     1     -15.724  19.069  21.166  0.00  0.00    +0.000 A 
ATOM      9  C   UNL     1     -16.986  19.139  23.228  0.00  0.00    +0.000 A 
ATOM     10  C   UNL     1     -16.930  19.222  21.843  0.00  0.00    +0.000 A 
ENDROOT
BRANCH   3  11
ATOM     11  C   UNL     1     -11.023  18.458  20.987  0.00  0.00    +0.000 A 
ATOM     12  C   UNL     1      -9.743  18.976  21.264  0.00  0.00    +0.000 A 
ATOM     13  C   UNL     1     -11.186  17.592  19.890  0.00  0.00    +0.000 A 
ATOM     14  C   UNL     1     -10.092  17.264  19.096  0.00  0.00    +0.000 A 
ATOM     15  C   UNL     1      -8.654  18.640  20.457  0.00  0.00    +0.000 A 
ATOM     16  C   UNL     1      -8.830  17.785  19.375  0.00  0.00    +0.000 A 
BRANCH  14  17
ATOM     17  O   UNL     1     -10.209  16.420  18.024  0.00  0.00    +0.000 OA
ATOM     18  H   UNL     1      -9.407  15.871  17.977  0.00  0.00    +0.000 HD
ENDBRANCH  14  17
BRANCH  15  19
ATOM     19  O   UNL     1      -7.412  19.143  20.721  0.00  0.00    +0.000 OA
ATOM     20  H   UNL     1      -6.765  18.743  20.122  0.00  0.00    +0.000 HD
ENDBRANCH  15  19
BRANCH  16  21
ATOM     21  O   UNL     1      -7.777  17.440  18.573  0.00  0.00    +0.000 OA
ATOM     22  H   UNL     1      -7.253  16.814  19.109  0.00  0.00    +0.000 HD
ENDBRANCH  16  21
ENDBRANCH   3  11
BRANCH   7  23
ATOM     23  O   UNL     1     -15.846  18.810  25.305  0.00  0.00    +0.000 OA
ATOM     24  H   UNL     1     -15.810  17.874  25.565  0.00  0.00    +0.000 HD
ENDBRANCH   7  23
BRANCH  10  25
ATOM     25  O   UNL     1     -18.094  19.463  21.175  0.00  0.00    +0.000 OA
ATOM     26  H   UNL     1     -18.303  20.410  21.240  0.00  0.00    +0.000 HD
ENDBRANCH  10  25
BRANCH   2  27
ATOM     27  O   UNL     1     -12.461  16.561  22.810  0.00  0.00    +0.000 OA
BRANCH  27  29
ATOM     28  O   UNL     1     -10.628  15.262  22.338  0.00  0.00    +0.000 OA
ATOM     29  C   UNL     1     -11.484  15.675  23.103  0.00  0.00    +0.000 C 
BRANCH  29  30
ATOM     30  C   UNL     1     -11.618  15.227  24.513  0.00  0.00    +0.000 A 
ATOM     31  C   UNL     1     -10.451  15.134  25.288  0.00  0.00    +0.000 A 
ATOM     32  C   UNL     1     -12.868  14.912  25.073  0.00  0.00    +0.000 A 
ATOM     33  C   UNL     1     -12.944  14.491  26.400  0.00  0.00    +0.000 A 
ATOM     34  C   UNL     1     -10.546  14.710  26.607  0.00  0.00    +0.000 A 
ATOM     35  C   UNL     1     -11.784  14.385  27.162  0.00  0.00    +0.000 A 
BRANCH  33  36
ATOM     36  O   UNL     1     -14.150  14.179  26.959  0.00  0.00    +0.000 OA
ATOM     37  H   UNL     1     -14.134  14.387  27.905  0.00  0.00    +0.000 HD
ENDBRANCH  33  36
BRANCH  34  38
ATOM     38  O   UNL     1      -9.441  14.595  27.407  0.00  0.00    +0.000 OA
ATOM     39  H   UNL     1      -8.649  14.564  26.840  0.00  0.00    +0.000 HD
ENDBRANCH  34  38
BRANCH  35  40
ATOM     40  O   UNL     1     -11.840  13.971  28.464  0.00  0.00    +0.000 OA
ATOM     41  H   UNL     1     -11.105  14.437  28.909  0.00  0.00    +0.000 HD
ENDBRANCH  35  40
ENDBRANCH  29  30
ENDBRANCH  27  29
ENDBRANCH   2  27
TORSDOF 12
ENDMDL
