MODEL 1
REMARK VINA RESULT:      -7.8      0.000      0.000
REMARK  Name = Estradiol.pdbqt.pdb
REMARK  2 active torsions:
REMARK  status: ('A' for Active; 'I' for Inactive)
REMARK    1  A    between atoms: C_5  and  O_19
REMARK    2  A    between atoms: C_18  and  O_21
REMARK                            x       y       z     vdW  Elec       q    Type
REMARK                         _______ _______ _______ _____ _____    ______ ____
ROOT
ATOM      1  C   UNL     1     -15.734   5.897  -2.542  0.00  0.00    +0.000 C 
ATOM      2  C   UNL     1     -15.910   6.726  -1.178  0.00  0.00    +0.000 C 
ATOM      3  C   UNL     1     -15.524   8.142  -1.084  0.00  0.00    +0.000 A 
ATOM      4  C   UNL     1     -15.169   9.054  -2.239  0.00  0.00    +0.000 A 
ATOM      5  C   UNL     1     -17.063   5.120  -2.641  0.00  0.00    +0.000 C 
ATOM      6  C   UNL     1     -15.546   6.893  -3.598  0.00  0.00    +0.000 C 
ATOM      7  C   UNL     1     -17.124   6.271  -0.569  0.00  0.00    +0.000 C 
ATOM      8  C   UNL     1     -15.252   8.369  -3.477  0.00  0.00    +0.000 C 
ATOM      9  C   UNL     1     -17.851   5.311  -1.475  0.00  0.00    +0.000 C 
ATOM     10  C   UNL     1     -15.491   8.836   0.153  0.00  0.00    +0.000 A 
ATOM     11  C   UNL     1     -14.540   4.919  -2.380  0.00  0.00    +0.000 C 
ATOM     12  C   UNL     1     -14.783  10.497  -2.090  0.00  0.00    +0.000 A 
ATOM     13  C   UNL     1     -15.115  10.290   0.297  0.00  0.00    +0.000 A 
ATOM     14  C   UNL     1     -14.756  11.120  -0.805  0.00  0.00    +0.000 A 
ATOM     15  C   UNL     1     -14.437  11.263  -3.203  0.00  0.00    +0.000 A 
ATOM     16  C   UNL     1     -14.394  12.450  -0.645  0.00  0.00    +0.000 A 
ATOM     17  C   UNL     1     -14.072  12.601  -3.050  0.00  0.00    +0.000 A 
ATOM     18  C   UNL     1     -14.053  13.178  -1.779  0.00  0.00    +0.000 A 
ENDROOT
BRANCH   5  19
ATOM     19  O   UNL     1     -17.607   4.718  -3.842  0.00  0.00    +0.000 OA
ATOM     20  H   UNL     1     -18.510   5.062  -3.963  0.00  0.00    +0.000 HD
ENDBRANCH   5  19
BRANCH  18  21
ATOM     21  O   UNL     1     -13.692  14.486  -1.620  0.00  0.00    +0.000 OA
ATOM     22  H   UNL     1     -14.429  15.047  -1.921  0.00  0.00    +0.000 HD
ENDBRANCH  18  21
TORSDOF 2
ENDMDL
MODEL 2
REMARK VINA RESULT:      -6.8      2.771      6.314
REMARK  Name = Estradiol.pdbqt.pdb
REMARK  2 active torsions:
REMARK  status: ('A' for Active; 'I' for Inactive)
REMARK    1  A    between atoms: C_5  and  O_19
REMARK    2  A    between atoms: C_18  and  O_21
REMARK                            x       y       z     vdW  Elec       q    Type
REMARK                         _______ _______ _______ _____ _____    ______ ____
ROOT
ATOM      1  C   UNL     1     -13.666  12.233  -5.768  0.00  0.00    +0.000 C 
ATOM      2  C   UNL     1     -13.501  12.786  -4.269  0.00  0.00    +0.000 C 
ATOM      3  C   UNL     1     -14.058  12.061  -3.116  0.00  0.00    +0.000 A 
ATOM      4  C   UNL     1     -14.609  10.652  -3.125  0.00  0.00    +0.000 A 
ATOM      5  C   UNL     1     -12.258  12.442  -6.364  0.00  0.00    +0.000 C 
ATOM      6  C   UNL     1     -14.055  10.828  -5.639  0.00  0.00    +0.000 C 
ATOM      7  C   UNL     1     -12.198  13.375  -4.184  0.00  0.00    +0.000 C 
ATOM      8  C   UNL     1     -14.527  10.076  -4.418  0.00  0.00    +0.000 C 
ATOM      9  C   UNL     1     -11.420  13.140  -5.454  0.00  0.00    +0.000 C 
ATOM     10  C   UNL     1     -14.092  12.624  -1.815  0.00  0.00    +0.000 A 
ATOM     11  C   UNL     1     -14.709  13.109  -6.510  0.00  0.00    +0.000 C 
ATOM     12  C   UNL     1     -15.165   9.954  -1.917  0.00  0.00    +0.000 A 
ATOM     13  C   UNL     1     -14.640  11.914  -0.601  0.00  0.00    +0.000 A 
ATOM     14  C   UNL     1     -15.180  10.596  -0.642  0.00  0.00    +0.000 A 
ATOM     15  C   UNL     1     -15.686   8.663  -2.014  0.00  0.00    +0.000 A 
ATOM     16  C   UNL     1     -15.698   9.972   0.485  0.00  0.00    +0.000 A 
ATOM     17  C   UNL     1     -16.209   8.030  -0.886  0.00  0.00    +0.000 A 
ATOM     18  C   UNL     1     -16.210   8.687   0.346  0.00  0.00    +0.000 A 
ENDROOT
BRANCH   5  19
ATOM     19  O   UNL     1     -11.755  11.664  -7.384  0.00  0.00    +0.000 OA
ATOM     20  H   UNL     1     -10.781  11.691  -7.411  0.00  0.00    +0.000 HD
ENDBRANCH   5  19
BRANCH  18  21
ATOM     21  O   UNL     1     -16.724   8.076   1.454  0.00  0.00    +0.000 OA
ATOM     22  H   UNL     1     -16.908   8.758   2.124  0.00  0.00    +0.000 HD
ENDBRANCH  18  21
TORSDOF 2
ENDMDL
MODEL 3
REMARK VINA RESULT:      -6.6      1.919      3.847
REMARK  Name = Estradiol.pdbqt.pdb
REMARK  2 active torsions:
REMARK  status: ('A' for Active; 'I' for Inactive)
REMARK    1  A    between atoms: C_5  and  O_19
REMARK    2  A    between atoms: C_18  and  O_21
REMARK                            x       y       z     vdW  Elec       q    Type
REMARK                         _______ _______ _______ _____ _____    ______ ____
ROOT
ATOM      1  C   UNL     1     -17.995   3.681  -1.463  0.00  0.00    +0.000 C 
ATOM      2  C   UNL     1     -17.008   4.398  -2.507  0.00  0.00    +0.000 C 
ATOM      3  C   UNL     1     -16.515   5.766  -2.284  0.00  0.00    +0.000 A 
ATOM      4  C   UNL     1     -16.637   6.566  -1.005  0.00  0.00    +0.000 A 
ATOM      5  C   UNL     1     -17.399   2.262  -1.351  0.00  0.00    +0.000 C 
ATOM      6  C   UNL     1     -17.910   4.461  -0.227  0.00  0.00    +0.000 C 
ATOM      7  C   UNL     1     -16.121   3.388  -3.002  0.00  0.00    +0.000 C 
ATOM      8  C   UNL     1     -17.305   5.825   0.001  0.00  0.00    +0.000 C 
ATOM      9  C   UNL     1     -16.335   2.085  -2.275  0.00  0.00    +0.000 C 
ATOM     10  C   UNL     1     -15.804   6.484  -3.280  0.00  0.00    +0.000 A 
ATOM     11  C   UNL     1     -19.419   3.630  -2.077  0.00  0.00    +0.000 C 
ATOM     12  C   UNL     1     -16.113   7.962  -0.828  0.00  0.00    +0.000 A 
ATOM     13  C   UNL     1     -15.267   7.882  -3.093  0.00  0.00    +0.000 A 
ATOM     14  C   UNL     1     -15.421   8.625  -1.886  0.00  0.00    +0.000 A 
ATOM     15  C   UNL     1     -16.295   8.646   0.374  0.00  0.00    +0.000 A 
ATOM     16  C   UNL     1     -14.937   9.919  -1.745  0.00  0.00    +0.000 A 
ATOM     17  C   UNL     1     -15.811   9.946   0.523  0.00  0.00    +0.000 A 
ATOM     18  C   UNL     1     -15.141  10.567  -0.533  0.00  0.00    +0.000 A 
ENDROOT
BRANCH   5  19
ATOM     19  O   UNL     1     -17.541   1.478  -0.227  0.00  0.00    +0.000 OA
ATOM     20  H   UNL     1     -16.761   1.536   0.354  0.00  0.00    +0.000 HD
ENDBRANCH   5  19
BRANCH  18  21
ATOM     21  O   UNL     1     -14.669  11.842  -0.396  0.00  0.00    +0.000 OA
ATOM     22  H   UNL     1     -13.701  11.801  -0.294  0.00  0.00    +0.000 HD
ENDBRANCH  18  21
TORSDOF 2
ENDMDL
MODEL 4
REMARK VINA RESULT:      -6.5     11.075     11.905
REMARK  Name = Estradiol.pdbqt.pdb
REMARK  2 active torsions:
REMARK  status: ('A' for Active; 'I' for Inactive)
REMARK    1  A    between atoms: C_5  and  O_19
REMARK    2  A    between atoms: C_18  and  O_21
REMARK                            x       y       z     vdW  Elec       q    Type
REMARK                         _______ _______ _______ _____ _____    ______ ____
ROOT
ATOM      1  C   UNL     1     -25.624   6.390   4.853  0.00  0.00    +0.000 C 
ATOM      2  C   UNL     1     -25.576   7.790   4.068  0.00  0.00    +0.000 C 
ATOM      3  C   UNL     1     -25.007   8.998   4.684  0.00  0.00    +0.000 A 
ATOM      4  C   UNL     1     -24.197   9.057   5.962  0.00  0.00    +0.000 A 
ATOM      5  C   UNL     1     -25.169   5.382   3.776  0.00  0.00    +0.000 C 
ATOM      6  C   UNL     1     -24.692   6.524   5.973  0.00  0.00    +0.000 C 
ATOM      7  C   UNL     1     -25.302   7.489   2.695  0.00  0.00    +0.000 C 
ATOM      8  C   UNL     1     -24.036   7.767   6.526  0.00  0.00    +0.000 C 
ATOM      9  C   UNL     1     -25.020   6.019   2.515  0.00  0.00    +0.000 C 
ATOM     10  C   UNL     1     -25.129  10.280   4.089  0.00  0.00    +0.000 A 
ATOM     11  C   UNL     1     -27.087   6.108   5.282  0.00  0.00    +0.000 C 
ATOM     12  C   UNL     1     -23.634  10.318   6.549  0.00  0.00    +0.000 A 
ATOM     13  C   UNL     1     -24.551  11.544   4.676  0.00  0.00    +0.000 A 
ATOM     14  C   UNL     1     -23.816  11.575   5.897  0.00  0.00    +0.000 A 
ATOM     15  C   UNL     1     -22.925  10.293   7.750  0.00  0.00    +0.000 A 
ATOM     16  C   UNL     1     -23.311  12.754   6.428  0.00  0.00    +0.000 A 
ATOM     17  C   UNL     1     -22.415  11.475   8.290  0.00  0.00    +0.000 A 
ATOM     18  C   UNL     1     -22.612  12.688   7.628  0.00  0.00    +0.000 A 
ENDROOT
BRANCH   5  19
ATOM     19  O   UNL     1     -24.544   4.192   4.082  0.00  0.00    +0.000 OA
ATOM     20  H   UNL     1     -23.629   4.334   4.387  0.00  0.00    +0.000 HD
ENDBRANCH   5  19
BRANCH  18  21
ATOM     21  O   UNL     1     -22.121  13.849   8.153  0.00  0.00    +0.000 OA
ATOM     22  H   UNL     1     -22.631  14.064   8.954  0.00  0.00    +0.000 HD
ENDBRANCH  18  21
TORSDOF 2
ENDMDL
MODEL 5
REMARK VINA RESULT:      -6.4      3.349      5.252
REMARK  Name = Estradiol.pdbqt.pdb
REMARK  2 active torsions:
REMARK  status: ('A' for Active; 'I' for Inactive)
REMARK    1  A    between atoms: C_5  and  O_19
REMARK    2  A    between atoms: C_18  and  O_21
REMARK                            x       y       z     vdW  Elec       q    Type
REMARK                         _______ _______ _______ _____ _____    ______ ____
ROOT
ATOM      1  C   UNL     1     -13.739   9.928  -6.725  0.00  0.00    +0.000 C 
ATOM      2  C   UNL     1     -14.287   8.600  -6.007  0.00  0.00    +0.000 C 
ATOM      3  C   UNL     1     -14.584   8.572  -4.567  0.00  0.00    +0.000 A 
ATOM      4  C   UNL     1     -14.665   9.768  -3.644  0.00  0.00    +0.000 A 
ATOM      5  C   UNL     1     -14.573   9.982  -8.022  0.00  0.00    +0.000 C 
ATOM      6  C   UNL     1     -14.010  11.029  -5.798  0.00  0.00    +0.000 C 
ATOM      7  C   UNL     1     -15.172   7.961  -6.935  0.00  0.00    +0.000 C 
ATOM      8  C   UNL     1     -14.416  10.975  -4.345  0.00  0.00    +0.000 C 
ATOM      9  C   UNL     1     -15.376   8.818  -8.158  0.00  0.00    +0.000 C 
ATOM     10  C   UNL     1     -14.882   7.366  -3.880  0.00  0.00    +0.000 A 
ATOM     11  C   UNL     1     -12.235   9.735  -7.050  0.00  0.00    +0.000 C 
ATOM     12  C   UNL     1     -14.975   9.686  -2.177  0.00  0.00    +0.000 A 
ATOM     13  C   UNL     1     -15.206   7.289  -2.409  0.00  0.00    +0.000 A 
ATOM     14  C   UNL     1     -15.248   8.430  -1.555  0.00  0.00    +0.000 A 
ATOM     15  C   UNL     1     -15.000  10.835  -1.386  0.00  0.00    +0.000 A 
ATOM     16  C   UNL     1     -15.527   8.331  -0.199  0.00  0.00    +0.000 A 
ATOM     17  C   UNL     1     -15.280  10.743  -0.022  0.00  0.00    +0.000 A 
ATOM     18  C   UNL     1     -15.539   9.498   0.556  0.00  0.00    +0.000 A 
ENDROOT
BRANCH   5  19
ATOM     19  O   UNL     1     -14.862  11.159  -8.678  0.00  0.00    +0.000 OA
ATOM     20  H   UNL     1     -15.450  11.730  -8.151  0.00  0.00    +0.000 HD
ENDBRANCH   5  19
BRANCH  18  21
ATOM     21  O   UNL     1     -15.810   9.400   1.891  0.00  0.00    +0.000 OA
ATOM     22  H   UNL     1     -16.527  10.022   2.105  0.00  0.00    +0.000 HD
ENDBRANCH  18  21
TORSDOF 2
ENDMDL
MODEL 6
REMARK VINA RESULT:      -5.6     20.495     22.417
REMARK  Name = Estradiol.pdbqt.pdb
REMARK  2 active torsions:
REMARK  status: ('A' for Active; 'I' for Inactive)
REMARK    1  A    between atoms: C_5  and  O_19
REMARK    2  A    between atoms: C_18  and  O_21
REMARK                            x       y       z     vdW  Elec       q    Type
REMARK                         _______ _______ _______ _____ _____    ______ ____
ROOT
ATOM      1  C   UNL     1     -10.523   6.874  21.405  0.00  0.00    +0.000 C 
ATOM      2  C   UNL     1     -11.229   6.289  20.087  0.00  0.00    +0.000 C 
ATOM      3  C   UNL     1     -10.449   5.923  18.894  0.00  0.00    +0.000 A 
ATOM      4  C   UNL     1      -8.943   5.801  18.810  0.00  0.00    +0.000 A 
ATOM      5  C   UNL     1     -11.230   6.104  22.539  0.00  0.00    +0.000 C 
ATOM      6  C   UNL     1      -9.099   6.563  21.271  0.00  0.00    +0.000 C 
ATOM      7  C   UNL     1     -12.302   5.448  20.528  0.00  0.00    +0.000 C 
ATOM      8  C   UNL     1      -8.335   6.087  20.059  0.00  0.00    +0.000 C 
ATOM      9  C   UNL     1     -12.287   5.305  22.028  0.00  0.00    +0.000 C 
ATOM     10  C   UNL     1     -11.066   5.590  17.661  0.00  0.00    +0.000 A 
ATOM     11  C   UNL     1     -10.828   8.392  21.502  0.00  0.00    +0.000 C 
ATOM     12  C   UNL     1      -8.193   5.421  17.567  0.00  0.00    +0.000 A 
ATOM     13  C   UNL     1     -10.309   5.195  16.417  0.00  0.00    +0.000 A 
ATOM     14  C   UNL     1      -8.887   5.116  16.357  0.00  0.00    +0.000 A 
ATOM     15  C   UNL     1      -6.799   5.362  17.562  0.00  0.00    +0.000 A 
ATOM     16  C   UNL     1      -8.212   4.771  15.194  0.00  0.00    +0.000 A 
ATOM     17  C   UNL     1      -6.114   5.016  16.397  0.00  0.00    +0.000 A 
ATOM     18  C   UNL     1      -6.824   4.726  15.230  0.00  0.00    +0.000 A 
ENDROOT
BRANCH   5  19
ATOM     19  O   UNL     1     -10.633   5.850  23.756  0.00  0.00    +0.000 OA
ATOM     20  H   UNL     1     -10.935   6.472  24.442  0.00  0.00    +0.000 HD
ENDBRANCH   5  19
BRANCH  18  21
ATOM     21  O   UNL     1      -6.160   4.392  14.084  0.00  0.00    +0.000 OA
ATOM     22  H   UNL     1      -5.225   4.644  14.185  0.00  0.00    +0.000 HD
ENDBRANCH  18  21
TORSDOF 2
ENDMDL
MODEL 7
REMARK VINA RESULT:      -5.1     20.548     22.225
REMARK  Name = Estradiol.pdbqt.pdb
REMARK  2 active torsions:
REMARK  status: ('A' for Active; 'I' for Inactive)
REMARK    1  A    between atoms: C_5  and  O_19
REMARK    2  A    between atoms: C_18  and  O_21
REMARK                            x       y       z     vdW  Elec       q    Type
REMARK                         _______ _______ _______ _____ _____    ______ ____
ROOT
ATOM      1  C   UNL     1     -12.247   4.575  21.167  0.00  0.00    +0.000 C 
ATOM      2  C   UNL     1     -11.878   4.234  19.642  0.00  0.00    +0.000 C 
ATOM      3  C   UNL     1     -10.982   5.096  18.856  0.00  0.00    +0.000 A 
ATOM      4  C   UNL     1     -10.119   6.218  19.392  0.00  0.00    +0.000 A 
ATOM      5  C   UNL     1     -12.128   3.202  21.861  0.00  0.00    +0.000 C 
ATOM      6  C   UNL     1     -11.256   5.555  21.612  0.00  0.00    +0.000 C 
ATOM      7  C   UNL     1     -11.765   2.809  19.551  0.00  0.00    +0.000 C 
ATOM      8  C   UNL     1     -10.271   6.356  20.795  0.00  0.00    +0.000 C 
ATOM      9  C   UNL     1     -11.885   2.173  20.912  0.00  0.00    +0.000 C 
ATOM     10  C   UNL     1     -10.797   4.921  17.461  0.00  0.00    +0.000 A 
ATOM     11  C   UNL     1     -13.709   5.091  21.223  0.00  0.00    +0.000 C 
ATOM     12  C   UNL     1      -9.217   7.070  18.547  0.00  0.00    +0.000 A 
ATOM     13  C   UNL     1      -9.880   5.770  16.616  0.00  0.00    +0.000 A 
ATOM     14  C   UNL     1      -9.099   6.841  17.142  0.00  0.00    +0.000 A 
ATOM     15  C   UNL     1      -8.477   8.108  19.112  0.00  0.00    +0.000 A 
ATOM     16  C   UNL     1      -8.278   7.623  16.341  0.00  0.00    +0.000 A 
ATOM     17  C   UNL     1      -7.650   8.897  18.313  0.00  0.00    +0.000 A 
ATOM     18  C   UNL     1      -7.559   8.649  16.942  0.00  0.00    +0.000 A 
ENDROOT
BRANCH   5  19
ATOM     19  O   UNL     1     -11.819   3.064  23.197  0.00  0.00    +0.000 OA
ATOM     20  H   UNL     1     -12.254   2.285  23.589  0.00  0.00    +0.000 HD
ENDBRANCH   5  19
BRANCH  18  21
ATOM     21  O   UNL     1      -6.755   9.421  16.152  0.00  0.00    +0.000 OA
ATOM     22  H   UNL     1      -6.625  10.279  16.593  0.00  0.00    +0.000 HD
ENDBRANCH  18  21
TORSDOF 2
ENDMDL
MODEL 8
REMARK VINA RESULT:      -5.1     20.800     22.389
REMARK  Name = Estradiol.pdbqt.pdb
REMARK  2 active torsions:
REMARK  status: ('A' for Active; 'I' for Inactive)
REMARK    1  A    between atoms: C_5  and  O_19
REMARK    2  A    between atoms: C_18  and  O_21
REMARK                            x       y       z     vdW  Elec       q    Type
REMARK                         _______ _______ _______ _____ _____    ______ ____
ROOT
ATOM      1  C   UNL     1     -12.226   3.751  20.732  0.00  0.00    +0.000 C 
ATOM      2  C   UNL     1     -11.631   5.084  21.401  0.00  0.00    +0.000 C 
ATOM      3  C   UNL     1     -10.690   5.953  20.678  0.00  0.00    +0.000 A 
ATOM      4  C   UNL     1     -10.354   5.881  19.204  0.00  0.00    +0.000 A 
ATOM      5  C   UNL     1     -13.720   3.818  21.112  0.00  0.00    +0.000 C 
ATOM      6  C   UNL     1     -11.971   3.872  19.296  0.00  0.00    +0.000 C 
ATOM      7  C   UNL     1     -12.682   5.661  22.185  0.00  0.00    +0.000 C 
ATOM      8  C   UNL     1     -11.076   4.843  18.563  0.00  0.00    +0.000 C 
ATOM      9  C   UNL     1     -13.973   4.908  21.987  0.00  0.00    +0.000 C 
ATOM     10  C   UNL     1     -10.007   7.022  21.313  0.00  0.00    +0.000 A 
ATOM     11  C   UNL     1     -11.550   2.519  21.389  0.00  0.00    +0.000 C 
ATOM     12  C   UNL     1      -9.386   6.796  18.511  0.00  0.00    +0.000 A 
ATOM     13  C   UNL     1      -9.044   7.947  20.611  0.00  0.00    +0.000 A 
ATOM     14  C   UNL     1      -8.724   7.840  19.226  0.00  0.00    +0.000 A 
ATOM     15  C   UNL     1      -9.106   6.644  17.153  0.00  0.00    +0.000 A 
ATOM     16  C   UNL     1      -7.819   8.690  18.606  0.00  0.00    +0.000 A 
ATOM     17  C   UNL     1      -8.197   7.495  16.523  0.00  0.00    +0.000 A 
ATOM     18  C   UNL     1      -7.564   8.504  17.252  0.00  0.00    +0.000 A 
ENDROOT
BRANCH   5  19
ATOM     19  O   UNL     1     -14.711   3.234  20.354  0.00  0.00    +0.000 OA
ATOM     20  H   UNL     1     -15.515   3.067  20.878  0.00  0.00    +0.000 HD
ENDBRANCH   5  19
BRANCH  18  21
ATOM     21  O   UNL     1      -6.670   9.338  16.644  0.00  0.00    +0.000 OA
ATOM     22  H   UNL     1      -5.971   9.558  17.285  0.00  0.00    +0.000 HD
ENDBRANCH  18  21
TORSDOF 2
ENDMDL
MODEL 9
REMARK VINA RESULT:      -4.9     23.545     25.405
REMARK  Name = Estradiol.pdbqt.pdb
REMARK  2 active torsions:
REMARK  status: ('A' for Active; 'I' for Inactive)
REMARK    1  A    between atoms: C_5  and  O_19
REMARK    2  A    between atoms: C_18  and  O_21
REMARK                            x       y       z     vdW  Elec       q    Type
REMARK                         _______ _______ _______ _____ _____    ______ ____
ROOT
ATOM      1  C   UNL     1     -12.017   5.066  22.487  0.00  0.00    +0.000 C 
ATOM      2  C   UNL     1     -13.011   4.823  23.724  0.00  0.00    +0.000 C 
ATOM      3  C   UNL     1     -14.471   4.814  23.547  0.00  0.00    +0.000 A 
ATOM      4  C   UNL     1     -15.215   4.773  22.229  0.00  0.00    +0.000 A 
ATOM      5  C   UNL     1     -10.926   3.998  22.713  0.00  0.00    +0.000 C 
ATOM      6  C   UNL     1     -12.817   4.853  21.279  0.00  0.00    +0.000 C 
ATOM      7  C   UNL     1     -12.386   3.857  24.577  0.00  0.00    +0.000 C 
ATOM      8  C   UNL     1     -14.315   4.743  21.134  0.00  0.00    +0.000 C 
ATOM      9  C   UNL     1     -11.124   3.324  23.947  0.00  0.00    +0.000 C 
ATOM     10  C   UNL     1     -15.366   4.795  24.648  0.00  0.00    +0.000 A 
ATOM     11  C   UNL     1     -11.417   6.492  22.600  0.00  0.00    +0.000 C 
ATOM     12  C   UNL     1     -16.710   4.763  22.102  0.00  0.00    +0.000 A 
ATOM     13  C   UNL     1     -16.869   4.770  24.516  0.00  0.00    +0.000 A 
ATOM     14  C   UNL     1     -17.545   4.762  23.261  0.00  0.00    +0.000 A 
ATOM     15  C   UNL     1     -17.321   4.758  20.848  0.00  0.00    +0.000 A 
ATOM     16  C   UNL     1     -18.929   4.761  23.165  0.00  0.00    +0.000 A 
ATOM     17  C   UNL     1     -18.713   4.757  20.744  0.00  0.00    +0.000 A 
ATOM     18  C   UNL     1     -19.499   4.760  21.897  0.00  0.00    +0.000 A 
ENDROOT
BRANCH   5  19
ATOM     19  O   UNL     1     -10.187   3.454  21.685  0.00  0.00    +0.000 OA
ATOM     20  H   UNL     1     -10.281   2.485  21.646  0.00  0.00    +0.000 HD
ENDBRANCH   5  19
BRANCH  18  21
ATOM     21  O   UNL     1     -20.862   4.764  21.803  0.00  0.00    +0.000 OA
ATOM     22  H   UNL     1     -21.215   5.359  22.488  0.00  0.00    +0.000 HD
ENDBRANCH  18  21
TORSDOF 2
ENDMDL
