MODEL 1
REMARK VINA RESULT:      -6.4      0.000      0.000
REMARK  Name = 
REMARK  11 active torsions:
REMARK  status: ('A' for Active; 'I' for Inactive)
REMARK    1  A    between atoms: O_1  and  C_16
REMARK    2  A    between atoms: O_1  and  C_22
REMARK    3  A    between atoms: O_6  and  C_24
REMARK    4  A    between atoms: O_8  and  C_26
REMARK    5  A    between atoms: O_11  and  C_36
REMARK    6  A    between atoms: O_11  and  C_41
REMARK    7  A    between atoms: O_12  and  C_37
REMARK    8  A    between atoms: O_12  and  C_42
REMARK    9  A    between atoms: O_13  and  C_39
REMARK   10  A    between atoms: C_17  and  C_23
REMARK   11  A    between atoms: C_35  and  C_40
REMARK                            x       y       z     vdW  Elec       q    Type
REMARK                         _______ _______ _______ _____ _____    ______ ____
ROOT
ATOM      1  O   UNL     1     -13.730  20.232  20.178  0.00  0.00    +0.000 OA
ATOM      2  O   UNL     1     -15.392  19.081  21.260  0.00  0.00    +0.000 OA
ATOM      3  O   UNL     1      -8.252  14.555  23.095  0.00  0.00    +0.000 OA
ATOM      4  O   UNL     1     -10.148  13.956  24.461  0.00  0.00    +0.000 OA
ATOM      5  C   UNL     1     -11.889  19.075  20.977  0.00  0.00    +0.000 C 
ATOM      6  C   UNL     1     -13.120  18.217  21.198  0.00  0.00    +0.000 C 
ATOM      7  C   UNL     1     -10.663  18.199  20.757  0.00  0.00    +0.000 C 
ATOM      8  C   UNL     1     -13.049  17.502  22.547  0.00  0.00    +0.000 C 
ATOM      9  C   UNL     1     -10.595  17.086  21.803  0.00  0.00    +0.000 A 
ATOM     10  C   UNL     1     -11.721  16.730  22.616  0.00  0.00    +0.000 A 
ATOM     11  C   UNL     1     -12.359  19.957  19.848  0.00  0.00    +0.000 C 
ATOM     12  C   UNL     1     -14.221  19.201  20.940  0.00  0.00    +0.000 C 
ATOM     13  C   UNL     1      -9.392  16.367  21.936  0.00  0.00    +0.000 A 
ATOM     14  C   UNL     1     -11.614  15.668  23.538  0.00  0.00    +0.000 A 
ATOM     15  C   UNL     1      -9.336  15.338  22.850  0.00  0.00    +0.000 A 
ATOM     16  C   UNL     1     -10.415  14.997  23.627  0.00  0.00    +0.000 A 
ATOM     17  C   UNL     1      -8.773  13.682  24.119  0.00  0.00    +0.000 C 
ENDROOT
BRANCH   8  18
ATOM     18  C   UNL     1     -13.287  18.398  23.765  0.00  0.00    +0.000 A 
ATOM     19  C   UNL     1     -12.607  19.613  23.964  0.00  0.00    +0.000 A 
ATOM     20  C   UNL     1     -14.234  18.009  24.728  0.00  0.00    +0.000 A 
ATOM     21  C   UNL     1     -14.505  18.816  25.833  0.00  0.00    +0.000 A 
ATOM     22  C   UNL     1     -12.847  20.431  25.077  0.00  0.00    +0.000 A 
ATOM     23  C   UNL     1     -13.803  20.020  26.007  0.00  0.00    +0.000 A 
BRANCH  21  24
ATOM     24  O   UNL     1     -15.426  18.538  26.817  0.00  0.00    +0.000 OA
ATOM     25  C   UNL     1     -15.020  17.605  27.815  0.00  0.00    +0.000 C 
ENDBRANCH  21  24
BRANCH  22  26
ATOM     26  O   UNL     1     -12.082  21.566  25.079  0.00  0.00    +0.000 OA
ATOM     27  C   UNL     1     -12.552  22.688  24.346  0.00  0.00    +0.000 C 
ENDBRANCH  22  26
BRANCH  23  28
ATOM     28  O   UNL     1     -14.108  20.770  27.116  0.00  0.00    +0.000 OA
ATOM     29  H   UNL     1     -13.245  20.984  27.520  0.00  0.00    +0.000 HD
ENDBRANCH  23  28
ENDBRANCH   8  18
BRANCH   7  30
ATOM     30  O   UNL     1     -10.759  17.558  19.485  0.00  0.00    +0.000 OA
BRANCH  30  34
ATOM     31  O   UNL     1     -10.094  18.930  17.712  0.00  0.00    +0.000 OA
ATOM     32  O   UNL     1      -7.742  18.417  14.931  0.00  0.00    +0.000 OA
ATOM     33  O   UNL     1      -8.433  20.677  14.936  0.00  0.00    +0.000 OA
ATOM     34  C   UNL     1      -9.679  17.893  18.604  0.00  0.00    +0.000 C 
ATOM     35  C   UNL     1      -9.294  16.598  17.853  0.00  0.00    +0.000 C 
ATOM     36  C   UNL     1      -8.754  18.067  15.882  0.00  0.00    +0.000 C 
ATOM     37  C   UNL     1      -8.284  16.886  16.733  0.00  0.00    +0.000 C 
ATOM     38  C   UNL     1      -9.058  19.256  16.790  0.00  0.00    +0.000 C 
ATOM     39  C   UNL     1      -9.458  20.425  15.896  0.00  0.00    +0.000 C 
ATOM     40  C   UNL     1      -8.173  19.525  14.135  0.00  0.00    +0.000 C 
ATOM     41  C   UNL     1      -7.054  19.868  13.169  0.00  0.00    +0.000 C 
BRANCH  35  42
ATOM     42  O   UNL     1      -8.735  15.660  18.789  0.00  0.00    +0.000 OA
ATOM     43  H   UNL     1      -9.086  15.912  19.665  0.00  0.00    +0.000 HD
ENDBRANCH  35  42
BRANCH  37  44
ATOM     44  O   UNL     1      -8.148  15.738  15.880  0.00  0.00    +0.000 OA
ATOM     45  H   UNL     1      -7.246  15.784  15.511  0.00  0.00    +0.000 HD
ENDBRANCH  37  44
ENDBRANCH  30  34
ENDBRANCH   7  30
TORSDOF 8
ENDMDL
MODEL 2
REMARK VINA RESULT:      -6.3      0.198      1.953
REMARK  Name = 
REMARK  11 active torsions:
REMARK  status: ('A' for Active; 'I' for Inactive)
REMARK    1  A    between atoms: O_1  and  C_16
REMARK    2  A    between atoms: O_1  and  C_22
REMARK    3  A    between atoms: O_6  and  C_24
REMARK    4  A    between atoms: O_8  and  C_26
REMARK    5  A    between atoms: O_11  and  C_36
REMARK    6  A    between atoms: O_11  and  C_41
REMARK    7  A    between atoms: O_12  and  C_37
REMARK    8  A    between atoms: O_12  and  C_42
REMARK    9  A    between atoms: O_13  and  C_39
REMARK   10  A    between atoms: C_17  and  C_23
REMARK   11  A    between atoms: C_35  and  C_40
REMARK                            x       y       z     vdW  Elec       q    Type
REMARK                         _______ _______ _______ _____ _____    ______ ____
ROOT
ATOM      1  O   UNL     1     -13.842  20.304  20.219  0.00  0.00    +0.000 OA
ATOM      2  O   UNL     1     -15.482  19.131  21.310  0.00  0.00    +0.000 OA
ATOM      3  O   UNL     1      -8.282  14.667  23.057  0.00  0.00    +0.000 OA
ATOM      4  O   UNL     1     -10.159  14.042  24.436  0.00  0.00    +0.000 OA
ATOM      5  C   UNL     1     -11.982  19.162  20.995  0.00  0.00    +0.000 C 
ATOM      6  C   UNL     1     -13.202  18.290  21.223  0.00  0.00    +0.000 C 
ATOM      7  C   UNL     1     -10.750  18.298  20.759  0.00  0.00    +0.000 C 
ATOM      8  C   UNL     1     -13.112  17.569  22.567  0.00  0.00    +0.000 C 
ATOM      9  C   UNL     1     -10.662  17.182  21.798  0.00  0.00    +0.000 A 
ATOM     10  C   UNL     1     -11.776  16.810  22.620  0.00  0.00    +0.000 A 
ATOM     11  C   UNL     1     -12.471  20.044  19.874  0.00  0.00    +0.000 C 
ATOM     12  C   UNL     1     -14.316  19.264  20.979  0.00  0.00    +0.000 C 
ATOM     13  C   UNL     1      -9.450  16.474  21.917  0.00  0.00    +0.000 A 
ATOM     14  C   UNL     1     -11.650  15.745  23.535  0.00  0.00    +0.000 A 
ATOM     15  C   UNL     1      -9.376  15.440  22.825  0.00  0.00    +0.000 A 
ATOM     16  C   UNL     1     -10.444  15.085  23.610  0.00  0.00    +0.000 A 
ATOM     17  C   UNL     1      -8.785  13.783  24.081  0.00  0.00    +0.000 C 
ENDROOT
BRANCH   8  18
ATOM     18  C   UNL     1     -13.348  18.457  23.792  0.00  0.00    +0.000 A 
ATOM     19  C   UNL     1     -14.325  18.172  24.763  0.00  0.00    +0.000 A 
ATOM     20  C   UNL     1     -12.554  19.601  23.972  0.00  0.00    +0.000 A 
ATOM     21  C   UNL     1     -12.714  20.415  25.094  0.00  0.00    +0.000 A 
ATOM     22  C   UNL     1     -14.518  18.987  25.888  0.00  0.00    +0.000 A 
ATOM     23  C   UNL     1     -13.703  20.108  26.043  0.00  0.00    +0.000 A 
BRANCH  21  24
ATOM     24  O   UNL     1     -11.975  21.541  25.375  0.00  0.00    +0.000 OA
ATOM     25  C   UNL     1     -11.652  22.377  24.266  0.00  0.00    +0.000 C 
ENDBRANCH  21  24
BRANCH  22  26
ATOM     26  O   UNL     1     -15.515  18.533  26.709  0.00  0.00    +0.000 OA
ATOM     27  C   UNL     1     -15.143  17.800  27.868  0.00  0.00    +0.000 C 
ENDBRANCH  22  26
BRANCH  23  28
ATOM     28  O   UNL     1     -13.818  20.948  27.123  0.00  0.00    +0.000 OA
ATOM     29  H   UNL     1     -13.911  20.355  27.894  0.00  0.00    +0.000 HD
ENDBRANCH  23  28
ENDBRANCH   8  18
BRANCH   7  30
ATOM     30  O   UNL     1     -10.851  17.663  19.484  0.00  0.00    +0.000 OA
BRANCH  30  34
ATOM     31  O   UNL     1     -10.144  18.993  17.696  0.00  0.00    +0.000 OA
ATOM     32  O   UNL     1      -7.753  18.403  14.965  0.00  0.00    +0.000 OA
ATOM     33  O   UNL     1      -8.422  20.669  14.913  0.00  0.00    +0.000 OA
ATOM     34  C   UNL     1      -9.754  17.970  18.615  0.00  0.00    +0.000 C 
ATOM     35  C   UNL     1      -9.369  16.657  17.896  0.00  0.00    +0.000 C 
ATOM     36  C   UNL     1      -8.783  18.081  15.906  0.00  0.00    +0.000 C 
ATOM     37  C   UNL     1      -8.339  16.913  16.787  0.00  0.00    +0.000 C 
ATOM     38  C   UNL     1      -9.091  19.291  16.784  0.00  0.00    +0.000 C 
ATOM     39  C   UNL     1      -9.465  20.445  15.861  0.00  0.00    +0.000 C 
ATOM     40  C   UNL     1      -8.160  19.498  14.140  0.00  0.00    +0.000 C 
ATOM     41  C   UNL     1      -7.022  19.811  13.185  0.00  0.00    +0.000 C 
BRANCH  35  42
ATOM     42  O   UNL     1      -8.835  15.733  18.859  0.00  0.00    +0.000 OA
ATOM     43  H   UNL     1      -9.109  14.844  18.561  0.00  0.00    +0.000 HD
ENDBRANCH  35  42
BRANCH  37  44
ATOM     44  O   UNL     1      -8.201  15.747  15.960  0.00  0.00    +0.000 OA
ATOM     45  H   UNL     1      -8.040  15.002  16.571  0.00  0.00    +0.000 HD
ENDBRANCH  37  44
ENDBRANCH  30  34
ENDBRANCH   7  30
TORSDOF 8
ENDMDL
MODEL 3
REMARK VINA RESULT:      -6.3     12.582     15.001
REMARK  Name = 
REMARK  11 active torsions:
REMARK  status: ('A' for Active; 'I' for Inactive)
REMARK    1  A    between atoms: O_1  and  C_16
REMARK    2  A    between atoms: O_1  and  C_22
REMARK    3  A    between atoms: O_6  and  C_24
REMARK    4  A    between atoms: O_8  and  C_26
REMARK    5  A    between atoms: O_11  and  C_36
REMARK    6  A    between atoms: O_11  and  C_41
REMARK    7  A    between atoms: O_12  and  C_37
REMARK    8  A    between atoms: O_12  and  C_42
REMARK    9  A    between atoms: O_13  and  C_39
REMARK   10  A    between atoms: C_17  and  C_23
REMARK   11  A    between atoms: C_35  and  C_40
REMARK                            x       y       z     vdW  Elec       q    Type
REMARK                         _______ _______ _______ _____ _____    ______ ____
ROOT
ATOM      1  O   UNL     1      -9.832   7.057  18.929  0.00  0.00    +0.000 OA
ATOM      2  O   UNL     1     -12.118   6.893  18.877  0.00  0.00    +0.000 OA
ATOM      3  O   UNL     1      -9.504  -1.324  19.567  0.00  0.00    +0.000 OA
ATOM      4  O   UNL     1     -11.860  -1.026  19.986  0.00  0.00    +0.000 OA
ATOM      5  C   UNL     1      -9.307   4.846  19.383  0.00  0.00    +0.000 C 
ATOM      6  C   UNL     1     -10.729   4.897  18.860  0.00  0.00    +0.000 C 
ATOM      7  C   UNL     1      -8.649   3.525  19.006  0.00  0.00    +0.000 C 
ATOM      8  C   UNL     1     -11.624   3.920  19.622  0.00  0.00    +0.000 C 
ATOM      9  C   UNL     1      -9.578   2.350  19.310  0.00  0.00    +0.000 A 
ATOM     10  C   UNL     1     -10.978   2.525  19.561  0.00  0.00    +0.000 A 
ATOM     11  C   UNL     1      -8.748   6.121  18.804  0.00  0.00    +0.000 C 
ATOM     12  C   UNL     1     -11.019   6.366  18.922  0.00  0.00    +0.000 C 
ATOM     13  C   UNL     1      -9.035   1.051  19.304  0.00  0.00    +0.000 A 
ATOM     14  C   UNL     1     -11.796   1.401  19.797  0.00  0.00    +0.000 A 
ATOM     15  C   UNL     1      -9.875  -0.017  19.540  0.00  0.00    +0.000 A 
ATOM     16  C   UNL     1     -11.215   0.153  19.778  0.00  0.00    +0.000 A 
ATOM     17  C   UNL     1     -10.768  -1.959  19.852  0.00  0.00    +0.000 C 
ENDROOT
BRANCH   8  18
ATOM     18  C   UNL     1     -11.986   4.353  21.045  0.00  0.00    +0.000 A 
ATOM     19  C   UNL     1     -13.295   4.694  21.429  0.00  0.00    +0.000 A 
ATOM     20  C   UNL     1     -10.978   4.404  22.023  0.00  0.00    +0.000 A 
ATOM     21  C   UNL     1     -11.275   4.758  23.340  0.00  0.00    +0.000 A 
ATOM     22  C   UNL     1     -13.614   5.074  22.741  0.00  0.00    +0.000 A 
ATOM     23  C   UNL     1     -12.592   5.101  23.690  0.00  0.00    +0.000 A 
BRANCH  21  24
ATOM     24  O   UNL     1     -10.369   4.816  24.373  0.00  0.00    +0.000 OA
ATOM     25  C   UNL     1      -8.992   4.774  24.009  0.00  0.00    +0.000 C 
ENDBRANCH  21  24
BRANCH  22  26
ATOM     26  O   UNL     1     -14.942   5.362  22.904  0.00  0.00    +0.000 OA
ATOM     27  C   UNL     1     -15.884   4.616  22.148  0.00  0.00    +0.000 C 
ENDBRANCH  22  26
BRANCH  23  28
ATOM     28  O   UNL     1     -12.823   5.447  24.998  0.00  0.00    +0.000 OA
ATOM     29  H   UNL     1     -12.893   4.597  25.475  0.00  0.00    +0.000 HD
ENDBRANCH  23  28
ENDBRANCH   8  18
BRANCH   7  30
ATOM     30  O   UNL     1      -8.406   3.499  17.599  0.00  0.00    +0.000 OA
BRANCH  30  34
ATOM     31  O   UNL     1      -6.497   4.713  17.008  0.00  0.00    +0.000 OA
ATOM     32  O   UNL     1      -3.582   3.882  14.924  0.00  0.00    +0.000 OA
ATOM     33  O   UNL     1      -3.188   5.953  15.993  0.00  0.00    +0.000 OA
ATOM     34  C   UNL     1      -7.014   3.407  17.272  0.00  0.00    +0.000 C 
ATOM     35  C   UNL     1      -6.902   2.476  16.043  0.00  0.00    +0.000 C 
ATOM     36  C   UNL     1      -4.959   3.900  15.315  0.00  0.00    +0.000 C 
ATOM     37  C   UNL     1      -5.474   2.470  15.480  0.00  0.00    +0.000 C 
ATOM     38  C   UNL     1      -5.124   4.653  16.632  0.00  0.00    +0.000 C 
ATOM     39  C   UNL     1      -4.540   6.049  16.440  0.00  0.00    +0.000 C 
ATOM     40  C   UNL     1      -3.092   5.218  14.773  0.00  0.00    +0.000 C 
ATOM     41  C   UNL     1      -1.626   5.137  14.387  0.00  0.00    +0.000 C 
BRANCH  35  42
ATOM     42  O   UNL     1      -7.285   1.144  16.425  0.00  0.00    +0.000 OA
ATOM     43  H   UNL     1      -8.223   1.200  16.693  0.00  0.00    +0.000 HD
ENDBRANCH  35  42
BRANCH  37  44
ATOM     44  O   UNL     1      -5.450   1.828  14.195  0.00  0.00    +0.000 OA
ATOM     45  H   UNL     1      -4.932   2.414  13.611  0.00  0.00    +0.000 HD
ENDBRANCH  37  44
ENDBRANCH  30  34
ENDBRANCH   7  30
TORSDOF 8
ENDMDL
MODEL 4
REMARK VINA RESULT:      -6.2     16.280     19.886
REMARK  Name = 
REMARK  11 active torsions:
REMARK  status: ('A' for Active; 'I' for Inactive)
REMARK    1  A    between atoms: O_1  and  C_16
REMARK    2  A    between atoms: O_1  and  C_22
REMARK    3  A    between atoms: O_6  and  C_24
REMARK    4  A    between atoms: O_8  and  C_26
REMARK    5  A    between atoms: O_11  and  C_36
REMARK    6  A    between atoms: O_11  and  C_41
REMARK    7  A    between atoms: O_12  and  C_37
REMARK    8  A    between atoms: O_12  and  C_42
REMARK    9  A    between atoms: O_13  and  C_39
REMARK   10  A    between atoms: C_17  and  C_23
REMARK   11  A    between atoms: C_35  and  C_40
REMARK                            x       y       z     vdW  Elec       q    Type
REMARK                         _______ _______ _______ _____ _____    ______ ____
ROOT
ATOM      1  O   UNL     1     -21.195  14.120   9.406  0.00  0.00    +0.000 OA
ATOM      2  O   UNL     1     -22.185  12.090   9.011  0.00  0.00    +0.000 OA
ATOM      3  O   UNL     1     -28.698  17.725   8.191  0.00  0.00    +0.000 OA
ATOM      4  O   UNL     1     -29.220  15.522   7.358  0.00  0.00    +0.000 OA
ATOM      5  C   UNL     1     -22.973  15.513   8.889  0.00  0.00    +0.000 C 
ATOM      6  C   UNL     1     -23.519  14.120   9.135  0.00  0.00    +0.000 C 
ATOM      7  C   UNL     1     -24.004  16.564   9.279  0.00  0.00    +0.000 C 
ATOM      8  C   UNL     1     -24.634  13.789   8.144  0.00  0.00    +0.000 C 
ATOM      9  C   UNL     1     -25.380  16.212   8.714  0.00  0.00    +0.000 A 
ATOM     10  C   UNL     1     -25.692  14.904   8.217  0.00  0.00    +0.000 A 
ATOM     11  C   UNL     1     -21.679  15.450   9.661  0.00  0.00    +0.000 C 
ATOM     12  C   UNL     1     -22.263  13.302   9.134  0.00  0.00    +0.000 C 
ATOM     13  C   UNL     1     -26.379  17.204   8.722  0.00  0.00    +0.000 A 
ATOM     14  C   UNL     1     -26.990  14.623   7.744  0.00  0.00    +0.000 A 
ATOM     15  C   UNL     1     -27.633  16.881   8.249  0.00  0.00    +0.000 A 
ATOM     16  C   UNL     1     -27.930  15.628   7.775  0.00  0.00    +0.000 A 
ATOM     17  C   UNL     1     -29.701  16.857   7.623  0.00  0.00    +0.000 C 
ENDROOT
BRANCH   8  18
ATOM     18  C   UNL     1     -24.163  13.501   6.716  0.00  0.00    +0.000 A 
ATOM     19  C   UNL     1     -23.596  14.485   5.886  0.00  0.00    +0.000 A 
ATOM     20  C   UNL     1     -24.285  12.198   6.205  0.00  0.00    +0.000 A 
ATOM     21  C   UNL     1     -23.833  11.888   4.922  0.00  0.00    +0.000 A 
ATOM     22  C   UNL     1     -23.155  14.201   4.586  0.00  0.00    +0.000 A 
ATOM     23  C   UNL     1     -23.279  12.894   4.114  0.00  0.00    +0.000 A 
BRANCH  21  24
ATOM     24  O   UNL     1     -23.885  10.643   4.338  0.00  0.00    +0.000 OA
ATOM     25  C   UNL     1     -24.525   9.617   5.092  0.00  0.00    +0.000 C 
ENDBRANCH  21  24
BRANCH  22  26
ATOM     26  O   UNL     1     -22.635  15.296   3.949  0.00  0.00    +0.000 OA
ATOM     27  C   UNL     1     -22.699  16.548   4.616  0.00  0.00    +0.000 C 
ENDBRANCH  22  26
BRANCH  23  28
ATOM     28  O   UNL     1     -22.858  12.531   2.859  0.00  0.00    +0.000 OA
ATOM     29  H   UNL     1     -23.678  12.348   2.361  0.00  0.00    +0.000 HD
ENDBRANCH  23  28
ENDBRANCH   8  18
BRANCH   7  30
ATOM     30  O   UNL     1     -24.142  16.591  10.701  0.00  0.00    +0.000 OA
BRANCH  30  34
ATOM     31  O   UNL     1     -22.630  18.165  11.540  0.00  0.00    +0.000 OA
ATOM     32  O   UNL     1     -22.950  20.783  14.103  0.00  0.00    +0.000 OA
ATOM     33  O   UNL     1     -20.862  21.027  13.022  0.00  0.00    +0.000 OA
ATOM     34  C   UNL     1     -24.006  17.906  11.253  0.00  0.00    +0.000 C 
ATOM     35  C   UNL     1     -24.885  17.952  12.524  0.00  0.00    +0.000 C 
ATOM     36  C   UNL     1     -23.158  19.504  13.494  0.00  0.00    +0.000 C 
ATOM     37  C   UNL     1     -24.654  19.250  13.311  0.00  0.00    +0.000 C 
ATOM     38  C   UNL     1     -22.464  19.449  12.135  0.00  0.00    +0.000 C 
ATOM     39  C   UNL     1     -20.990  19.771  12.358  0.00  0.00    +0.000 C 
ATOM     40  C   UNL     1     -21.551  21.030  14.273  0.00  0.00    +0.000 C 
ATOM     41  C   UNL     1     -21.391  22.405  14.894  0.00  0.00    +0.000 C 
BRANCH  35  42
ATOM     42  O   UNL     1     -26.268  17.847  12.144  0.00  0.00    +0.000 OA
ATOM     43  H   UNL     1     -26.631  18.752  12.197  0.00  0.00    +0.000 HD
ENDBRANCH  35  42
BRANCH  37  44
ATOM     44  O   UNL     1     -25.261  19.157  14.610  0.00  0.00    +0.000 OA
ATOM     45  H   UNL     1     -26.059  19.717  14.573  0.00  0.00    +0.000 HD
ENDBRANCH  37  44
ENDBRANCH  30  34
ENDBRANCH   7  30
TORSDOF 8
ENDMDL
MODEL 5
REMARK VINA RESULT:      -6.1      2.193      5.228
REMARK  Name = 
REMARK  11 active torsions:
REMARK  status: ('A' for Active; 'I' for Inactive)
REMARK    1  A    between atoms: O_1  and  C_16
REMARK    2  A    between atoms: O_1  and  C_22
REMARK    3  A    between atoms: O_6  and  C_24
REMARK    4  A    between atoms: O_8  and  C_26
REMARK    5  A    between atoms: O_11  and  C_36
REMARK    6  A    between atoms: O_11  and  C_41
REMARK    7  A    between atoms: O_12  and  C_37
REMARK    8  A    between atoms: O_12  and  C_42
REMARK    9  A    between atoms: O_13  and  C_39
REMARK   10  A    between atoms: C_17  and  C_23
REMARK   11  A    between atoms: C_35  and  C_40
REMARK                            x       y       z     vdW  Elec       q    Type
REMARK                         _______ _______ _______ _____ _____    ______ ____
ROOT
ATOM      1  O   UNL     1      -9.459  17.923  24.926  0.00  0.00    +0.000 OA
ATOM      2  O   UNL     1     -10.278  19.298  26.568  0.00  0.00    +0.000 OA
ATOM      3  O   UNL     1     -16.414  19.526  20.475  0.00  0.00    +0.000 OA
ATOM      4  O   UNL     1     -17.123  20.447  22.589  0.00  0.00    +0.000 OA
ATOM      5  C   UNL     1     -11.301  17.876  23.521  0.00  0.00    +0.000 C 
ATOM      6  C   UNL     1     -11.440  19.072  24.444  0.00  0.00    +0.000 C 
ATOM      7  C   UNL     1     -11.967  18.159  22.181  0.00  0.00    +0.000 C 
ATOM      8  C   UNL     1     -12.890  19.248  24.891  0.00  0.00    +0.000 C 
ATOM      9  C   UNL     1     -13.355  18.766  22.381  0.00  0.00    +0.000 A 
ATOM     10  C   UNL     1     -13.778  19.312  23.637  0.00  0.00    +0.000 A 
ATOM     11  C   UNL     1      -9.808  17.665  23.555  0.00  0.00    +0.000 C 
ATOM     12  C   UNL     1     -10.381  18.786  25.465  0.00  0.00    +0.000 C 
ATOM     13  C   UNL     1     -14.226  18.820  21.276  0.00  0.00    +0.000 A 
ATOM     14  C   UNL     1     -15.056  19.896  23.755  0.00  0.00    +0.000 A 
ATOM     15  C   UNL     1     -15.465  19.400  21.440  0.00  0.00    +0.000 A 
ATOM     16  C   UNL     1     -15.868  19.924  22.643  0.00  0.00    +0.000 A 
ATOM     17  C   UNL     1     -17.464  20.189  21.211  0.00  0.00    +0.000 C 
ENDROOT
BRANCH   8  18
ATOM     18  C   UNL     1     -13.376  18.225  25.920  0.00  0.00    +0.000 A 
ATOM     19  C   UNL     1     -13.190  16.840  25.766  0.00  0.00    +0.000 A 
ATOM     20  C   UNL     1     -14.027  18.677  27.081  0.00  0.00    +0.000 A 
ATOM     21  C   UNL     1     -14.452  17.778  28.059  0.00  0.00    +0.000 A 
ATOM     22  C   UNL     1     -13.628  15.915  26.725  0.00  0.00    +0.000 A 
ATOM     23  C   UNL     1     -14.259  16.399  27.872  0.00  0.00    +0.000 A 
BRANCH  21  24
ATOM     24  O   UNL     1     -15.076  18.118  29.238  0.00  0.00    +0.000 OA
ATOM     25  C   UNL     1     -16.436  18.531  29.136  0.00  0.00    +0.000 C 
ENDBRANCH  21  24
BRANCH  22  26
ATOM     26  O   UNL     1     -13.348  14.620  26.384  0.00  0.00    +0.000 OA
ATOM     27  C   UNL     1     -12.264  13.977  27.039  0.00  0.00    +0.000 C 
ENDBRANCH  22  26
BRANCH  23  28
ATOM     28  O   UNL     1     -14.703  15.562  28.866  0.00  0.00    +0.000 OA
ATOM     29  H   UNL     1     -15.564  15.933  29.141  0.00  0.00    +0.000 HD
ENDBRANCH  23  28
ENDBRANCH   8  18
BRANCH   7  30
ATOM     30  O   UNL     1     -11.199  19.126  21.463  0.00  0.00    +0.000 OA
BRANCH  30  34
ATOM     31  O   UNL     1      -9.489  18.169  20.187  0.00  0.00    +0.000 OA
ATOM     32  O   UNL     1      -8.524  18.552  16.658  0.00  0.00    +0.000 OA
ATOM     33  O   UNL     1      -7.254  16.800  17.609  0.00  0.00    +0.000 OA
ATOM     34  C   UNL     1     -10.822  18.684  20.153  0.00  0.00    +0.000 C 
ATOM     35  C   UNL     1     -10.953  19.904  19.213  0.00  0.00    +0.000 C 
ATOM     36  C   UNL     1      -8.991  18.963  17.948  0.00  0.00    +0.000 C 
ATOM     37  C   UNL     1     -10.377  19.597  17.823  0.00  0.00    +0.000 C 
ATOM     38  C   UNL     1      -9.065  17.763  18.888  0.00  0.00    +0.000 C 
ATOM     39  C   UNL     1      -7.680  17.127  18.931  0.00  0.00    +0.000 C 
ATOM     40  C   UNL     1      -7.229  17.954  16.768  0.00  0.00    +0.000 C 
ATOM     41  C   UNL     1      -6.798  17.515  15.380  0.00  0.00    +0.000 C 
BRANCH  35  42
ATOM     42  O   UNL     1     -12.340  20.265  19.101  0.00  0.00    +0.000 OA
ATOM     43  H   UNL     1     -12.847  19.458  19.316  0.00  0.00    +0.000 HD
ENDBRANCH  35  42
BRANCH  37  44
ATOM     44  O   UNL     1     -10.256  20.807  17.058  0.00  0.00    +0.000 OA
ATOM     45  H   UNL     1     -10.077  20.527  16.140  0.00  0.00    +0.000 HD
ENDBRANCH  37  44
ENDBRANCH  30  34
ENDBRANCH   7  30
TORSDOF 8
ENDMDL
MODEL 6
REMARK VINA RESULT:      -6.1     12.126     14.959
REMARK  Name = 
REMARK  11 active torsions:
REMARK  status: ('A' for Active; 'I' for Inactive)
REMARK    1  A    between atoms: O_1  and  C_16
REMARK    2  A    between atoms: O_1  and  C_22
REMARK    3  A    between atoms: O_6  and  C_24
REMARK    4  A    between atoms: O_8  and  C_26
REMARK    5  A    between atoms: O_11  and  C_36
REMARK    6  A    between atoms: O_11  and  C_41
REMARK    7  A    between atoms: O_12  and  C_37
REMARK    8  A    between atoms: O_12  and  C_42
REMARK    9  A    between atoms: O_13  and  C_39
REMARK   10  A    between atoms: C_17  and  C_23
REMARK   11  A    between atoms: C_35  and  C_40
REMARK                            x       y       z     vdW  Elec       q    Type
REMARK                         _______ _______ _______ _____ _____    ______ ____
ROOT
ATOM      1  O   UNL     1      -9.530   7.287  18.063  0.00  0.00    +0.000 OA
ATOM      2  O   UNL     1     -11.811   7.194  18.276  0.00  0.00    +0.000 OA
ATOM      3  O   UNL     1      -9.316  -0.997  19.509  0.00  0.00    +0.000 OA
ATOM      4  O   UNL     1     -11.604  -0.581  20.148  0.00  0.00    +0.000 OA
ATOM      5  C   UNL     1      -9.006   5.116  18.679  0.00  0.00    +0.000 C 
ATOM      6  C   UNL     1     -10.477   5.162  18.311  0.00  0.00    +0.000 C 
ATOM      7  C   UNL     1      -8.423   3.743  18.370  0.00  0.00    +0.000 C 
ATOM      8  C   UNL     1     -11.302   4.294  19.261  0.00  0.00    +0.000 C 
ATOM      9  C   UNL     1      -9.338   2.635  18.890  0.00  0.00    +0.000 A 
ATOM     10  C   UNL     1     -10.698   2.880  19.272  0.00  0.00    +0.000 A 
ATOM     11  C   UNL     1      -8.487   6.309  17.916  0.00  0.00    +0.000 C 
ATOM     12  C   UNL     1     -10.725   6.639  18.255  0.00  0.00    +0.000 C 
ATOM     13  C   UNL     1      -8.827   1.324  18.957  0.00  0.00    +0.000 A 
ATOM     14  C   UNL     1     -11.509   1.812  19.708  0.00  0.00    +0.000 A 
ATOM     15  C   UNL     1      -9.659   0.314  19.389  0.00  0.00    +0.000 A 
ATOM     16  C   UNL     1     -10.960   0.550  19.753  0.00  0.00    +0.000 A 
ATOM     17  C   UNL     1     -10.554  -1.558  19.993  0.00  0.00    +0.000 C 
ENDROOT
BRANCH   8  18
ATOM     18  C   UNL     1     -11.494   4.877  20.663  0.00  0.00    +0.000 A 
ATOM     19  C   UNL     1     -10.439   5.428  21.412  0.00  0.00    +0.000 A 
ATOM     20  C   UNL     1     -12.778   4.879  21.234  0.00  0.00    +0.000 A 
ATOM     21  C   UNL     1     -13.000   5.434  22.495  0.00  0.00    +0.000 A 
ATOM     22  C   UNL     1     -10.634   5.972  22.690  0.00  0.00    +0.000 A 
ATOM     23  C   UNL     1     -11.924   5.970  23.221  0.00  0.00    +0.000 A 
BRANCH  21  24
ATOM     24  O   UNL     1     -14.218   5.506  23.131  0.00  0.00    +0.000 OA
ATOM     25  C   UNL     1     -15.271   4.728  22.568  0.00  0.00    +0.000 C 
ENDBRANCH  21  24
BRANCH  22  26
ATOM     26  O   UNL     1      -9.480   6.457  23.244  0.00  0.00    +0.000 OA
ATOM     27  C   UNL     1      -8.278   6.335  22.497  0.00  0.00    +0.000 C 
ENDBRANCH  22  26
BRANCH  23  28
ATOM     28  O   UNL     1     -12.202   6.496  24.458  0.00  0.00    +0.000 OA
ATOM     29  H   UNL     1     -12.787   7.258  24.282  0.00  0.00    +0.000 HD
ENDBRANCH  23  28
ENDBRANCH   8  18
BRANCH   7  30
ATOM     30  O   UNL     1      -8.338   3.571  16.955  0.00  0.00    +0.000 OA
BRANCH  30  34
ATOM     31  O   UNL     1      -6.166   3.043  17.641  0.00  0.00    +0.000 OA
ATOM     32  O   UNL     1      -2.876   3.603  16.095  0.00  0.00    +0.000 OA
ATOM     33  O   UNL     1      -2.599   2.228  17.997  0.00  0.00    +0.000 OA
ATOM     34  C   UNL     1      -7.023   3.216  16.510  0.00  0.00    +0.000 C 
ATOM     35  C   UNL     1      -6.541   4.354  15.582  0.00  0.00    +0.000 C 
ATOM     36  C   UNL     1      -4.226   3.904  16.464  0.00  0.00    +0.000 C 
ATOM     37  C   UNL     1      -5.061   4.178  15.212  0.00  0.00    +0.000 C 
ATOM     38  C   UNL     1      -4.836   2.736  17.233  0.00  0.00    +0.000 C 
ATOM     39  C   UNL     1      -3.937   2.458  18.434  0.00  0.00    +0.000 C 
ATOM     40  C   UNL     1      -2.091   3.340  17.262  0.00  0.00    +0.000 C 
ATOM     41  C   UNL     1      -0.682   3.001  16.809  0.00  0.00    +0.000 C 
BRANCH  35  42
ATOM     42  O   UNL     1      -7.347   4.364  14.391  0.00  0.00    +0.000 OA
ATOM     43  H   UNL     1      -8.117   4.930  14.593  0.00  0.00    +0.000 HD
ENDBRANCH  35  42
BRANCH  37  44
ATOM     44  O   UNL     1      -4.561   5.371  14.585  0.00  0.00    +0.000 OA
ATOM     45  H   UNL     1      -5.338   5.812  14.192  0.00  0.00    +0.000 HD
ENDBRANCH  37  44
ENDBRANCH  30  34
ENDBRANCH   7  30
TORSDOF 8
ENDMDL
MODEL 7
REMARK VINA RESULT:      -6.1      2.766      9.691
REMARK  Name = 
REMARK  11 active torsions:
REMARK  status: ('A' for Active; 'I' for Inactive)
REMARK    1  A    between atoms: O_1  and  C_16
REMARK    2  A    between atoms: O_1  and  C_22
REMARK    3  A    between atoms: O_6  and  C_24
REMARK    4  A    between atoms: O_8  and  C_26
REMARK    5  A    between atoms: O_11  and  C_36
REMARK    6  A    between atoms: O_11  and  C_41
REMARK    7  A    between atoms: O_12  and  C_37
REMARK    8  A    between atoms: O_12  and  C_42
REMARK    9  A    between atoms: O_13  and  C_39
REMARK   10  A    between atoms: C_17  and  C_23
REMARK   11  A    between atoms: C_35  and  C_40
REMARK                            x       y       z     vdW  Elec       q    Type
REMARK                         _______ _______ _______ _____ _____    ______ ____
ROOT
ATOM      1  O   UNL     1      -9.438  16.838  24.503  0.00  0.00    +0.000 OA
ATOM      2  O   UNL     1      -9.063  16.663  22.248  0.00  0.00    +0.000 OA
ATOM      3  O   UNL     1     -17.217  19.508  22.740  0.00  0.00    +0.000 OA
ATOM      4  O   UNL     1     -16.273  19.673  20.527  0.00  0.00    +0.000 OA
ATOM      5  C   UNL     1     -11.522  17.850  24.461  0.00  0.00    +0.000 C 
ATOM      6  C   UNL     1     -11.269  17.230  23.100  0.00  0.00    +0.000 C 
ATOM      7  C   UNL     1     -13.013  17.852  24.774  0.00  0.00    +0.000 C 
ATOM      8  C   UNL     1     -11.781  18.140  21.984  0.00  0.00    +0.000 C 
ATOM      9  C   UNL     1     -13.818  18.365  23.581  0.00  0.00    +0.000 A 
ATOM     10  C   UNL     1     -13.258  18.465  22.265  0.00  0.00    +0.000 A 
ATOM     11  C   UNL     1     -10.604  17.020  25.324  0.00  0.00    +0.000 C 
ATOM     12  C   UNL     1      -9.806  16.913  23.183  0.00  0.00    +0.000 C 
ATOM     13  C   UNL     1     -15.167  18.712  23.785  0.00  0.00    +0.000 A 
ATOM     14  C   UNL     1     -14.058  18.907  21.192  0.00  0.00    +0.000 A 
ATOM     15  C   UNL     1     -15.909  19.139  22.705  0.00  0.00    +0.000 A 
ATOM     16  C   UNL     1     -15.372  19.232  21.446  0.00  0.00    +0.000 A 
ATOM     17  C   UNL     1     -17.441  19.848  21.355  0.00  0.00    +0.000 C 
ENDROOT
BRANCH   8  18
ATOM     18  C   UNL     1     -10.930  19.386  21.727  0.00  0.00    +0.000 A 
ATOM     19  C   UNL     1     -10.896  20.482  22.607  0.00  0.00    +0.000 A 
ATOM     20  C   UNL     1     -10.132  19.445  20.571  0.00  0.00    +0.000 A 
ATOM     21  C   UNL     1      -9.315  20.547  20.320  0.00  0.00    +0.000 A 
ATOM     22  C   UNL     1     -10.099  21.611  22.366  0.00  0.00    +0.000 A 
ATOM     23  C   UNL     1      -9.310  21.631  21.215  0.00  0.00    +0.000 A 
BRANCH  21  24
ATOM     24  O   UNL     1      -8.483  20.693  19.234  0.00  0.00    +0.000 OA
ATOM     25  C   UNL     1      -9.100  20.618  17.952  0.00  0.00    +0.000 C 
ENDBRANCH  21  24
BRANCH  22  26
ATOM     26  O   UNL     1     -10.211  22.561  23.344  0.00  0.00    +0.000 OA
ATOM     27  C   UNL     1     -11.221  23.549  23.203  0.00  0.00    +0.000 C 
ENDBRANCH  22  26
BRANCH  23  28
ATOM     28  O   UNL     1      -8.491  22.690  20.913  0.00  0.00    +0.000 OA
ATOM     29  H   UNL     1      -8.888  23.454  21.375  0.00  0.00    +0.000 HD
ENDBRANCH  23  28
ENDBRANCH   8  18
BRANCH   7  30
ATOM     30  O   UNL     1     -13.450  16.515  25.017  0.00  0.00    +0.000 OA
BRANCH  30  34
ATOM     31  O   UNL     1     -14.167  17.621  26.948  0.00  0.00    +0.000 OA
ATOM     32  O   UNL     1     -14.691  16.481  30.405  0.00  0.00    +0.000 OA
ATOM     33  O   UNL     1     -15.511  18.688  30.200  0.00  0.00    +0.000 OA
ATOM     34  C   UNL     1     -14.156  16.371  26.256  0.00  0.00    +0.000 C 
ATOM     35  C   UNL     1     -13.432  15.266  27.059  0.00  0.00    +0.000 C 
ATOM     36  C   UNL     1     -14.049  16.560  29.128  0.00  0.00    +0.000 C 
ATOM     37  C   UNL     1     -13.980  15.172  28.490  0.00  0.00    +0.000 C 
ATOM     38  C   UNL     1     -14.821  17.503  28.208  0.00  0.00    +0.000 C 
ATOM     39  C   UNL     1     -14.920  18.852  28.912  0.00  0.00    +0.000 C 
ATOM     40  C   UNL     1     -14.763  17.777  31.005  0.00  0.00    +0.000 C 
ATOM     41  C   UNL     1     -15.474  17.636  32.339  0.00  0.00    +0.000 C 
BRANCH  35  42
ATOM     42  O   UNL     1     -13.601  14.007  26.385  0.00  0.00    +0.000 OA
ATOM     43  H   UNL     1     -14.400  13.600  26.771  0.00  0.00    +0.000 HD
ENDBRANCH  35  42
BRANCH  37  44
ATOM     44  O   UNL     1     -13.125  14.344  29.295  0.00  0.00    +0.000 OA
ATOM     45  H   UNL     1     -13.436  13.429  29.161  0.00  0.00    +0.000 HD
ENDBRANCH  37  44
ENDBRANCH  30  34
ENDBRANCH   7  30
TORSDOF 8
ENDMDL
MODEL 8
REMARK VINA RESULT:      -6.0     22.445     25.121
REMARK  Name = 
REMARK  11 active torsions:
REMARK  status: ('A' for Active; 'I' for Inactive)
REMARK    1  A    between atoms: O_1  and  C_16
REMARK    2  A    between atoms: O_1  and  C_22
REMARK    3  A    between atoms: O_6  and  C_24
REMARK    4  A    between atoms: O_8  and  C_26
REMARK    5  A    between atoms: O_11  and  C_36
REMARK    6  A    between atoms: O_11  and  C_41
REMARK    7  A    between atoms: O_12  and  C_37
REMARK    8  A    between atoms: O_12  and  C_42
REMARK    9  A    between atoms: O_13  and  C_39
REMARK   10  A    between atoms: C_17  and  C_23
REMARK   11  A    between atoms: C_35  and  C_40
REMARK                            x       y       z     vdW  Elec       q    Type
REMARK                         _______ _______ _______ _____ _____    ______ ____
ROOT
ATOM      1  O   UNL     1     -27.312   9.246   1.279  0.00  0.00    +0.000 OA
ATOM      2  O   UNL     1     -27.879  11.450   1.561  0.00  0.00    +0.000 OA
ATOM      3  O   UNL     1     -22.505   9.870   8.153  0.00  0.00    +0.000 OA
ATOM      4  O   UNL     1     -22.933  12.217   7.802  0.00  0.00    +0.000 OA
ATOM      5  C   UNL     1     -25.693   9.060   2.925  0.00  0.00    +0.000 C 
ATOM      6  C   UNL     1     -26.526  10.293   3.218  0.00  0.00    +0.000 C 
ATOM      7  C   UNL     1     -25.168   8.455   4.220  0.00  0.00    +0.000 C 
ATOM      8  C   UNL     1     -25.646  11.438   3.717  0.00  0.00    +0.000 C 
ATOM      9  C   UNL     1     -24.575   9.535   5.124  0.00  0.00    +0.000 A 
ATOM     10  C   UNL     1     -24.827  10.931   4.916  0.00  0.00    +0.000 A 
ATOM     11  C   UNL     1     -26.661   8.257   2.093  0.00  0.00    +0.000 C 
ATOM     12  C   UNL     1     -27.287  10.451   1.936  0.00  0.00    +0.000 C 
ATOM     13  C   UNL     1     -23.786   9.131   6.218  0.00  0.00    +0.000 A 
ATOM     14  C   UNL     1     -24.287  11.883   5.805  0.00  0.00    +0.000 A 
ATOM     15  C   UNL     1     -23.280  10.099   7.060  0.00  0.00    +0.000 A 
ATOM     16  C   UNL     1     -23.524  11.434   6.860  0.00  0.00    +0.000 A 
ATOM     17  C   UNL     1     -22.286  11.218   8.618  0.00  0.00    +0.000 C 
ENDROOT
BRANCH   8  18
ATOM     18  C   UNL     1     -24.786  12.107   2.642  0.00  0.00    +0.000 A 
ATOM     19  C   UNL     1     -23.641  11.501   2.095  0.00  0.00    +0.000 A 
ATOM     20  C   UNL     1     -25.152  13.376   2.163  0.00  0.00    +0.000 A 
ATOM     21  C   UNL     1     -24.415  14.002   1.157  0.00  0.00    +0.000 A 
ATOM     22  C   UNL     1     -22.871  12.120   1.099  0.00  0.00    +0.000 A 
ATOM     23  C   UNL     1     -23.271  13.374   0.636  0.00  0.00    +0.000 A 
BRANCH  21  24
ATOM     24  O   UNL     1     -24.701  15.229   0.605  0.00  0.00    +0.000 OA
ATOM     25  C   UNL     1     -25.936  15.331  -0.100  0.00  0.00    +0.000 C 
ENDBRANCH  21  24
BRANCH  22  26
ATOM     26  O   UNL     1     -21.803  11.362   0.703  0.00  0.00    +0.000 OA
ATOM     27  C   UNL     1     -21.085  10.649   1.700  0.00  0.00    +0.000 C 
ENDBRANCH  22  26
BRANCH  23  28
ATOM     28  O   UNL     1     -22.582  14.040  -0.346  0.00  0.00    +0.000 OA
ATOM     29  H   UNL     1     -22.610  14.980  -0.081  0.00  0.00    +0.000 HD
ENDBRANCH  23  28
ENDBRANCH   8  18
BRANCH   7  30
ATOM     30  O   UNL     1     -26.250   7.866   4.943  0.00  0.00    +0.000 OA
BRANCH  30  34
ATOM     31  O   UNL     1     -25.500   5.794   4.163  0.00  0.00    +0.000 OA
ATOM     32  O   UNL     1     -26.413   2.340   5.039  0.00  0.00    +0.000 OA
ATOM     33  O   UNL     1     -24.541   2.290   3.598  0.00  0.00    +0.000 OA
ATOM     34  C   UNL     1     -26.011   6.498   5.296  0.00  0.00    +0.000 C 
ATOM     35  C   UNL     1     -27.359   5.919   5.784  0.00  0.00    +0.000 C 
ATOM     36  C   UNL     1     -26.624   3.732   4.778  0.00  0.00    +0.000 C 
ATOM     37  C   UNL     1     -27.266   4.401   5.993  0.00  0.00    +0.000 C 
ATOM     38  C   UNL     1     -25.296   4.416   4.466  0.00  0.00    +0.000 C 
ATOM     39  C   UNL     1     -24.663   3.677   3.291  0.00  0.00    +0.000 C 
ATOM     40  C   UNL     1     -25.808   1.709   3.907  0.00  0.00    +0.000 C 
ATOM     41  C   UNL     1     -25.584   0.248   4.251  0.00  0.00    +0.000 C 
BRANCH  35  42
ATOM     42  O   UNL     1     -27.730   6.563   7.015  0.00  0.00    +0.000 OA
ATOM     43  H   UNL     1     -27.875   5.845   7.661  0.00  0.00    +0.000 HD
ENDBRANCH  35  42
BRANCH  37  44
ATOM     44  O   UNL     1     -28.578   3.845   6.178  0.00  0.00    +0.000 OA
ATOM     45  H   UNL     1     -29.204   4.530   5.876  0.00  0.00    +0.000 HD
ENDBRANCH  37  44
ENDBRANCH  30  34
ENDBRANCH   7  30
TORSDOF 8
ENDMDL
MODEL 9
REMARK VINA RESULT:      -6.0     23.156     27.155
REMARK  Name = 
REMARK  11 active torsions:
REMARK  status: ('A' for Active; 'I' for Inactive)
REMARK    1  A    between atoms: O_1  and  C_16
REMARK    2  A    between atoms: O_1  and  C_22
REMARK    3  A    between atoms: O_6  and  C_24
REMARK    4  A    between atoms: O_8  and  C_26
REMARK    5  A    between atoms: O_11  and  C_36
REMARK    6  A    between atoms: O_11  and  C_41
REMARK    7  A    between atoms: O_12  and  C_37
REMARK    8  A    between atoms: O_12  and  C_42
REMARK    9  A    between atoms: O_13  and  C_39
REMARK   10  A    between atoms: C_17  and  C_23
REMARK   11  A    between atoms: C_35  and  C_40
REMARK                            x       y       z     vdW  Elec       q    Type
REMARK                         _______ _______ _______ _____ _____    ______ ____
ROOT
ATOM      1  O   UNL     1     -13.931   6.284  -5.080  0.00  0.00    +0.000 OA
ATOM      2  O   UNL     1     -13.488   4.840  -3.355  0.00  0.00    +0.000 OA
ATOM      3  O   UNL     1     -18.670  10.768   0.229  0.00  0.00    +0.000 OA
ATOM      4  O   UNL     1     -18.383   8.795   1.586  0.00  0.00    +0.000 OA
ATOM      5  C   UNL     1     -15.513   7.627  -4.051  0.00  0.00    +0.000 C 
ATOM      6  C   UNL     1     -14.749   6.884  -2.972  0.00  0.00    +0.000 C 
ATOM      7  C   UNL     1     -15.985   8.979  -3.532  0.00  0.00    +0.000 C 
ATOM      8  C   UNL     1     -15.687   6.436  -1.852  0.00  0.00    +0.000 C 
ATOM      9  C   UNL     1     -16.626   8.839  -2.153  0.00  0.00    +0.000 A 
ATOM     10  C   UNL     1     -16.458   7.666  -1.345  0.00  0.00    +0.000 A 
ATOM     11  C   UNL     1     -14.513   7.595  -5.179  0.00  0.00    +0.000 C 
ATOM     12  C   UNL     1     -14.016   5.855  -3.779  0.00  0.00    +0.000 C 
ATOM     13  C   UNL     1     -17.375   9.921  -1.651  0.00  0.00    +0.000 A 
ATOM     14  C   UNL     1     -17.040   7.607  -0.063  0.00  0.00    +0.000 A 
ATOM     15  C   UNL     1     -17.924   9.816  -0.392  0.00  0.00    +0.000 A 
ATOM     16  C   UNL     1     -17.761   8.693   0.380  0.00  0.00    +0.000 A 
ATOM     17  C   UNL     1     -18.959  10.114   1.482  0.00  0.00    +0.000 C 
ENDROOT
BRANCH   8  18
ATOM     18  C   UNL     1     -16.599   5.259  -2.207  0.00  0.00    +0.000 A 
ATOM     19  C   UNL     1     -17.664   5.367  -3.120  0.00  0.00    +0.000 A 
ATOM     20  C   UNL     1     -16.366   4.007  -1.612  0.00  0.00    +0.000 A 
ATOM     21  C   UNL     1     -17.153   2.902  -1.938  0.00  0.00    +0.000 A 
ATOM     22  C   UNL     1     -18.481   4.276  -3.447  0.00  0.00    +0.000 A 
ATOM     23  C   UNL     1     -18.214   3.044  -2.848  0.00  0.00    +0.000 A 
BRANCH  21  24
ATOM     24  O   UNL     1     -16.994   1.633  -1.431  0.00  0.00    +0.000 OA
ATOM     25  C   UNL     1     -15.760   0.984  -1.729  0.00  0.00    +0.000 C 
ENDBRANCH  21  24
BRANCH  22  26
ATOM     26  O   UNL     1     -19.456   4.593  -4.354  0.00  0.00    +0.000 OA
ATOM     27  C   UNL     1     -20.740   4.941  -3.859  0.00  0.00    +0.000 C 
ENDBRANCH  22  26
BRANCH  23  28
ATOM     28  O   UNL     1     -18.957   1.924  -3.125  0.00  0.00    +0.000 OA
ATOM     29  H   UNL     1     -19.567   1.833  -2.367  0.00  0.00    +0.000 HD
ENDBRANCH  23  28
ENDBRANCH   8  18
BRANCH   7  30
ATOM     30  O   UNL     1     -14.860   9.846  -3.374  0.00  0.00    +0.000 OA
BRANCH  30  34
ATOM     31  O   UNL     1     -14.863  11.473  -5.053  0.00  0.00    +0.000 OA
ATOM     32  O   UNL     1     -14.377  15.118  -4.968  0.00  0.00    +0.000 OA
ATOM     33  O   UNL     1     -15.055  14.491  -7.144  0.00  0.00    +0.000 OA
ATOM     34  C   UNL     1     -15.158  11.214  -3.679  0.00  0.00    +0.000 C 
ATOM     35  C   UNL     1     -14.306  12.082  -2.725  0.00  0.00    +0.000 C 
ATOM     36  C   UNL     1     -14.157  13.751  -4.603  0.00  0.00    +0.000 C 
ATOM     37  C   UNL     1     -14.391  13.568  -3.103  0.00  0.00    +0.000 C 
ATOM     38  C   UNL     1     -15.103  12.839  -5.379  0.00  0.00    +0.000 C 
ATOM     39  C   UNL     1     -14.880  13.103  -6.864  0.00  0.00    +0.000 C 
ATOM     40  C   UNL     1     -14.165  15.296  -6.372  0.00  0.00    +0.000 C 
ATOM     41  C   UNL     1     -14.438  16.751  -6.705  0.00  0.00    +0.000 C 
BRANCH  35  42
ATOM     42  O   UNL     1     -14.766  11.891  -1.376  0.00  0.00    +0.000 OA
ATOM     43  H   UNL     1     -14.232  11.159  -1.010  0.00  0.00    +0.000 HD
ENDBRANCH  35  42
BRANCH  37  44
ATOM     44  O   UNL     1     -13.393  14.318  -2.392  0.00  0.00    +0.000 OA
ATOM     45  H   UNL     1     -13.861  14.758  -1.658  0.00  0.00    +0.000 HD
ENDBRANCH  37  44
ENDBRANCH  30  34
ENDBRANCH   7  30
TORSDOF 8
ENDMDL
