MODEL 1
REMARK VINA RESULT:      -7.3      0.000      0.000
REMARK  Name = Foretinib.pdbqt.pdb
REMARK  11 active torsions:
REMARK  status: ('A' for Active; 'I' for Inactive)
REMARK    1  A    between atoms: C_2  and  N_31
REMARK    2  A    between atoms: C_7  and  O_8
REMARK    3  A    between atoms: O_8  and  C_9
REMARK    4  A    between atoms: C_17  and  O_19
REMARK    5  A    between atoms: C_18  and  O_29
REMARK    6  A    between atoms: O_19  and  C_20
REMARK    7  A    between atoms: C_21  and  C_22
REMARK    8  A    between atoms: C_22  and  N_23
REMARK    9  A    between atoms: C_32  and  C_35
REMARK   10  A    between atoms: C_35  and  C_38
REMARK   11  A    between atoms: N_40  and  C_42
REMARK                            x       y       z     vdW  Elec       q    Type
REMARK                         _______ _______ _______ _____ _____    ______ ____
ROOT
ATOM      1  F   UNL     1      -7.336  12.957  -3.062  0.00  0.00    +0.000 F 
ATOM      2  C   UNL     1     -10.583  13.718  -4.492  0.00  0.00    +0.000 A 
ATOM      3  C   UNL     1      -9.534  13.009  -3.906  0.00  0.00    +0.000 A 
ATOM      4  C   UNL     1     -10.427  15.078  -4.767  0.00  0.00    +0.000 A 
ATOM      5  C   UNL     1      -8.345  13.662  -3.595  0.00  0.00    +0.000 A 
ATOM      6  C   UNL     1      -9.235  15.731  -4.456  0.00  0.00    +0.000 A 
ATOM      7  C   UNL     1      -8.200  15.026  -3.846  0.00  0.00    +0.000 A 
ENDROOT
BRANCH   2   8
ATOM      8  N   UNL     1     -11.811  13.120  -4.834  0.00  0.00    +0.000 N 
ATOM      9  C   UNL     1     -12.977  13.199  -4.090  0.00  0.00    +0.000 C 
ATOM     10  O   UNL     1     -13.114  13.773  -3.018  0.00  0.00    +0.000 OA
ATOM     11  H   UNL     1     -11.823  12.552  -5.676  0.00  0.00    +0.000 HD
BRANCH   9  12
ATOM     12  C   UNL     1     -14.138  12.447  -4.672  0.00  0.00    +0.000 C 
ATOM     13  C   UNL     1     -13.939  11.773  -5.951  0.00  0.00    +0.000 C 
ATOM     14  C   UNL     1     -14.770  13.002  -5.863  0.00  0.00    +0.000 C 
BRANCH  12  15
ATOM     15  C   UNL     1     -15.009  11.760  -3.663  0.00  0.00    +0.000 C 
ATOM     16  O   UNL     1     -16.219  11.959  -3.694  0.00  0.00    +0.000 OA
ATOM     17  N   UNL     1     -14.341  10.904  -2.805  0.00  0.00    +0.000 N 
ATOM     18  H   UNL     1     -13.339  10.792  -2.930  0.00  0.00    +0.000 HD
BRANCH  17  19
ATOM     19  C   UNL     1     -14.938  10.139  -1.787  0.00  0.00    +0.000 A 
ATOM     20  C   UNL     1     -15.179   8.788  -2.046  0.00  0.00    +0.000 A 
ATOM     21  C   UNL     1     -15.768   7.978  -1.078  0.00  0.00    +0.000 A 
ATOM     22  C   UNL     1     -16.112   8.528   0.152  0.00  0.00    +0.000 A 
ATOM     23  F   UNL     1     -16.676   7.751   1.086  0.00  0.00    +0.000 F 
ATOM     24  C   UNL     1     -15.877   9.870   0.429  0.00  0.00    +0.000 A 
ATOM     25  C   UNL     1     -15.289  10.673  -0.545  0.00  0.00    +0.000 A 
ENDBRANCH  17  19
ENDBRANCH  12  15
ENDBRANCH   9  12
ENDBRANCH   2   8
BRANCH   7  26
ATOM     26  O   UNL     1      -7.027  15.705  -3.622  0.00  0.00    +0.000 OA
BRANCH  26  27
ATOM     27  C   UNL     1      -7.012  16.612  -2.581  0.00  0.00    +0.000 A 
ATOM     28  C   UNL     1      -6.422  16.218  -1.370  0.00  0.00    +0.000 A 
ATOM     29  C   UNL     1      -6.359  17.165  -0.333  0.00  0.00    +0.000 A 
ATOM     30  C   UNL     1      -5.910  14.927  -1.165  0.00  0.00    +0.000 A 
ATOM     31  N   UNL     1      -6.827  18.415  -0.473  0.00  0.00    +0.000 NA
ATOM     32  C   UNL     1      -5.784  16.779   0.869  0.00  0.00    +0.000 A 
ATOM     33  C   UNL     1      -7.376  18.759  -1.660  0.00  0.00    +0.000 A 
ATOM     34  C   UNL     1      -7.484  17.910  -2.741  0.00  0.00    +0.000 A 
ATOM     35  C   UNL     1      -5.269  15.493   1.078  0.00  0.00    +0.000 A 
ATOM     36  C   UNL     1      -5.334  14.553   0.049  0.00  0.00    +0.000 A 
BRANCH  36  37
ATOM     37  O   UNL     1      -4.822  13.303   0.307  0.00  0.00    +0.000 OA
ATOM     38  C   UNL     1      -3.745  12.910  -0.499  0.00  0.00    +0.000 C 
ENDBRANCH  36  37
BRANCH  35  39
ATOM     39  O   UNL     1      -4.701  15.093   2.265  0.00  0.00    +0.000 OA
BRANCH  39  40
ATOM     40  C   UNL     1      -4.473  16.071   3.138  0.00  0.00    +0.000 C 
ATOM     41  C   UNL     1      -4.226  17.197   4.149  0.00  0.00    +0.000 C 
BRANCH  41  42
ATOM     42  C   UNL     1      -3.983  18.318   5.164  0.00  0.00    +0.000 C 
BRANCH  42  43
ATOM     43  N   UNL     1      -3.751  19.384   6.129  0.00  0.00    +0.000 N 
ATOM     44  C   UNL     1      -4.985  20.228   6.143  0.00  0.00    +0.000 C 
ATOM     45  C   UNL     1      -6.059  20.375   7.269  0.00  0.00    +0.000 C 
ATOM     46  O   UNL     1      -6.230  19.835   8.495  0.00  0.00    +0.000 OA
ATOM     47  C   UNL     1      -5.121  19.068   8.481  0.00  0.00    +0.000 C 
ATOM     48  C   UNL     1      -3.955  18.790   7.484  0.00  0.00    +0.000 C 
ENDBRANCH  42  43
ENDBRANCH  41  42
ENDBRANCH  39  40
ENDBRANCH  35  39
ENDBRANCH  26  27
ENDBRANCH   7  26
TORSDOF 11
ENDMDL
MODEL 2
REMARK VINA RESULT:      -6.9     11.549     15.651
REMARK  Name = Foretinib.pdbqt.pdb
REMARK  11 active torsions:
REMARK  status: ('A' for Active; 'I' for Inactive)
REMARK    1  A    between atoms: C_2  and  N_31
REMARK    2  A    between atoms: C_7  and  O_8
REMARK    3  A    between atoms: O_8  and  C_9
REMARK    4  A    between atoms: C_17  and  O_19
REMARK    5  A    between atoms: C_18  and  O_29
REMARK    6  A    between atoms: O_19  and  C_20
REMARK    7  A    between atoms: C_21  and  C_22
REMARK    8  A    between atoms: C_22  and  N_23
REMARK    9  A    between atoms: C_32  and  C_35
REMARK   10  A    between atoms: C_35  and  C_38
REMARK   11  A    between atoms: N_40  and  C_42
REMARK                            x       y       z     vdW  Elec       q    Type
REMARK                         _______ _______ _______ _____ _____    ______ ____
ROOT
ATOM      1  F   UNL     1     -14.436   7.167  -3.136  0.00  0.00    +0.000 F 
ATOM      2  C   UNL     1     -15.212   3.908  -1.743  0.00  0.00    +0.000 A 
ATOM      3  C   UNL     1     -14.529   4.933  -2.398  0.00  0.00    +0.000 A 
ATOM      4  C   UNL     1     -16.460   4.167  -1.172  0.00  0.00    +0.000 A 
ATOM      5  C   UNL     1     -15.091   6.203  -2.473  0.00  0.00    +0.000 A 
ATOM      6  C   UNL     1     -17.023   5.440  -1.248  0.00  0.00    +0.000 A 
ATOM      7  C   UNL     1     -16.326   6.467  -1.880  0.00  0.00    +0.000 A 
ENDROOT
BRANCH   2   8
ATOM      8  N   UNL     1     -14.702   2.601  -1.631  0.00  0.00    +0.000 N 
ATOM      9  C   UNL     1     -13.366   2.270  -1.479  0.00  0.00    +0.000 C 
ATOM     10  O   UNL     1     -12.426   3.053  -1.443  0.00  0.00    +0.000 OA
ATOM     11  H   UNL     1     -15.373   1.841  -1.711  0.00  0.00    +0.000 HD
BRANCH   9  12
ATOM     12  C   UNL     1     -13.094   0.796  -1.409  0.00  0.00    +0.000 C 
ATOM     13  C   UNL     1     -13.150   0.035  -2.652  0.00  0.00    +0.000 C 
ATOM     14  C   UNL     1     -14.218  -0.107  -1.629  0.00  0.00    +0.000 C 
BRANCH  12  15
ATOM     15  C   UNL     1     -12.052   0.397  -0.407  0.00  0.00    +0.000 C 
ATOM     16  O   UNL     1     -11.453  -0.661  -0.566  0.00  0.00    +0.000 OA
ATOM     17  N   UNL     1     -11.832   1.320   0.601  0.00  0.00    +0.000 N 
ATOM     18  H   UNL     1     -12.364   2.185   0.578  0.00  0.00    +0.000 HD
BRANCH  17  19
ATOM     19  C   UNL     1     -10.900   1.182   1.645  0.00  0.00    +0.000 A 
ATOM     20  C   UNL     1      -9.566   1.493   1.372  0.00  0.00    +0.000 A 
ATOM     21  C   UNL     1      -8.596   1.375   2.364  0.00  0.00    +0.000 A 
ATOM     22  C   UNL     1      -8.970   0.947   3.633  0.00  0.00    +0.000 A 
ATOM     23  F   UNL     1      -8.040   0.835   4.590  0.00  0.00    +0.000 F 
ATOM     24  C   UNL     1     -10.293   0.635   3.925  0.00  0.00    +0.000 A 
ATOM     25  C   UNL     1     -11.256   0.754   2.926  0.00  0.00    +0.000 A 
ENDBRANCH  17  19
ENDBRANCH  12  15
ENDBRANCH   9  12
ENDBRANCH   2   8
BRANCH   7  26
ATOM     26  O   UNL     1     -16.957   7.682  -1.982  0.00  0.00    +0.000 OA
BRANCH  26  27
ATOM     27  C   UNL     1     -17.245   8.345  -0.805  0.00  0.00    +0.000 A 
ATOM     28  C   UNL     1     -18.544   8.848  -0.630  0.00  0.00    +0.000 A 
ATOM     29  C   UNL     1     -18.846   9.471   0.593  0.00  0.00    +0.000 A 
ATOM     30  C   UNL     1     -19.528   8.756  -1.626  0.00  0.00    +0.000 A 
ATOM     31  N   UNL     1     -17.947   9.584   1.583  0.00  0.00    +0.000 NA
ATOM     32  C   UNL     1     -20.126   9.977   0.768  0.00  0.00    +0.000 A 
ATOM     33  C   UNL     1     -16.712   9.074   1.381  0.00  0.00    +0.000 A 
ATOM     34  C   UNL     1     -16.313   8.441   0.222  0.00  0.00    +0.000 A 
ATOM     35  C   UNL     1     -21.113   9.886  -0.221  0.00  0.00    +0.000 A 
ATOM     36  C   UNL     1     -20.812   9.269  -1.436  0.00  0.00    +0.000 A 
BRANCH  36  37
ATOM     37  O   UNL     1     -21.813   9.212  -2.377  0.00  0.00    +0.000 OA
ATOM     38  C   UNL     1     -21.404   9.370  -3.708  0.00  0.00    +0.000 C 
ENDBRANCH  36  37
BRANCH  35  39
ATOM     39  O   UNL     1     -22.385  10.387  -0.065  0.00  0.00    +0.000 OA
BRANCH  39  40
ATOM     40  C   UNL     1     -23.146   9.728   0.805  0.00  0.00    +0.000 C 
ATOM     41  C   UNL     1     -24.035   8.966   1.794  0.00  0.00    +0.000 C 
BRANCH  41  42
ATOM     42  C   UNL     1     -24.925   8.199   2.778  0.00  0.00    +0.000 C 
BRANCH  42  43
ATOM     43  N   UNL     1     -25.771   7.471   3.713  0.00  0.00    +0.000 N 
ATOM     44  C   UNL     1     -25.362   6.036   3.637  0.00  0.00    +0.000 C 
ATOM     45  C   UNL     1     -24.614   5.171   4.703  0.00  0.00    +0.000 C 
ATOM     46  O   UNL     1     -24.121   5.404   5.939  0.00  0.00    +0.000 OA
ATOM     47  C   UNL     1     -24.484   6.701   6.006  0.00  0.00    +0.000 C 
ATOM     48  C   UNL     1     -25.216   7.717   5.078  0.00  0.00    +0.000 C 
ENDBRANCH  42  43
ENDBRANCH  41  42
ENDBRANCH  39  40
ENDBRANCH  35  39
ENDBRANCH  26  27
ENDBRANCH   7  26
TORSDOF 11
ENDMDL
MODEL 3
REMARK VINA RESULT:      -6.8     11.451     14.748
REMARK  Name = Foretinib.pdbqt.pdb
REMARK  11 active torsions:
REMARK  status: ('A' for Active; 'I' for Inactive)
REMARK    1  A    between atoms: C_2  and  N_31
REMARK    2  A    between atoms: C_7  and  O_8
REMARK    3  A    between atoms: O_8  and  C_9
REMARK    4  A    between atoms: C_17  and  O_19
REMARK    5  A    between atoms: C_18  and  O_29
REMARK    6  A    between atoms: O_19  and  C_20
REMARK    7  A    between atoms: C_21  and  C_22
REMARK    8  A    between atoms: C_22  and  N_23
REMARK    9  A    between atoms: C_32  and  C_35
REMARK   10  A    between atoms: C_35  and  C_38
REMARK   11  A    between atoms: N_40  and  C_42
REMARK                            x       y       z     vdW  Elec       q    Type
REMARK                         _______ _______ _______ _____ _____    ______ ____
ROOT
ATOM      1  F   UNL     1     -14.856   7.826  -2.608  0.00  0.00    +0.000 F 
ATOM      2  C   UNL     1     -14.650   4.291  -1.815  0.00  0.00    +0.000 A 
ATOM      3  C   UNL     1     -14.287   5.572  -2.232  0.00  0.00    +0.000 A 
ATOM      4  C   UNL     1     -15.944   4.061  -1.344  0.00  0.00    +0.000 A 
ATOM      5  C   UNL     1     -15.212   6.609  -2.172  0.00  0.00    +0.000 A 
ATOM      6  C   UNL     1     -16.871   5.100  -1.285  0.00  0.00    +0.000 A 
ATOM      7  C   UNL     1     -16.497   6.383  -1.677  0.00  0.00    +0.000 A 
ENDROOT
BRANCH   2   8
ATOM      8  N   UNL     1     -13.765   3.197  -1.851  0.00  0.00    +0.000 N 
ATOM      9  C   UNL     1     -12.477   3.222  -2.360  0.00  0.00    +0.000 C 
ATOM     10  O   UNL     1     -11.922   4.183  -2.878  0.00  0.00    +0.000 OA
ATOM     11  H   UNL     1     -14.122   2.310  -1.509  0.00  0.00    +0.000 HD
BRANCH   9  12
ATOM     12  C   UNL     1     -11.757   1.907  -2.296  0.00  0.00    +0.000 C 
ATOM     13  C   UNL     1     -10.803   1.603  -3.357  0.00  0.00    +0.000 C 
ATOM     14  C   UNL     1     -12.109   0.899  -3.290  0.00  0.00    +0.000 C 
BRANCH  12  15
ATOM     15  C   UNL     1     -11.413   1.447  -0.912  0.00  0.00    +0.000 C 
ATOM     16  O   UNL     1     -12.321   1.140  -0.148  0.00  0.00    +0.000 OA
ATOM     17  N   UNL     1     -10.056   1.366  -0.647  0.00  0.00    +0.000 N 
ATOM     18  H   UNL     1      -9.411   1.600  -1.395  0.00  0.00    +0.000 HD
BRANCH  17  19
ATOM     19  C   UNL     1      -9.485   0.949   0.570  0.00  0.00    +0.000 A 
ATOM     20  C   UNL     1      -9.316  -0.423   0.772  0.00  0.00    +0.000 A 
ATOM     21  C   UNL     1      -8.757  -0.898   1.955  0.00  0.00    +0.000 A 
ATOM     22  C   UNL     1      -8.367   0.009   2.935  0.00  0.00    +0.000 A 
ATOM     23  F   UNL     1      -7.826  -0.445   4.073  0.00  0.00    +0.000 F 
ATOM     24  C   UNL     1      -8.525   1.377   2.750  0.00  0.00    +0.000 A 
ATOM     25  C   UNL     1      -9.086   1.843   1.564  0.00  0.00    +0.000 A 
ENDBRANCH  17  19
ENDBRANCH  12  15
ENDBRANCH   9  12
ENDBRANCH   2   8
BRANCH   7  26
ATOM     26  O   UNL     1     -17.469   7.353  -1.658  0.00  0.00    +0.000 OA
BRANCH  26  27
ATOM     27  C   UNL     1     -17.548   8.146  -0.530  0.00  0.00    +0.000 A 
ATOM     28  C   UNL     1     -18.764   8.792  -0.260  0.00  0.00    +0.000 A 
ATOM     29  C   UNL     1     -18.855   9.552   0.919  0.00  0.00    +0.000 A 
ATOM     30  C   UNL     1     -19.870   8.708  -1.120  0.00  0.00    +0.000 A 
ATOM     31  N   UNL     1     -17.833   9.664   1.782  0.00  0.00    +0.000 NA
ATOM     32  C   UNL     1     -20.052  10.199   1.188  0.00  0.00    +0.000 A 
ATOM     33  C   UNL     1     -16.682   9.016   1.492  0.00  0.00    +0.000 A 
ATOM     34  C   UNL     1     -16.489   8.242   0.366  0.00  0.00    +0.000 A 
ATOM     35  C   UNL     1     -21.160  10.117   0.334  0.00  0.00    +0.000 A 
ATOM     36  C   UNL     1     -21.069   9.364  -0.837  0.00  0.00    +0.000 A 
BRANCH  36  37
ATOM     37  O   UNL     1     -22.181   9.322  -1.645  0.00  0.00    +0.000 OA
ATOM     38  C   UNL     1     -22.832   8.083  -1.716  0.00  0.00    +0.000 C 
ENDBRANCH  36  37
BRANCH  35  39
ATOM     39  O   UNL     1     -22.352  10.756   0.584  0.00  0.00    +0.000 OA
BRANCH  39  40
ATOM     40  C   UNL     1     -22.770  10.694   1.845  0.00  0.00    +0.000 C 
ATOM     41  C   UNL     1     -23.257  10.606   3.296  0.00  0.00    +0.000 C 
BRANCH  41  42
ATOM     42  C   UNL     1     -23.741  10.512   4.747  0.00  0.00    +0.000 C 
BRANCH  42  43
ATOM     43  N   UNL     1     -24.201  10.421   6.126  0.00  0.00    +0.000 N 
ATOM     44  C   UNL     1     -23.137   9.698   6.888  0.00  0.00    +0.000 C 
ATOM     45  C   UNL     1     -22.157  10.254   7.971  0.00  0.00    +0.000 C 
ATOM     46  O   UNL     1     -21.950  11.466   8.532  0.00  0.00    +0.000 OA
ATOM     47  C   UNL     1     -22.905  12.120   7.841  0.00  0.00    +0.000 C 
ATOM     48  C   UNL     1     -23.957  11.756   6.750  0.00  0.00    +0.000 C 
ENDBRANCH  42  43
ENDBRANCH  41  42
ENDBRANCH  39  40
ENDBRANCH  35  39
ENDBRANCH  26  27
ENDBRANCH   7  26
TORSDOF 11
ENDMDL
MODEL 4
REMARK VINA RESULT:      -6.8     11.114     14.279
REMARK  Name = Foretinib.pdbqt.pdb
REMARK  11 active torsions:
REMARK  status: ('A' for Active; 'I' for Inactive)
REMARK    1  A    between atoms: C_2  and  N_31
REMARK    2  A    between atoms: C_7  and  O_8
REMARK    3  A    between atoms: O_8  and  C_9
REMARK    4  A    between atoms: C_17  and  O_19
REMARK    5  A    between atoms: C_18  and  O_29
REMARK    6  A    between atoms: O_19  and  C_20
REMARK    7  A    between atoms: C_21  and  C_22
REMARK    8  A    between atoms: C_22  and  N_23
REMARK    9  A    between atoms: C_32  and  C_35
REMARK   10  A    between atoms: C_35  and  C_38
REMARK   11  A    between atoms: N_40  and  C_42
REMARK                            x       y       z     vdW  Elec       q    Type
REMARK                         _______ _______ _______ _____ _____    ______ ____
ROOT
ATOM      1  F   UNL     1     -14.417   7.269  -3.125  0.00  0.00    +0.000 F 
ATOM      2  C   UNL     1     -15.081   3.973  -1.761  0.00  0.00    +0.000 A 
ATOM      3  C   UNL     1     -14.441   5.022  -2.423  0.00  0.00    +0.000 A 
ATOM      4  C   UNL     1     -16.312   4.200  -1.141  0.00  0.00    +0.000 A 
ATOM      5  C   UNL     1     -15.030   6.282  -2.456  0.00  0.00    +0.000 A 
ATOM      6  C   UNL     1     -16.901   5.462  -1.175  0.00  0.00    +0.000 A 
ATOM      7  C   UNL     1     -16.247   6.513  -1.814  0.00  0.00    +0.000 A 
ENDROOT
BRANCH   2   8
ATOM      8  N   UNL     1     -14.544   2.675  -1.691  0.00  0.00    +0.000 N 
ATOM      9  C   UNL     1     -13.202   2.367  -1.539  0.00  0.00    +0.000 C 
ATOM     10  O   UNL     1     -12.279   3.169  -1.471  0.00  0.00    +0.000 OA
ATOM     11  H   UNL     1     -15.197   1.904  -1.801  0.00  0.00    +0.000 HD
BRANCH   9  12
ATOM     12  C   UNL     1     -12.898   0.898  -1.518  0.00  0.00    +0.000 C 
ATOM     13  C   UNL     1     -12.928   0.180  -2.787  0.00  0.00    +0.000 C 
ATOM     14  C   UNL     1     -14.000  -0.020  -1.778  0.00  0.00    +0.000 C 
BRANCH  12  15
ATOM     15  C   UNL     1     -11.854   0.488  -0.522  0.00  0.00    +0.000 C 
ATOM     16  O   UNL     1     -11.155  -0.489  -0.768  0.00  0.00    +0.000 OA
ATOM     17  N   UNL     1     -11.751   1.313   0.585  0.00  0.00    +0.000 N 
ATOM     18  H   UNL     1     -12.361   2.124   0.631  0.00  0.00    +0.000 HD
BRANCH  17  19
ATOM     19  C   UNL     1     -10.843   1.146   1.646  0.00  0.00    +0.000 A 
ATOM     20  C   UNL     1      -9.496   1.416   1.396  0.00  0.00    +0.000 A 
ATOM     21  C   UNL     1      -8.548   1.269   2.406  0.00  0.00    +0.000 A 
ATOM     22  C   UNL     1      -8.957   0.852   3.667  0.00  0.00    +0.000 A 
ATOM     23  F   UNL     1      -8.048   0.712   4.641  0.00  0.00    +0.000 F 
ATOM     24  C   UNL     1     -10.294   0.580   3.935  0.00  0.00    +0.000 A 
ATOM     25  C   UNL     1     -11.235   0.729   2.919  0.00  0.00    +0.000 A 
ENDBRANCH  17  19
ENDBRANCH  12  15
ENDBRANCH   9  12
ENDBRANCH   2   8
BRANCH   7  26
ATOM     26  O   UNL     1     -16.903   7.717  -1.872  0.00  0.00    +0.000 OA
BRANCH  26  27
ATOM     27  C   UNL     1     -16.956   8.464  -0.711  0.00  0.00    +0.000 A 
ATOM     28  C   UNL     1     -18.206   8.948  -0.293  0.00  0.00    +0.000 A 
ATOM     29  C   UNL     1     -18.261   9.659   0.919  0.00  0.00    +0.000 A 
ATOM     30  C   UNL     1     -19.378   8.753  -1.040  0.00  0.00    +0.000 A 
ATOM     31  N   UNL     1     -17.174   9.871   1.677  0.00  0.00    +0.000 NA
ATOM     32  C   UNL     1     -19.492  10.146   1.333  0.00  0.00    +0.000 A 
ATOM     33  C   UNL     1     -15.992   9.377   1.246  0.00  0.00    +0.000 A 
ATOM     34  C   UNL     1     -15.828   8.664   0.076  0.00  0.00    +0.000 A 
ATOM     35  C   UNL     1     -20.666   9.953   0.593  0.00  0.00    +0.000 A 
ATOM     36  C   UNL     1     -20.610   9.249  -0.610  0.00  0.00    +0.000 A 
BRANCH  36  37
ATOM     37  O   UNL     1     -21.788   9.093  -1.302  0.00  0.00    +0.000 OA
ATOM     38  C   UNL     1     -21.778   8.113  -2.304  0.00  0.00    +0.000 C 
ENDBRANCH  36  37
BRANCH  35  39
ATOM     39  O   UNL     1     -21.892  10.434   0.987  0.00  0.00    +0.000 OA
BRANCH  39  40
ATOM     40  C   UNL     1     -21.871  11.642   1.545  0.00  0.00    +0.000 C 
ATOM     41  C   UNL     1     -21.861  13.030   2.195  0.00  0.00    +0.000 C 
BRANCH  41  42
ATOM     42  C   UNL     1     -21.853  14.415   2.851  0.00  0.00    +0.000 C 
BRANCH  42  43
ATOM     43  N   UNL     1     -21.845  15.730   3.476  0.00  0.00    +0.000 N 
ATOM     44  C   UNL     1     -22.541  16.659   2.534  0.00  0.00    +0.000 C 
ATOM     45  C   UNL     1     -23.935  17.349   2.688  0.00  0.00    +0.000 C 
ATOM     46  O   UNL     1     -24.901  17.338   3.632  0.00  0.00    +0.000 OA
ATOM     47  C   UNL     1     -24.277  16.496   4.480  0.00  0.00    +0.000 C 
ATOM     48  C   UNL     1     -22.923  15.723   4.510  0.00  0.00    +0.000 C 
ENDBRANCH  42  43
ENDBRANCH  41  42
ENDBRANCH  39  40
ENDBRANCH  35  39
ENDBRANCH  26  27
ENDBRANCH   7  26
TORSDOF 11
ENDMDL
MODEL 5
REMARK VINA RESULT:      -6.7     17.993     21.094
REMARK  Name = Foretinib.pdbqt.pdb
REMARK  11 active torsions:
REMARK  status: ('A' for Active; 'I' for Inactive)
REMARK    1  A    between atoms: C_2  and  N_31
REMARK    2  A    between atoms: C_7  and  O_8
REMARK    3  A    between atoms: O_8  and  C_9
REMARK    4  A    between atoms: C_17  and  O_19
REMARK    5  A    between atoms: C_18  and  O_29
REMARK    6  A    between atoms: O_19  and  C_20
REMARK    7  A    between atoms: C_21  and  C_22
REMARK    8  A    between atoms: C_22  and  N_23
REMARK    9  A    between atoms: C_32  and  C_35
REMARK   10  A    between atoms: C_35  and  C_38
REMARK   11  A    between atoms: N_40  and  C_42
REMARK                            x       y       z     vdW  Elec       q    Type
REMARK                         _______ _______ _______ _____ _____    ______ ____
ROOT
ATOM      1  F   UNL     1      -5.210  11.170  15.530  0.00  0.00    +0.000 F 
ATOM      2  C   UNL     1      -7.168   8.507  17.026  0.00  0.00    +0.000 A 
ATOM      3  C   UNL     1      -6.389   9.216  16.112  0.00  0.00    +0.000 A 
ATOM      4  C   UNL     1      -7.483   9.085  18.258  0.00  0.00    +0.000 A 
ATOM      5  C   UNL     1      -5.929  10.489  16.434  0.00  0.00    +0.000 A 
ATOM      6  C   UNL     1      -7.024  10.361  18.579  0.00  0.00    +0.000 A 
ATOM      7  C   UNL     1      -6.224  11.056  17.674  0.00  0.00    +0.000 A 
ENDROOT
BRANCH   2   8
ATOM      8  N   UNL     1      -7.666   7.217  16.765  0.00  0.00    +0.000 N 
ATOM      9  C   UNL     1      -8.935   6.926  16.293  0.00  0.00    +0.000 C 
ATOM     10  O   UNL     1      -9.823   7.736  16.057  0.00  0.00    +0.000 OA
ATOM     11  H   UNL     1      -7.051   6.437  16.981  0.00  0.00    +0.000 HD
BRANCH   9  12
ATOM     12  C   UNL     1      -9.217   5.461  16.124  0.00  0.00    +0.000 C 
ATOM     13  C   UNL     1     -10.089   5.060  15.026  0.00  0.00    +0.000 C 
ATOM     14  C   UNL     1     -10.564   4.996  16.432  0.00  0.00    +0.000 C 
BRANCH  12  15
ATOM     15  C   UNL     1      -8.064   4.559  16.450  0.00  0.00    +0.000 C 
ATOM     16  O   UNL     1      -7.860   4.263  17.622  0.00  0.00    +0.000 OA
ATOM     17  N   UNL     1      -7.358   4.099  15.353  0.00  0.00    +0.000 N 
ATOM     18  H   UNL     1      -7.675   4.383  14.430  0.00  0.00    +0.000 HD
BRANCH  17  19
ATOM     19  C   UNL     1      -6.250   3.234  15.399  0.00  0.00    +0.000 A 
ATOM     20  C   UNL     1      -6.496   1.872  15.585  0.00  0.00    +0.000 A 
ATOM     21  C   UNL     1      -5.441   0.965  15.640  0.00  0.00    +0.000 A 
ATOM     22  C   UNL     1      -4.137   1.430  15.506  0.00  0.00    +0.000 A 
ATOM     23  F   UNL     1      -3.120   0.559  15.556  0.00  0.00    +0.000 F 
ATOM     24  C   UNL     1      -3.873   2.781  15.318  0.00  0.00    +0.000 A 
ATOM     25  C   UNL     1      -4.934   3.681  15.266  0.00  0.00    +0.000 A 
ENDBRANCH  17  19
ENDBRANCH  12  15
ENDBRANCH   9  12
ENDBRANCH   2   8
BRANCH   7  26
ATOM     26  O   UNL     1      -5.854  12.333  18.017  0.00  0.00    +0.000 OA
BRANCH  26  27
ATOM     27  C   UNL     1      -6.766  13.341  17.773  0.00  0.00    +0.000 A 
ATOM     28  C   UNL     1      -7.103  14.199  18.831  0.00  0.00    +0.000 A 
ATOM     29  C   UNL     1      -7.987  15.257  18.561  0.00  0.00    +0.000 A 
ATOM     30  C   UNL     1      -6.596  14.029  20.129  0.00  0.00    +0.000 A 
ATOM     31  N   UNL     1      -8.499  15.472  17.339  0.00  0.00    +0.000 NA
ATOM     32  C   UNL     1      -8.329  16.104  19.605  0.00  0.00    +0.000 A 
ATOM     33  C   UNL     1      -8.139  14.631  16.343  0.00  0.00    +0.000 A 
ATOM     34  C   UNL     1      -7.277  13.566  16.499  0.00  0.00    +0.000 A 
ATOM     35  C   UNL     1      -7.826  15.941  20.902  0.00  0.00    +0.000 A 
ATOM     36  C   UNL     1      -6.948  14.889  21.170  0.00  0.00    +0.000 A 
BRANCH  36  37
ATOM     37  O   UNL     1      -6.488  14.768  22.460  0.00  0.00    +0.000 OA
ATOM     38  C   UNL     1      -5.941  13.522  22.794  0.00  0.00    +0.000 C 
ENDBRANCH  36  37
BRANCH  35  39
ATOM     39  O   UNL     1      -8.159  16.768  21.949  0.00  0.00    +0.000 OA
BRANCH  39  40
ATOM     40  C   UNL     1      -9.350  16.533  22.495  0.00  0.00    +0.000 C 
ATOM     41  C   UNL     1     -10.718  16.277  23.135  0.00  0.00    +0.000 C 
BRANCH  41  42
ATOM     42  C   UNL     1     -12.089  16.027  23.774  0.00  0.00    +0.000 C 
BRANCH  42  43
ATOM     43  N   UNL     1     -13.391  15.789  24.381  0.00  0.00    +0.000 N 
ATOM     44  C   UNL     1     -13.138  15.371  25.794  0.00  0.00    +0.000 C 
ATOM     45  C   UNL     1     -13.428  16.155  27.115  0.00  0.00    +0.000 C 
ATOM     46  O   UNL     1     -13.951  17.366  27.406  0.00  0.00    +0.000 OA
ATOM     47  C   UNL     1     -14.174  17.746  26.131  0.00  0.00    +0.000 C 
ATOM     48  C   UNL     1     -13.961  17.128  24.716  0.00  0.00    +0.000 C 
ENDBRANCH  42  43
ENDBRANCH  41  42
ENDBRANCH  39  40
ENDBRANCH  35  39
ENDBRANCH  26  27
ENDBRANCH   7  26
TORSDOF 11
ENDMDL
MODEL 6
REMARK VINA RESULT:      -6.6      8.658     16.334
REMARK  Name = Foretinib.pdbqt.pdb
REMARK  11 active torsions:
REMARK  status: ('A' for Active; 'I' for Inactive)
REMARK    1  A    between atoms: C_2  and  N_31
REMARK    2  A    between atoms: C_7  and  O_8
REMARK    3  A    between atoms: O_8  and  C_9
REMARK    4  A    between atoms: C_17  and  O_19
REMARK    5  A    between atoms: C_18  and  O_29
REMARK    6  A    between atoms: O_19  and  C_20
REMARK    7  A    between atoms: C_21  and  C_22
REMARK    8  A    between atoms: C_22  and  N_23
REMARK    9  A    between atoms: C_32  and  C_35
REMARK   10  A    between atoms: C_35  and  C_38
REMARK   11  A    between atoms: N_40  and  C_42
REMARK                            x       y       z     vdW  Elec       q    Type
REMARK                         _______ _______ _______ _____ _____    ______ ____
ROOT
ATOM      1  F   UNL     1     -17.576   3.619  -3.987  0.00  0.00    +0.000 F 
ATOM      2  C   UNL     1     -15.809   6.101  -2.017  0.00  0.00    +0.000 A 
ATOM      3  C   UNL     1     -16.839   5.436  -2.684  0.00  0.00    +0.000 A 
ATOM      4  C   UNL     1     -14.527   5.547  -2.002  0.00  0.00    +0.000 A 
ATOM      5  C   UNL     1     -16.582   4.227  -3.323  0.00  0.00    +0.000 A 
ATOM      6  C   UNL     1     -14.271   4.337  -2.643  0.00  0.00    +0.000 A 
ATOM      7  C   UNL     1     -15.307   3.662  -3.285  0.00  0.00    +0.000 A 
ENDROOT
BRANCH   2   8
ATOM      8  N   UNL     1     -15.998   7.327  -1.352  0.00  0.00    +0.000 N 
ATOM      9  C   UNL     1     -16.784   7.519  -0.228  0.00  0.00    +0.000 C 
ATOM     10  O   UNL     1     -17.452   6.666   0.343  0.00  0.00    +0.000 OA
ATOM     11  H   UNL     1     -15.549   8.142  -1.761  0.00  0.00    +0.000 HD
BRANCH   9  12
ATOM     12  C   UNL     1     -16.830   8.936   0.266  0.00  0.00    +0.000 C 
ATOM     13  C   UNL     1     -16.394   9.193   1.634  0.00  0.00    +0.000 C 
ATOM     14  C   UNL     1     -17.833   9.264   1.272  0.00  0.00    +0.000 C 
BRANCH  12  15
ATOM     15  C   UNL     1     -16.498   9.971  -0.767  0.00  0.00    +0.000 C 
ATOM     16  O   UNL     1     -17.363  10.306  -1.568  0.00  0.00    +0.000 OA
ATOM     17  N   UNL     1     -15.220  10.495  -0.673  0.00  0.00    +0.000 N 
ATOM     18  H   UNL     1     -14.624  10.163   0.079  0.00  0.00    +0.000 HD
BRANCH  17  19
ATOM     19  C   UNL     1     -14.680  11.485  -1.514  0.00  0.00    +0.000 A 
ATOM     20  C   UNL     1     -14.642  11.221  -2.885  0.00  0.00    +0.000 A 
ATOM     21  C   UNL     1     -14.118  12.162  -3.770  0.00  0.00    +0.000 A 
ATOM     22  C   UNL     1     -13.635  13.367  -3.274  0.00  0.00    +0.000 A 
ATOM     23  F   UNL     1     -13.133  14.274  -4.123  0.00  0.00    +0.000 F 
ATOM     24  C   UNL     1     -13.667  13.647  -1.913  0.00  0.00    +0.000 A 
ATOM     25  C   UNL     1     -14.190  12.701  -1.035  0.00  0.00    +0.000 A 
ENDBRANCH  17  19
ENDBRANCH  12  15
ENDBRANCH   9  12
ENDBRANCH   2   8
BRANCH   7  26
ATOM     26  O   UNL     1     -14.984   2.507  -3.954  0.00  0.00    +0.000 OA
BRANCH  26  27
ATOM     27  C   UNL     1     -14.379   1.503  -3.223  0.00  0.00    +0.000 A 
ATOM     28  C   UNL     1     -15.196   0.671  -2.441  0.00  0.00    +0.000 A 
ATOM     29  C   UNL     1     -14.582  -0.384  -1.745  0.00  0.00    +0.000 A 
ATOM     30  C   UNL     1     -16.582   0.865  -2.331  0.00  0.00    +0.000 A 
ATOM     31  N   UNL     1     -13.262  -0.620  -1.817  0.00  0.00    +0.000 NA
ATOM     32  C   UNL     1     -15.383  -1.204  -0.965  0.00  0.00    +0.000 A 
ATOM     33  C   UNL     1     -12.512   0.196  -2.592  0.00  0.00    +0.000 A 
ATOM     34  C   UNL     1     -13.014   1.256  -3.318  0.00  0.00    +0.000 A 
ATOM     35  C   UNL     1     -16.767  -1.018  -0.852  0.00  0.00    +0.000 A 
ATOM     36  C   UNL     1     -17.376   0.031  -1.542  0.00  0.00    +0.000 A 
BRANCH  36  37
ATOM     37  O   UNL     1     -18.735   0.176  -1.393  0.00  0.00    +0.000 OA
ATOM     38  C   UNL     1     -19.511  -0.206  -2.496  0.00  0.00    +0.000 C 
ENDBRANCH  36  37
BRANCH  35  39
ATOM     39  O   UNL     1     -17.574  -1.819  -0.079  0.00  0.00    +0.000 OA
BRANCH  39  40
ATOM     40  C   UNL     1     -16.947  -2.488   0.885  0.00  0.00    +0.000 C 
ATOM     41  C   UNL     1     -16.235  -3.252   2.007  0.00  0.00    +0.000 C 
BRANCH  41  42
ATOM     42  C   UNL     1     -15.530  -4.019   3.132  0.00  0.00    +0.000 C 
BRANCH  42  43
ATOM     43  N   UNL     1     -14.861  -4.746   4.201  0.00  0.00    +0.000 N 
ATOM     44  C   UNL     1     -13.525  -5.157   3.672  0.00  0.00    +0.000 C 
ATOM     45  C   UNL     1     -12.108  -4.630   4.072  0.00  0.00    +0.000 C 
ATOM     46  O   UNL     1     -11.649  -3.707   4.945  0.00  0.00    +0.000 OA
ATOM     47  C   UNL     1     -12.855  -3.331   5.419  0.00  0.00    +0.000 C 
ATOM     48  C   UNL     1     -14.341  -3.724   5.158  0.00  0.00    +0.000 C 
ENDBRANCH  42  43
ENDBRANCH  41  42
ENDBRANCH  39  40
ENDBRANCH  35  39
ENDBRANCH  26  27
ENDBRANCH   7  26
TORSDOF 11
ENDMDL
MODEL 7
REMARK VINA RESULT:      -6.2      8.696     15.641
REMARK  Name = Foretinib.pdbqt.pdb
REMARK  11 active torsions:
REMARK  status: ('A' for Active; 'I' for Inactive)
REMARK    1  A    between atoms: C_2  and  N_31
REMARK    2  A    between atoms: C_7  and  O_8
REMARK    3  A    between atoms: O_8  and  C_9
REMARK    4  A    between atoms: C_17  and  O_19
REMARK    5  A    between atoms: C_18  and  O_29
REMARK    6  A    between atoms: O_19  and  C_20
REMARK    7  A    between atoms: C_21  and  C_22
REMARK    8  A    between atoms: C_22  and  N_23
REMARK    9  A    between atoms: C_32  and  C_35
REMARK   10  A    between atoms: C_35  and  C_38
REMARK   11  A    between atoms: N_40  and  C_42
REMARK                            x       y       z     vdW  Elec       q    Type
REMARK                         _______ _______ _______ _____ _____    ______ ____
ROOT
ATOM      1  F   UNL     1     -17.366   3.479  -3.714  0.00  0.00    +0.000 F 
ATOM      2  C   UNL     1     -15.731   6.116  -1.833  0.00  0.00    +0.000 A 
ATOM      3  C   UNL     1     -16.720   5.386  -2.493  0.00  0.00    +0.000 A 
ATOM      4  C   UNL     1     -14.435   5.600  -1.748  0.00  0.00    +0.000 A 
ATOM      5  C   UNL     1     -16.411   4.151  -3.055  0.00  0.00    +0.000 A 
ATOM      6  C   UNL     1     -14.127   4.364  -2.312  0.00  0.00    +0.000 A 
ATOM      7  C   UNL     1     -15.123   3.626  -2.947  0.00  0.00    +0.000 A 
ENDROOT
BRANCH   2   8
ATOM      8  N   UNL     1     -15.973   7.370  -1.244  0.00  0.00    +0.000 N 
ATOM      9  C   UNL     1     -16.761   7.595  -0.127  0.00  0.00    +0.000 C 
ATOM     10  O   UNL     1     -17.385   6.748   0.501  0.00  0.00    +0.000 OA
ATOM     11  H   UNL     1     -15.566   8.178  -1.706  0.00  0.00    +0.000 HD
BRANCH   9  12
ATOM     12  C   UNL     1     -16.872   9.035   0.279  0.00  0.00    +0.000 C 
ATOM     13  C   UNL     1     -16.504   9.386   1.646  0.00  0.00    +0.000 C 
ATOM     14  C   UNL     1     -17.928   9.390   1.220  0.00  0.00    +0.000 C 
BRANCH  12  15
ATOM     15  C   UNL     1     -16.525  10.018  -0.799  0.00  0.00    +0.000 C 
ATOM     16  O   UNL     1     -17.382  10.321  -1.621  0.00  0.00    +0.000 OA
ATOM     17  N   UNL     1     -15.244  10.538  -0.720  0.00  0.00    +0.000 N 
ATOM     18  H   UNL     1     -14.655  10.238   0.051  0.00  0.00    +0.000 HD
BRANCH  17  19
ATOM     19  C   UNL     1     -14.691  11.483  -1.603  0.00  0.00    +0.000 A 
ATOM     20  C   UNL     1     -14.181  12.663  -1.056  0.00  0.00    +0.000 A 
ATOM     21  C   UNL     1     -13.620  13.638  -1.879  0.00  0.00    +0.000 A 
ATOM     22  C   UNL     1     -13.573  13.423  -3.252  0.00  0.00    +0.000 A 
ATOM     23  F   UNL     1     -13.032  14.358  -4.045  0.00  0.00    +0.000 F 
ATOM     24  C   UNL     1     -14.073  12.255  -3.814  0.00  0.00    +0.000 A 
ATOM     25  C   UNL     1     -14.633  11.286  -2.984  0.00  0.00    +0.000 A 
ENDBRANCH  17  19
ENDBRANCH  12  15
ENDBRANCH   9  12
ENDBRANCH   2   8
BRANCH   7  26
ATOM     26  O   UNL     1     -14.747   2.446  -3.540  0.00  0.00    +0.000 OA
BRANCH  26  27
ATOM     27  C   UNL     1     -15.140   1.275  -2.921  0.00  0.00    +0.000 A 
ATOM     28  C   UNL     1     -14.406   0.838  -1.807  0.00  0.00    +0.000 A 
ATOM     29  C   UNL     1     -14.846  -0.323  -1.148  0.00  0.00    +0.000 A 
ATOM     30  C   UNL     1     -13.264   1.511  -1.345  0.00  0.00    +0.000 A 
ATOM     31  N   UNL     1     -15.933  -1.004  -1.541  0.00  0.00    +0.000 NA
ATOM     32  C   UNL     1     -14.120  -0.764  -0.051  0.00  0.00    +0.000 A 
ATOM     33  C   UNL     1     -16.620  -0.544  -2.611  0.00  0.00    +0.000 A 
ATOM     34  C   UNL     1     -16.278   0.586  -3.326  0.00  0.00    +0.000 A 
ATOM     35  C   UNL     1     -12.981  -0.096   0.416  0.00  0.00    +0.000 A 
ATOM     36  C   UNL     1     -12.545   1.057  -0.239  0.00  0.00    +0.000 A 
BRANCH  36  37
ATOM     37  O   UNL     1     -11.418   1.671   0.253  0.00  0.00    +0.000 OA
ATOM     38  C   UNL     1     -10.276   1.582  -0.555  0.00  0.00    +0.000 C 
ENDBRANCH  36  37
BRANCH  35  39
ATOM     39  O   UNL     1     -12.249  -0.522   1.499  0.00  0.00    +0.000 OA
BRANCH  39  40
ATOM     40  C   UNL     1     -11.435  -1.547   1.260  0.00  0.00    +0.000 C 
ATOM     41  C   UNL     1     -10.508  -2.733   0.970  0.00  0.00    +0.000 C 
BRANCH  41  42
ATOM     42  C   UNL     1      -9.581  -3.917   0.674  0.00  0.00    +0.000 C 
BRANCH  42  43
ATOM     43  N   UNL     1      -8.702  -5.043   0.393  0.00  0.00    +0.000 N 
ATOM     44  C   UNL     1      -8.299  -4.927  -1.042  0.00  0.00    +0.000 C 
ATOM     45  C   UNL     1      -6.901  -4.567  -1.642  0.00  0.00    +0.000 C 
ATOM     46  O   UNL     1      -5.694  -4.259  -1.120  0.00  0.00    +0.000 OA
ATOM     47  C   UNL     1      -6.057  -4.357   0.175  0.00  0.00    +0.000 C 
ATOM     48  C   UNL     1      -7.363  -4.695   0.957  0.00  0.00    +0.000 C 
ENDBRANCH  42  43
ENDBRANCH  41  42
ENDBRANCH  39  40
ENDBRANCH  35  39
ENDBRANCH  26  27
ENDBRANCH   7  26
TORSDOF 11
ENDMDL
MODEL 8
REMARK VINA RESULT:      -6.0      8.634     14.320
REMARK  Name = Foretinib.pdbqt.pdb
REMARK  11 active torsions:
REMARK  status: ('A' for Active; 'I' for Inactive)
REMARK    1  A    between atoms: C_2  and  N_31
REMARK    2  A    between atoms: C_7  and  O_8
REMARK    3  A    between atoms: O_8  and  C_9
REMARK    4  A    between atoms: C_17  and  O_19
REMARK    5  A    between atoms: C_18  and  O_29
REMARK    6  A    between atoms: O_19  and  C_20
REMARK    7  A    between atoms: C_21  and  C_22
REMARK    8  A    between atoms: C_22  and  N_23
REMARK    9  A    between atoms: C_32  and  C_35
REMARK   10  A    between atoms: C_35  and  C_38
REMARK   11  A    between atoms: N_40  and  C_42
REMARK                            x       y       z     vdW  Elec       q    Type
REMARK                         _______ _______ _______ _____ _____    ______ ____
ROOT
ATOM      1  F   UNL     1     -17.272   2.762  -2.433  0.00  0.00    +0.000 F 
ATOM      2  C   UNL     1     -16.230   6.190  -1.858  0.00  0.00    +0.000 A 
ATOM      3  C   UNL     1     -17.031   5.050  -1.929  0.00  0.00    +0.000 A 
ATOM      4  C   UNL     1     -14.879   6.105  -2.202  0.00  0.00    +0.000 A 
ATOM      5  C   UNL     1     -16.479   3.840  -2.338  0.00  0.00    +0.000 A 
ATOM      6  C   UNL     1     -14.327   4.892  -2.613  0.00  0.00    +0.000 A 
ATOM      7  C   UNL     1     -15.124   3.751  -2.657  0.00  0.00    +0.000 A 
ENDROOT
BRANCH   2   8
ATOM      8  N   UNL     1     -16.722   7.445  -1.454  0.00  0.00    +0.000 N 
ATOM      9  C   UNL     1     -17.114   7.779  -0.168  0.00  0.00    +0.000 C 
ATOM     10  O   UNL     1     -17.116   7.035   0.804  0.00  0.00    +0.000 OA
ATOM     11  H   UNL     1     -16.835   8.146  -2.181  0.00  0.00    +0.000 HD
BRANCH   9  12
ATOM     12  C   UNL     1     -17.625   9.182  -0.018  0.00  0.00    +0.000 C 
ATOM     13  C   UNL     1     -17.922   9.655   1.330  0.00  0.00    +0.000 C 
ATOM     14  C   UNL     1     -19.019   9.350   0.375  0.00  0.00    +0.000 C 
BRANCH  12  15
ATOM     15  C   UNL     1     -17.035  10.171  -0.978  0.00  0.00    +0.000 C 
ATOM     16  O   UNL     1     -17.756  10.657  -1.842  0.00  0.00    +0.000 OA
ATOM     17  N   UNL     1     -15.705  10.481  -0.749  0.00  0.00    +0.000 N 
ATOM     18  H   UNL     1     -15.244  10.042   0.042  0.00  0.00    +0.000 HD
BRANCH  17  19
ATOM     19  C   UNL     1     -14.937  11.388  -1.502  0.00  0.00    +0.000 A 
ATOM     20  C   UNL     1     -14.308  12.430  -0.818  0.00  0.00    +0.000 A 
ATOM     21  C   UNL     1     -13.534  13.360  -1.507  0.00  0.00    +0.000 A 
ATOM     22  C   UNL     1     -13.392  13.239  -2.885  0.00  0.00    +0.000 A 
ATOM     23  F   UNL     1     -12.646  14.131  -3.551  0.00  0.00    +0.000 F 
ATOM     24  C   UNL     1     -14.009  12.207  -3.582  0.00  0.00    +0.000 A 
ATOM     25  C   UNL     1     -14.782  11.282  -2.885  0.00  0.00    +0.000 A 
ENDBRANCH  17  19
ENDBRANCH  12  15
ENDBRANCH   9  12
ENDBRANCH   2   8
BRANCH   7  26
ATOM     26  O   UNL     1     -14.544   2.600  -3.130  0.00  0.00    +0.000 OA
BRANCH  26  27
ATOM     27  C   UNL     1     -13.194   2.646  -3.418  0.00  0.00    +0.000 A 
ATOM     28  C   UNL     1     -12.292   2.233  -2.425  0.00  0.00    +0.000 A 
ATOM     29  C   UNL     1     -10.923   2.228  -2.744  0.00  0.00    +0.000 A 
ATOM     30  C   UNL     1     -12.709   1.839  -1.144  0.00  0.00    +0.000 A 
ATOM     31  N   UNL     1     -10.466   2.589  -3.954  0.00  0.00    +0.000 NA
ATOM     32  C   UNL     1     -10.026   1.829  -1.764  0.00  0.00    +0.000 A 
ATOM     33  C   UNL     1     -11.368   2.968  -4.887  0.00  0.00    +0.000 A 
ATOM     34  C   UNL     1     -12.732   3.005  -4.679  0.00  0.00    +0.000 A 
ATOM     35  C   UNL     1     -10.436   1.433  -0.485  0.00  0.00    +0.000 A 
ATOM     36  C   UNL     1     -11.796   1.439  -0.168  0.00  0.00    +0.000 A 
BRANCH  36  37
ATOM     37  O   UNL     1     -12.146   1.049   1.103  0.00  0.00    +0.000 OA
ATOM     38  C   UNL     1     -12.662  -0.249   1.219  0.00  0.00    +0.000 C 
ENDBRANCH  36  37
BRANCH  35  39
ATOM     39  O   UNL     1      -9.560   1.039   0.499  0.00  0.00    +0.000 OA
BRANCH  39  40
ATOM     40  C   UNL     1      -8.461   0.429   0.063  0.00  0.00    +0.000 C 
ATOM     41  C   UNL     1      -7.193  -0.281  -0.424  0.00  0.00    +0.000 C 
BRANCH  41  42
ATOM     42  C   UNL     1      -5.927  -0.997  -0.908  0.00  0.00    +0.000 C 
BRANCH  42  43
ATOM     43  N   UNL     1      -4.725  -1.678  -1.369  0.00  0.00    +0.000 N 
ATOM     44  C   UNL     1      -5.161  -2.673  -2.395  0.00  0.00    +0.000 C 
ATOM     45  C   UNL     1      -4.919  -2.659  -3.940  0.00  0.00    +0.000 C 
ATOM     46  O   UNL     1      -4.299  -1.819  -4.796  0.00  0.00    +0.000 OA
ATOM     47  C   UNL     1      -3.911  -0.917  -3.872  0.00  0.00    +0.000 C 
ATOM     48  C   UNL     1      -4.048  -0.754  -2.328  0.00  0.00    +0.000 C 
ENDBRANCH  42  43
ENDBRANCH  41  42
ENDBRANCH  39  40
ENDBRANCH  35  39
ENDBRANCH  26  27
ENDBRANCH   7  26
TORSDOF 11
ENDMDL
MODEL 9
REMARK VINA RESULT:      -6.0     14.613     21.718
REMARK  Name = Foretinib.pdbqt.pdb
REMARK  11 active torsions:
REMARK  status: ('A' for Active; 'I' for Inactive)
REMARK    1  A    between atoms: C_2  and  N_31
REMARK    2  A    between atoms: C_7  and  O_8
REMARK    3  A    between atoms: O_8  and  C_9
REMARK    4  A    between atoms: C_17  and  O_19
REMARK    5  A    between atoms: C_18  and  O_29
REMARK    6  A    between atoms: O_19  and  C_20
REMARK    7  A    between atoms: C_21  and  C_22
REMARK    8  A    between atoms: C_22  and  N_23
REMARK    9  A    between atoms: C_32  and  C_35
REMARK   10  A    between atoms: C_35  and  C_38
REMARK   11  A    between atoms: N_40  and  C_42
REMARK                            x       y       z     vdW  Elec       q    Type
REMARK                         _______ _______ _______ _____ _____    ______ ____
ROOT
ATOM      1  F   UNL     1      -4.019  11.432  17.393  0.00  0.00    +0.000 F 
ATOM      2  C   UNL     1      -5.680  13.558  14.967  0.00  0.00    +0.000 A 
ATOM      3  C   UNL     1      -4.706  12.772  15.582  0.00  0.00    +0.000 A 
ATOM      4  C   UNL     1      -6.922  13.725  15.584  0.00  0.00    +0.000 A 
ATOM      5  C   UNL     1      -4.979  12.157  16.800  0.00  0.00    +0.000 A 
ATOM      6  C   UNL     1      -7.194  13.109  16.804  0.00  0.00    +0.000 A 
ATOM      7  C   UNL     1      -6.229  12.303  17.402  0.00  0.00    +0.000 A 
ENDROOT
BRANCH   2   8
ATOM      8  N   UNL     1      -5.470  14.209  13.737  0.00  0.00    +0.000 N 
ATOM      9  C   UNL     1      -5.004  15.504  13.582  0.00  0.00    +0.000 C 
ATOM     10  O   UNL     1      -4.728  16.286  14.483  0.00  0.00    +0.000 OA
ATOM     11  H   UNL     1      -5.723  13.693  12.898  0.00  0.00    +0.000 HD
BRANCH   9  12
ATOM     12  C   UNL     1      -4.895  15.961  12.157  0.00  0.00    +0.000 C 
ATOM     13  C   UNL     1      -5.596  17.184  11.781  0.00  0.00    +0.000 C 
ATOM     14  C   UNL     1      -6.088  15.858  11.325  0.00  0.00    +0.000 C 
BRANCH  12  15
ATOM     15  C   UNL     1      -3.562  15.709  11.518  0.00  0.00    +0.000 C 
ATOM     16  O   UNL     1      -3.524  15.422  10.327  0.00  0.00    +0.000 OA
ATOM     17  N   UNL     1      -2.474  15.884  12.355  0.00  0.00    +0.000 N 
ATOM     18  H   UNL     1      -2.651  16.179  13.310  0.00  0.00    +0.000 HD
BRANCH  17  19
ATOM     19  C   UNL     1      -1.126  15.720  11.987  0.00  0.00    +0.000 A 
ATOM     20  C   UNL     1      -0.483  16.801  11.380  0.00  0.00    +0.000 A 
ATOM     21  C   UNL     1       0.851  16.702  10.992  0.00  0.00    +0.000 A 
ATOM     22  C   UNL     1       1.538  15.514  11.217  0.00  0.00    +0.000 A 
ATOM     23  F   UNL     1       2.821  15.416  10.847  0.00  0.00    +0.000 F 
ATOM     24  C   UNL     1       0.915  14.428  11.822  0.00  0.00    +0.000 A 
ATOM     25  C   UNL     1      -0.419  14.536  12.205  0.00  0.00    +0.000 A 
ENDBRANCH  17  19
ENDBRANCH  12  15
ENDBRANCH   9  12
ENDBRANCH   2   8
BRANCH   7  26
ATOM     26  O   UNL     1      -6.528  11.775  18.634  0.00  0.00    +0.000 OA
BRANCH  26  27
ATOM     27  C   UNL     1      -7.004  10.479  18.667  0.00  0.00    +0.000 A 
ATOM     28  C   UNL     1      -7.829  10.104  19.738  0.00  0.00    +0.000 A 
ATOM     29  C   UNL     1      -8.355   8.800  19.736  0.00  0.00    +0.000 A 
ATOM     30  C   UNL     1      -8.132  10.975  20.797  0.00  0.00    +0.000 A 
ATOM     31  N   UNL     1      -8.103   7.927  18.748  0.00  0.00    +0.000 NA
ATOM     32  C   UNL     1      -9.164   8.422  20.796  0.00  0.00    +0.000 A 
ATOM     33  C   UNL     1      -7.315   8.331  17.727  0.00  0.00    +0.000 A 
ATOM     34  C   UNL     1      -6.752   9.587  17.630  0.00  0.00    +0.000 A 
ATOM     35  C   UNL     1      -9.472   9.286  21.854  0.00  0.00    +0.000 A 
ATOM     36  C   UNL     1      -8.949  10.580  21.857  0.00  0.00    +0.000 A 
BRANCH  36  37
ATOM     37  O   UNL     1      -9.274  11.387  22.922  0.00  0.00    +0.000 OA
ATOM     38  C   UNL     1      -8.207  11.756  23.752  0.00  0.00    +0.000 C 
ENDBRANCH  36  37
BRANCH  35  39
ATOM     39  O   UNL     1     -10.269   8.925  22.915  0.00  0.00    +0.000 OA
BRANCH  39  40
ATOM     40  C   UNL     1     -10.987   7.820  22.729  0.00  0.00    +0.000 C 
ATOM     41  C   UNL     1     -11.827   6.554  22.526  0.00  0.00    +0.000 C 
BRANCH  41  42
ATOM     42  C   UNL     1     -12.671   5.292  22.322  0.00  0.00    +0.000 C 
BRANCH  42  43
ATOM     43  N   UNL     1     -13.475   4.093  22.127  0.00  0.00    +0.000 N 
ATOM     44  C   UNL     1     -14.291   3.915  23.366  0.00  0.00    +0.000 C 
ATOM     45  C   UNL     1     -15.833   4.089  23.558  0.00  0.00    +0.000 C 
ATOM     46  O   UNL     1     -16.858   4.434  22.748  0.00  0.00    +0.000 OA
ATOM     47  C   UNL     1     -16.122   4.600  21.631  0.00  0.00    +0.000 C 
ATOM     48  C   UNL     1     -14.616   4.479  21.244  0.00  0.00    +0.000 C 
ENDBRANCH  42  43
ENDBRANCH  41  42
ENDBRANCH  39  40
ENDBRANCH  35  39
ENDBRANCH  26  27
ENDBRANCH   7  26
TORSDOF 11
ENDMDL
