MODEL 1
REMARK VINA RESULT:      -6.1      0.000      0.000
REMARK  Name = Fulvestrant.pdbqt.pdb
REMARK  12 active torsions:
REMARK  status: ('A' for Active; 'I' for Inactive)
REMARK    1  A    between atoms: C_6  and  O_40
REMARK    2  A    between atoms: C_8  and  C_19
REMARK    3  A    between atoms: C_18  and  O_42
REMARK    4  A    between atoms: C_20  and  C_21
REMARK    5  A    between atoms: C_22  and  C_23
REMARK    6  A    between atoms: C_23  and  C_24
REMARK    7  A    between atoms: C_25  and  C_26
REMARK    8  A    between atoms: C_27  and  S_28
REMARK    9  A    between atoms: S_28  and  C_30
REMARK   10  A    between atoms: C_30  and  C_31
REMARK   11  A    between atoms: C_32  and  C_33
REMARK   12  A    between atoms: C_33  and  C_36
REMARK                            x       y       z     vdW  Elec       q    Type
REMARK                         _______ _______ _______ _____ _____    ______ ____
ROOT
ATOM      1  C   UNL     1      -7.979   5.740  17.266  0.00  0.00    +0.000 C 
ATOM      2  C   UNL     1      -8.405   4.413  16.471  0.00  0.00    +0.000 C 
ATOM      3  C   UNL     1      -8.728   6.280  18.447  0.00  0.00    +0.000 A 
ATOM      4  C   UNL     1      -9.714   5.400  19.243  0.00  0.00    +0.000 A 
ATOM      5  C   UNL     1      -9.255   3.659  17.386  0.00  0.00    +0.000 C 
ATOM      6  C   UNL     1      -7.048   3.731  16.188  0.00  0.00    +0.000 C 
ATOM      7  C   UNL     1      -6.547   5.782  17.258  0.00  0.00    +0.000 C 
ATOM      8  C   UNL     1      -8.548   7.678  18.921  0.00  0.00    +0.000 A 
ATOM      9  C   UNL     1      -9.878   4.115  18.676  0.00  0.00    +0.000 C 
ATOM     10  C   UNL     1      -5.968   4.545  16.621  0.00  0.00    +0.000 C 
ATOM     11  C   UNL     1      -9.098   4.827  15.148  0.00  0.00    +0.000 C 
ATOM     12  C   UNL     1     -10.452   5.875  20.448  0.00  0.00    +0.000 A 
ATOM     13  C   UNL     1      -9.325   7.928  20.078  0.00  0.00    +0.000 A 
ATOM     14  C   UNL     1     -10.242   7.205  20.883  0.00  0.00    +0.000 A 
ATOM     15  C   UNL     1     -11.338   5.069  21.160  0.00  0.00    +0.000 A 
ATOM     16  C   UNL     1     -10.887   7.730  21.991  0.00  0.00    +0.000 A 
ATOM     17  C   UNL     1     -11.995   5.584  22.279  0.00  0.00    +0.000 A 
ATOM     18  C   UNL     1     -11.766   6.901  22.681  0.00  0.00    +0.000 A 
ENDROOT
BRANCH   8  19
ATOM     19  C   UNL     1      -7.841   8.667  18.197  0.00  0.00    +0.000 C 
ATOM     20  C   UNL     1      -7.095   9.748  17.408  0.00  0.00    +0.000 C 
BRANCH  20  21
ATOM     21  C   UNL     1      -6.375  10.839  16.612  0.00  0.00    +0.000 C 
ATOM     22  C   UNL     1      -5.681  11.936  15.798  0.00  0.00    +0.000 C 
BRANCH  22  23
ATOM     23  C   UNL     1      -5.015  13.035  14.964  0.00  0.00    +0.000 C 
BRANCH  23  24
ATOM     24  C   UNL     1      -4.321  14.112  14.124  0.00  0.00    +0.000 C 
ATOM     25  C   UNL     1      -3.651  15.212  13.296  0.00  0.00    +0.000 C 
BRANCH  25  26
ATOM     26  C   UNL     1      -3.006  16.336  12.477  0.00  0.00    +0.000 C 
ATOM     27  C   UNL     1      -2.328  17.447  11.669  0.00  0.00    +0.000 C 
BRANCH  27  28
ATOM     28  S   UNL     1      -1.518  18.714  10.754  0.00  0.00    +0.000 S 
ATOM     29  O   UNL     1      -0.216  17.969  10.766  0.00  0.00    +0.000 OA
BRANCH  28  30
ATOM     30  C   UNL     1      -1.967  18.032   9.194  0.00  0.00    +0.000 C 
BRANCH  30  31
ATOM     31  C   UNL     1      -2.375  17.454   7.834  0.00  0.00    +0.000 C 
ATOM     32  C   UNL     1      -2.800  16.872   6.482  0.00  0.00    +0.000 C 
BRANCH  32  33
ATOM     33  C   UNL     1      -3.215  16.311   5.193  0.00  0.00    +0.000 C 
ATOM     34  F   UNL     1      -3.553  17.347   4.374  0.00  0.00    +0.000 F 
ATOM     35  F   UNL     1      -4.362  15.605   5.396  0.00  0.00    +0.000 F 
BRANCH  33  36
ATOM     36  C   UNL     1      -2.143  15.431   4.542  0.00  0.00    +0.000 C 
ATOM     37  F   UNL     1      -2.436  14.109   4.649  0.00  0.00    +0.000 F 
ATOM     38  F   UNL     1      -0.922  15.611   5.104  0.00  0.00    +0.000 F 
ATOM     39  F   UNL     1      -2.008  15.697   3.217  0.00  0.00    +0.000 F 
ENDBRANCH  33  36
ENDBRANCH  32  33
ENDBRANCH  30  31
ENDBRANCH  28  30
ENDBRANCH  27  28
ENDBRANCH  25  26
ENDBRANCH  23  24
ENDBRANCH  22  23
ENDBRANCH  20  21
ENDBRANCH   8  19
BRANCH   6  40
ATOM     40  O   UNL     1      -6.920   2.369  16.014  0.00  0.00    +0.000 OA
ATOM     41  H   UNL     1      -6.034   2.054  16.268  0.00  0.00    +0.000 HD
ENDBRANCH   6  40
BRANCH  18  42
ATOM     42  O   UNL     1     -12.433   7.361  23.782  0.00  0.00    +0.000 OA
ATOM     43  H   UNL     1     -12.132   8.268  23.967  0.00  0.00    +0.000 HD
ENDBRANCH  18  42
TORSDOF 12
ENDMDL
MODEL 2
REMARK VINA RESULT:      -5.9      4.492      7.907
REMARK  Name = Fulvestrant.pdbqt.pdb
REMARK  12 active torsions:
REMARK  status: ('A' for Active; 'I' for Inactive)
REMARK    1  A    between atoms: C_6  and  O_40
REMARK    2  A    between atoms: C_8  and  C_19
REMARK    3  A    between atoms: C_18  and  O_42
REMARK    4  A    between atoms: C_20  and  C_21
REMARK    5  A    between atoms: C_22  and  C_23
REMARK    6  A    between atoms: C_23  and  C_24
REMARK    7  A    between atoms: C_25  and  C_26
REMARK    8  A    between atoms: C_27  and  S_28
REMARK    9  A    between atoms: S_28  and  C_30
REMARK   10  A    between atoms: C_30  and  C_31
REMARK   11  A    between atoms: C_32  and  C_33
REMARK   12  A    between atoms: C_33  and  C_36
REMARK                            x       y       z     vdW  Elec       q    Type
REMARK                         _______ _______ _______ _____ _____    ______ ____
ROOT
ATOM      1  C   UNL     1      -7.337  14.903  17.853  0.00  0.00    +0.000 C 
ATOM      2  C   UNL     1      -7.381  15.765  19.206  0.00  0.00    +0.000 C 
ATOM      3  C   UNL     1      -7.118  13.421  17.817  0.00  0.00    +0.000 A 
ATOM      4  C   UNL     1      -7.324  12.548  19.072  0.00  0.00    +0.000 A 
ATOM      5  C   UNL     1      -7.670  14.813  20.273  0.00  0.00    +0.000 C 
ATOM      6  C   UNL     1      -8.533  16.761  18.942  0.00  0.00    +0.000 C 
ATOM      7  C   UNL     1      -8.279  15.501  16.955  0.00  0.00    +0.000 C 
ATOM      8  C   UNL     1      -6.710  12.716  16.574  0.00  0.00    +0.000 A 
ATOM      9  C   UNL     1      -7.635  13.311  20.222  0.00  0.00    +0.000 C 
ATOM     10  C   UNL     1      -9.033  16.623  17.620  0.00  0.00    +0.000 C 
ATOM     11  C   UNL     1      -6.033  16.514  19.363  0.00  0.00    +0.000 C 
ATOM     12  C   UNL     1      -7.160  11.067  19.080  0.00  0.00    +0.000 A 
ATOM     13  C   UNL     1      -6.618  11.319  16.786  0.00  0.00    +0.000 A 
ATOM     14  C   UNL     1      -6.790  10.426  17.874  0.00  0.00    +0.000 A 
ATOM     15  C   UNL     1      -7.352  10.289  20.220  0.00  0.00    +0.000 A 
ATOM     16  C   UNL     1      -6.613   9.054  17.791  0.00  0.00    +0.000 A 
ATOM     17  C   UNL     1      -7.178   8.905  20.152  0.00  0.00    +0.000 A 
ATOM     18  C   UNL     1      -6.812   8.304  18.946  0.00  0.00    +0.000 A 
ENDROOT
BRANCH   8  19
ATOM     19  C   UNL     1      -6.290  13.380  15.396  0.00  0.00    +0.000 C 
ATOM     20  C   UNL     1      -5.824  14.082  14.117  0.00  0.00    +0.000 C 
BRANCH  20  21
ATOM     21  C   UNL     1      -5.340  14.761  12.833  0.00  0.00    +0.000 C 
ATOM     22  C   UNL     1      -4.832  15.417  11.545  0.00  0.00    +0.000 C 
BRANCH  22  23
ATOM     23  C   UNL     1      -4.300  16.051  10.257  0.00  0.00    +0.000 C 
BRANCH  23  24
ATOM     24  C   UNL     1      -3.777  16.718   8.980  0.00  0.00    +0.000 C 
ATOM     25  C   UNL     1      -3.245  17.352   7.691  0.00  0.00    +0.000 C 
BRANCH  25  26
ATOM     26  C   UNL     1      -2.700  17.954   6.392  0.00  0.00    +0.000 C 
ATOM     27  C   UNL     1      -2.185  18.580   5.092  0.00  0.00    +0.000 C 
BRANCH  27  28
ATOM     28  S   UNL     1      -1.622  19.316   3.596  0.00  0.00    +0.000 S 
ATOM     29  O   UNL     1      -0.719  18.156   3.296  0.00  0.00    +0.000 OA
BRANCH  28  30
ATOM     30  C   UNL     1      -2.927  18.631   2.633  0.00  0.00    +0.000 C 
BRANCH  30  31
ATOM     31  C   UNL     1      -4.070  18.020   1.814  0.00  0.00    +0.000 C 
ATOM     32  C   UNL     1      -5.223  17.425   0.998  0.00  0.00    +0.000 C 
BRANCH  32  33
ATOM     33  C   UNL     1      -6.331  16.863   0.221  0.00  0.00    +0.000 C 
ATOM     34  F   UNL     1      -6.070  17.081  -1.099  0.00  0.00    +0.000 F 
ATOM     35  F   UNL     1      -7.449  17.587   0.506  0.00  0.00    +0.000 F 
BRANCH  33  36
ATOM     36  C   UNL     1      -6.565  15.373   0.490  0.00  0.00    +0.000 C 
ATOM     37  F   UNL     1      -6.719  14.666  -0.660  0.00  0.00    +0.000 F 
ATOM     38  F   UNL     1      -7.676  15.156   1.237  0.00  0.00    +0.000 F 
ATOM     39  F   UNL     1      -5.526  14.811   1.159  0.00  0.00    +0.000 F 
ENDBRANCH  33  36
ENDBRANCH  32  33
ENDBRANCH  30  31
ENDBRANCH  28  30
ENDBRANCH  27  28
ENDBRANCH  25  26
ENDBRANCH  23  24
ENDBRANCH  22  23
ENDBRANCH  20  21
ENDBRANCH   8  19
BRANCH   6  40
ATOM     40  O   UNL     1      -9.278  17.326  19.956  0.00  0.00    +0.000 OA
ATOM     41  H   UNL     1      -9.582  16.658  20.596  0.00  0.00    +0.000 HD
ENDBRANCH   6  40
BRANCH  18  42
ATOM     42  O   UNL     1      -6.652   6.948  18.928  0.00  0.00    +0.000 OA
ATOM     43  H   UNL     1      -5.703   6.749  19.012  0.00  0.00    +0.000 HD
ENDBRANCH  18  42
TORSDOF 12
ENDMDL
MODEL 3
REMARK VINA RESULT:      -5.7     10.508     13.410
REMARK  Name = Fulvestrant.pdbqt.pdb
REMARK  12 active torsions:
REMARK  status: ('A' for Active; 'I' for Inactive)
REMARK    1  A    between atoms: C_6  and  O_40
REMARK    2  A    between atoms: C_8  and  C_19
REMARK    3  A    between atoms: C_18  and  O_42
REMARK    4  A    between atoms: C_20  and  C_21
REMARK    5  A    between atoms: C_22  and  C_23
REMARK    6  A    between atoms: C_23  and  C_24
REMARK    7  A    between atoms: C_25  and  C_26
REMARK    8  A    between atoms: C_27  and  S_28
REMARK    9  A    between atoms: S_28  and  C_30
REMARK   10  A    between atoms: C_30  and  C_31
REMARK   11  A    between atoms: C_32  and  C_33
REMARK   12  A    between atoms: C_33  and  C_36
REMARK                            x       y       z     vdW  Elec       q    Type
REMARK                         _______ _______ _______ _____ _____    ______ ____
ROOT
ATOM      1  C   UNL     1      -8.611   4.705  18.768  0.00  0.00    +0.000 C 
ATOM      2  C   UNL     1      -9.081   3.219  19.150  0.00  0.00    +0.000 C 
ATOM      3  C   UNL     1      -7.332   5.016  18.053  0.00  0.00    +0.000 A 
ATOM      4  C   UNL     1      -6.565   3.930  17.268  0.00  0.00    +0.000 A 
ATOM      5  C   UNL     1      -8.336   2.329  18.267  0.00  0.00    +0.000 C 
ATOM      6  C   UNL     1     -10.597   3.251  18.854  0.00  0.00    +0.000 C 
ATOM      7  C   UNL     1      -9.798   5.441  18.446  0.00  0.00    +0.000 C 
ATOM      8  C   UNL     1      -6.745   6.382  18.045  0.00  0.00    +0.000 A 
ATOM      9  C   UNL     1      -7.154   2.649  17.394  0.00  0.00    +0.000 C 
ATOM     10  C   UNL     1     -11.015   4.554  18.473  0.00  0.00    +0.000 C 
ATOM     11  C   UNL     1      -8.821   2.988  20.660  0.00  0.00    +0.000 C 
ATOM     12  C   UNL     1      -5.313   4.195  16.507  0.00  0.00    +0.000 A 
ATOM     13  C   UNL     1      -5.567   6.428  17.262  0.00  0.00    +0.000 A 
ATOM     14  C   UNL     1      -4.793   5.511  16.505  0.00  0.00    +0.000 A 
ATOM     15  C   UNL     1      -4.632   3.206  15.800  0.00  0.00    +0.000 A 
ATOM     16  C   UNL     1      -3.633   5.847  15.826  0.00  0.00    +0.000 A 
ATOM     17  C   UNL     1      -3.462   3.529  15.111  0.00  0.00    +0.000 A 
ATOM     18  C   UNL     1      -2.975   4.837  15.130  0.00  0.00    +0.000 A 
ENDROOT
BRANCH   8  19
ATOM     19  C   UNL     1      -7.206   7.438  18.868  0.00  0.00    +0.000 C 
ATOM     20  C   UNL     1      -7.713   8.591  19.740  0.00  0.00    +0.000 C 
BRANCH  20  21
ATOM     21  C   UNL     1      -8.228   9.758  20.587  0.00  0.00    +0.000 C 
ATOM     22  C   UNL     1      -8.740  10.907  21.462  0.00  0.00    +0.000 C 
BRANCH  22  23
ATOM     23  C   UNL     1      -9.250  12.035  22.363  0.00  0.00    +0.000 C 
BRANCH  23  24
ATOM     24  C   UNL     1      -9.747  13.188  23.242  0.00  0.00    +0.000 C 
ATOM     25  C   UNL     1     -10.232  14.363  24.096  0.00  0.00    +0.000 C 
BRANCH  25  26
ATOM     26  C   UNL     1     -10.702  15.561  24.927  0.00  0.00    +0.000 C 
ATOM     27  C   UNL     1     -11.194  16.770  25.729  0.00  0.00    +0.000 C 
BRANCH  27  28
ATOM     28  S   UNL     1     -11.775  18.171  26.623  0.00  0.00    +0.000 S 
ATOM     29  O   UNL     1     -10.908  19.106  25.833  0.00  0.00    +0.000 OA
BRANCH  28  30
ATOM     30  C   UNL     1     -13.145  18.431  25.548  0.00  0.00    +0.000 C 
BRANCH  30  31
ATOM     31  C   UNL     1     -14.322  18.667  24.595  0.00  0.00    +0.000 C 
ATOM     32  C   UNL     1     -15.490  18.895  23.628  0.00  0.00    +0.000 C 
BRANCH  32  33
ATOM     33  C   UNL     1     -16.601  19.109  22.697  0.00  0.00    +0.000 C 
ATOM     34  F   UNL     1     -17.606  19.727  23.378  0.00  0.00    +0.000 F 
ATOM     35  F   UNL     1     -17.086  17.887  22.341  0.00  0.00    +0.000 F 
BRANCH  33  36
ATOM     36  C   UNL     1     -16.205  19.918  21.458  0.00  0.00    +0.000 C 
ATOM     37  F   UNL     1     -15.841  19.119  20.422  0.00  0.00    +0.000 F 
ATOM     38  F   UNL     1     -15.160  20.749  21.701  0.00  0.00    +0.000 F 
ATOM     39  F   UNL     1     -17.228  20.694  21.015  0.00  0.00    +0.000 F 
ENDBRANCH  33  36
ENDBRANCH  32  33
ENDBRANCH  30  31
ENDBRANCH  28  30
ENDBRANCH  27  28
ENDBRANCH  25  26
ENDBRANCH  23  24
ENDBRANCH  22  23
ENDBRANCH  20  21
ENDBRANCH   8  19
BRANCH   6  40
ATOM     40  O   UNL     1     -11.317   2.121  18.525  0.00  0.00    +0.000 OA
ATOM     41  H   UNL     1     -12.274   2.299  18.494  0.00  0.00    +0.000 HD
ENDBRANCH   6  40
BRANCH  18  42
ATOM     42  O   UNL     1      -1.826   5.105  14.442  0.00  0.00    +0.000 OA
ATOM     43  H   UNL     1      -2.056   5.620  13.649  0.00  0.00    +0.000 HD
ENDBRANCH  18  42
TORSDOF 12
ENDMDL
MODEL 4
REMARK VINA RESULT:      -5.4      5.885      9.547
REMARK  Name = Fulvestrant.pdbqt.pdb
REMARK  12 active torsions:
REMARK  status: ('A' for Active; 'I' for Inactive)
REMARK    1  A    between atoms: C_6  and  O_40
REMARK    2  A    between atoms: C_8  and  C_19
REMARK    3  A    between atoms: C_18  and  O_42
REMARK    4  A    between atoms: C_20  and  C_21
REMARK    5  A    between atoms: C_22  and  C_23
REMARK    6  A    between atoms: C_23  and  C_24
REMARK    7  A    between atoms: C_25  and  C_26
REMARK    8  A    between atoms: C_27  and  S_28
REMARK    9  A    between atoms: S_28  and  C_30
REMARK   10  A    between atoms: C_30  and  C_31
REMARK   11  A    between atoms: C_32  and  C_33
REMARK   12  A    between atoms: C_33  and  C_36
REMARK                            x       y       z     vdW  Elec       q    Type
REMARK                         _______ _______ _______ _____ _____    ______ ____
ROOT
ATOM      1  C   UNL     1      -3.961  -0.516  16.268  0.00  0.00    +0.000 C 
ATOM      2  C   UNL     1      -2.641  -1.334  16.672  0.00  0.00    +0.000 C 
ATOM      3  C   UNL     1      -4.844  -0.879  15.113  0.00  0.00    +0.000 A 
ATOM      4  C   UNL     1      -4.795  -2.283  14.474  0.00  0.00    +0.000 A 
ATOM      5  C   UNL     1      -2.792  -2.654  16.068  0.00  0.00    +0.000 C 
ATOM      6  C   UNL     1      -2.706  -1.352  18.215  0.00  0.00    +0.000 C 
ATOM      7  C   UNL     1      -4.549  -0.057  17.490  0.00  0.00    +0.000 C 
ATOM      8  C   UNL     1      -5.821   0.082  14.536  0.00  0.00    +0.000 A 
ATOM      9  C   UNL     1      -3.787  -3.102  15.035  0.00  0.00    +0.000 C 
ATOM     10  C   UNL     1      -3.802  -0.583  18.688  0.00  0.00    +0.000 C 
ATOM     11  C   UNL     1      -1.399  -0.545  16.184  0.00  0.00    +0.000 C 
ATOM     12  C   UNL     1      -5.679  -2.708  13.352  0.00  0.00    +0.000 A 
ATOM     13  C   UNL     1      -6.568  -0.514  13.491  0.00  0.00    +0.000 A 
ATOM     14  C   UNL     1      -6.611  -1.773  12.841  0.00  0.00    +0.000 A 
ATOM     15  C   UNL     1      -5.627  -3.979  12.786  0.00  0.00    +0.000 A 
ATOM     16  C   UNL     1      -7.470  -2.082  11.798  0.00  0.00    +0.000 A 
ATOM     17  C   UNL     1      -6.487  -4.305  11.735  0.00  0.00    +0.000 A 
ATOM     18  C   UNL     1      -7.394  -3.360  11.253  0.00  0.00    +0.000 A 
ENDROOT
BRANCH   8  19
ATOM     19  C   UNL     1      -5.857   1.458  14.868  0.00  0.00    +0.000 C 
ATOM     20  C   UNL     1      -5.916   2.944  15.236  0.00  0.00    +0.000 C 
BRANCH  20  21
ATOM     21  C   UNL     1      -6.003   4.425  15.613  0.00  0.00    +0.000 C 
ATOM     22  C   UNL     1      -6.117   5.909  15.976  0.00  0.00    +0.000 C 
BRANCH  22  23
ATOM     23  C   UNL     1      -6.260   7.394  16.320  0.00  0.00    +0.000 C 
BRANCH  23  24
ATOM     24  C   UNL     1      -6.368   8.882  16.671  0.00  0.00    +0.000 C 
ATOM     25  C   UNL     1      -6.507  10.371  17.004  0.00  0.00    +0.000 C 
BRANCH  25  26
ATOM     26  C   UNL     1      -6.674  11.861  17.317  0.00  0.00    +0.000 C 
ATOM     27  C   UNL     1      -6.872  13.352  17.607  0.00  0.00    +0.000 C 
BRANCH  27  28
ATOM     28  S   UNL     1      -7.125  15.067  17.917  0.00  0.00    +0.000 S 
ATOM     29  O   UNL     1      -5.776  15.208  18.559  0.00  0.00    +0.000 OA
BRANCH  28  30
ATOM     30  C   UNL     1      -6.499  15.560  16.347  0.00  0.00    +0.000 C 
BRANCH  30  31
ATOM     31  C   UNL     1      -5.944  16.008  14.990  0.00  0.00    +0.000 C 
ATOM     32  C   UNL     1      -5.403  16.470  13.633  0.00  0.00    +0.000 C 
BRANCH  32  33
ATOM     33  C   UNL     1      -4.892  16.918  12.334  0.00  0.00    +0.000 C 
ATOM     34  F   UNL     1      -3.533  16.975  12.414  0.00  0.00    +0.000 F 
ATOM     35  F   UNL     1      -5.309  18.201  12.143  0.00  0.00    +0.000 F 
BRANCH  33  36
ATOM     36  C   UNL     1      -5.332  16.025  11.170  0.00  0.00    +0.000 C 
ATOM     37  F   UNL     1      -4.289  15.676  10.374  0.00  0.00    +0.000 F 
ATOM     38  F   UNL     1      -6.248  16.632  10.375  0.00  0.00    +0.000 F 
ATOM     39  F   UNL     1      -5.896  14.869  11.606  0.00  0.00    +0.000 F 
ENDBRANCH  33  36
ENDBRANCH  32  33
ENDBRANCH  30  31
ENDBRANCH  28  30
ENDBRANCH  27  28
ENDBRANCH  25  26
ENDBRANCH  23  24
ENDBRANCH  22  23
ENDBRANCH  20  21
ENDBRANCH   8  19
BRANCH   6  40
ATOM     40  O   UNL     1      -2.119  -2.342  18.975  0.00  0.00    +0.000 OA
ATOM     41  H   UNL     1      -2.118  -3.200  18.513  0.00  0.00    +0.000 HD
ENDBRANCH   6  40
BRANCH  18  42
ATOM     42  O   UNL     1      -8.214  -3.724  10.223  0.00  0.00    +0.000 OA
ATOM     43  H   UNL     1      -7.788  -3.467   9.386  0.00  0.00    +0.000 HD
ENDBRANCH  18  42
TORSDOF 12
ENDMDL
MODEL 5
REMARK VINA RESULT:      -5.4     20.633     24.226
REMARK  Name = Fulvestrant.pdbqt.pdb
REMARK  12 active torsions:
REMARK  status: ('A' for Active; 'I' for Inactive)
REMARK    1  A    between atoms: C_6  and  O_40
REMARK    2  A    between atoms: C_8  and  C_19
REMARK    3  A    between atoms: C_18  and  O_42
REMARK    4  A    between atoms: C_20  and  C_21
REMARK    5  A    between atoms: C_22  and  C_23
REMARK    6  A    between atoms: C_23  and  C_24
REMARK    7  A    between atoms: C_25  and  C_26
REMARK    8  A    between atoms: C_27  and  S_28
REMARK    9  A    between atoms: S_28  and  C_30
REMARK   10  A    between atoms: C_30  and  C_31
REMARK   11  A    between atoms: C_32  and  C_33
REMARK   12  A    between atoms: C_33  and  C_36
REMARK                            x       y       z     vdW  Elec       q    Type
REMARK                         _______ _______ _______ _____ _____    ______ ____
ROOT
ATOM      1  C   UNL     1     -24.166  14.362   8.457  0.00  0.00    +0.000 C 
ATOM      2  C   UNL     1     -24.895  15.106   9.677  0.00  0.00    +0.000 C 
ATOM      3  C   UNL     1     -23.688  15.063   7.221  0.00  0.00    +0.000 A 
ATOM      4  C   UNL     1     -23.487  16.592   7.192  0.00  0.00    +0.000 A 
ATOM      5  C   UNL     1     -24.535  16.514   9.555  0.00  0.00    +0.000 C 
ATOM      6  C   UNL     1     -24.280  14.419  10.917  0.00  0.00    +0.000 C 
ATOM      7  C   UNL     1     -23.370  13.317   9.030  0.00  0.00    +0.000 C 
ATOM      8  C   UNL     1     -23.367  14.324   5.972  0.00  0.00    +0.000 A 
ATOM      9  C   UNL     1     -23.888  17.218   8.396  0.00  0.00    +0.000 C 
ATOM     10  C   UNL     1     -23.415  13.359  10.535  0.00  0.00    +0.000 C 
ATOM     11  C   UNL     1     -26.417  14.824   9.592  0.00  0.00    +0.000 C 
ATOM     12  C   UNL     1     -22.975  17.332   6.004  0.00  0.00    +0.000 A 
ATOM     13  C   UNL     1     -22.890  15.201   4.968  0.00  0.00    +0.000 A 
ATOM     14  C   UNL     1     -22.661  16.595   4.837  0.00  0.00    +0.000 A 
ATOM     15  C   UNL     1     -22.795  18.713   5.991  0.00  0.00    +0.000 A 
ATOM     16  C   UNL     1     -22.182  17.200   3.687  0.00  0.00    +0.000 A 
ATOM     17  C   UNL     1     -22.313  19.338   4.839  0.00  0.00    +0.000 A 
ATOM     18  C   UNL     1     -22.014  18.581   3.705  0.00  0.00    +0.000 A 
ENDROOT
BRANCH   8  19
ATOM     19  C   UNL     1     -23.680  12.959   5.765  0.00  0.00    +0.000 C 
ATOM     20  C   UNL     1     -24.039  11.486   5.546  0.00  0.00    +0.000 C 
BRANCH  20  21
ATOM     21  C   UNL     1     -24.426  10.019   5.335  0.00  0.00    +0.000 C 
ATOM     22  C   UNL     1     -24.789   8.549   5.102  0.00  0.00    +0.000 C 
BRANCH  22  23
ATOM     23  C   UNL     1     -25.128   7.078   4.844  0.00  0.00    +0.000 C 
BRANCH  23  24
ATOM     24  C   UNL     1     -25.490   5.617   4.560  0.00  0.00    +0.000 C 
ATOM     25  C   UNL     1     -25.836   4.158   4.244  0.00  0.00    +0.000 C 
BRANCH  25  26
ATOM     26  C   UNL     1     -26.169   2.704   3.895  0.00  0.00    +0.000 C 
ATOM     27  C   UNL     1     -26.465   1.243   3.542  0.00  0.00    +0.000 C 
BRANCH  27  28
ATOM     28  S   UNL     1     -26.772  -0.440   3.127  0.00  0.00    +0.000 S 
ATOM     29  O   UNL     1     -26.892  -0.118   1.667  0.00  0.00    +0.000 OA
BRANCH  28  30
ATOM     30  C   UNL     1     -25.063  -0.831   2.965  0.00  0.00    +0.000 C 
BRANCH  30  31
ATOM     31  C   UNL     1     -23.577  -1.188   2.841  0.00  0.00    +0.000 C 
ATOM     32  C   UNL     1     -22.093  -1.540   2.699  0.00  0.00    +0.000 C 
BRANCH  32  33
ATOM     33  C   UNL     1     -20.674  -1.876   2.553  0.00  0.00    +0.000 C 
ATOM     34  F   UNL     1     -20.542  -3.222   2.723  0.00  0.00    +0.000 F 
ATOM     35  F   UNL     1     -20.002  -1.302   3.590  0.00  0.00    +0.000 F 
BRANCH  33  36
ATOM     36  C   UNL     1     -20.081  -1.436   1.211  0.00  0.00    +0.000 C 
ATOM     37  F   UNL     1     -19.518  -2.473   0.538  0.00  0.00    +0.000 F 
ATOM     38  F   UNL     1     -19.118  -0.494   1.360  0.00  0.00    +0.000 F 
ATOM     39  F   UNL     1     -21.026  -0.905   0.393  0.00  0.00    +0.000 F 
ENDBRANCH  33  36
ENDBRANCH  32  33
ENDBRANCH  30  31
ENDBRANCH  28  30
ENDBRANCH  27  28
ENDBRANCH  25  26
ENDBRANCH  23  24
ENDBRANCH  22  23
ENDBRANCH  20  21
ENDBRANCH   8  19
BRANCH   6  40
ATOM     40  O   UNL     1     -24.186  15.040  12.144  0.00  0.00    +0.000 OA
ATOM     41  H   UNL     1     -23.742  15.904  12.079  0.00  0.00    +0.000 HD
ENDBRANCH   6  40
BRANCH  18  42
ATOM     42  O   UNL     1     -21.546  19.237   2.601  0.00  0.00    +0.000 OA
ATOM     43  H   UNL     1     -21.051  20.021   2.896  0.00  0.00    +0.000 HD
ENDBRANCH  18  42
TORSDOF 12
ENDMDL
MODEL 6
REMARK VINA RESULT:      -5.3     11.932     17.317
REMARK  Name = Fulvestrant.pdbqt.pdb
REMARK  12 active torsions:
REMARK  status: ('A' for Active; 'I' for Inactive)
REMARK    1  A    between atoms: C_6  and  O_40
REMARK    2  A    between atoms: C_8  and  C_19
REMARK    3  A    between atoms: C_18  and  O_42
REMARK    4  A    between atoms: C_20  and  C_21
REMARK    5  A    between atoms: C_22  and  C_23
REMARK    6  A    between atoms: C_23  and  C_24
REMARK    7  A    between atoms: C_25  and  C_26
REMARK    8  A    between atoms: C_27  and  S_28
REMARK    9  A    between atoms: S_28  and  C_30
REMARK   10  A    between atoms: C_30  and  C_31
REMARK   11  A    between atoms: C_32  and  C_33
REMARK   12  A    between atoms: C_33  and  C_36
REMARK                            x       y       z     vdW  Elec       q    Type
REMARK                         _______ _______ _______ _____ _____    ______ ____
ROOT
ATOM      1  C   UNL     1      -7.208   3.747  16.366  0.00  0.00    +0.000 C 
ATOM      2  C   UNL     1      -8.190   4.957  16.745  0.00  0.00    +0.000 C 
ATOM      3  C   UNL     1      -5.743   3.917  16.097  0.00  0.00    +0.000 A 
ATOM      4  C   UNL     1      -4.983   5.179  16.554  0.00  0.00    +0.000 A 
ATOM      5  C   UNL     1      -7.330   6.028  17.238  0.00  0.00    +0.000 C 
ATOM      6  C   UNL     1      -9.091   4.340  17.838  0.00  0.00    +0.000 C 
ATOM      7  C   UNL     1      -7.664   2.603  17.099  0.00  0.00    +0.000 C 
ATOM      8  C   UNL     1      -4.946   2.876  15.395  0.00  0.00    +0.000 A 
ATOM      9  C   UNL     1      -5.834   6.144  17.143  0.00  0.00    +0.000 C 
ATOM     10  C   UNL     1      -8.801   2.962  18.020  0.00  0.00    +0.000 C 
ATOM     11  C   UNL     1      -9.024   5.331  15.493  0.00  0.00    +0.000 C 
ATOM     12  C   UNL     1      -3.521   5.380  16.348  0.00  0.00    +0.000 A 
ATOM     13  C   UNL     1      -3.583   3.250  15.308  0.00  0.00    +0.000 A 
ATOM     14  C   UNL     1      -2.789   4.360  15.694  0.00  0.00    +0.000 A 
ATOM     15  C   UNL     1      -2.846   6.523  16.768  0.00  0.00    +0.000 A 
ATOM     16  C   UNL     1      -1.428   4.463  15.458  0.00  0.00    +0.000 A 
ATOM     17  C   UNL     1      -1.474   6.641  16.538  0.00  0.00    +0.000 A 
ATOM     18  C   UNL     1      -0.782   5.618  15.889  0.00  0.00    +0.000 A 
ENDROOT
BRANCH   8  19
ATOM     19  C   UNL     1      -5.517   1.759  14.741  0.00  0.00    +0.000 C 
ATOM     20  C   UNL     1      -6.122   0.536  14.044  0.00  0.00    +0.000 C 
BRANCH  20  21
ATOM     21  C   UNL     1      -6.708  -0.703  13.361  0.00  0.00    +0.000 C 
ATOM     22  C   UNL     1      -7.315  -1.924  12.663  0.00  0.00    +0.000 C 
BRANCH  22  23
ATOM     23  C   UNL     1      -7.947  -3.125  11.954  0.00  0.00    +0.000 C 
BRANCH  23  24
ATOM     24  C   UNL     1      -8.563  -4.317  11.213  0.00  0.00    +0.000 C 
ATOM     25  C   UNL     1      -9.211  -5.494  10.478  0.00  0.00    +0.000 C 
BRANCH  25  26
ATOM     26  C   UNL     1      -9.891  -6.659   9.750  0.00  0.00    +0.000 C 
ATOM     27  C   UNL     1     -10.584  -7.798   8.997  0.00  0.00    +0.000 C 
BRANCH  27  28
ATOM     28  S   UNL     1     -11.396  -9.085   8.111  0.00  0.00    +0.000 S 
ATOM     29  O   UNL     1     -12.166  -9.512   9.325  0.00  0.00    +0.000 OA
BRANCH  28  30
ATOM     30  C   UNL     1     -12.706  -8.041   7.570  0.00  0.00    +0.000 C 
BRANCH  30  31
ATOM     31  C   UNL     1     -13.845  -7.119   7.120  0.00  0.00    +0.000 C 
ATOM     32  C   UNL     1     -14.981  -6.203   6.651  0.00  0.00    +0.000 C 
BRANCH  32  33
ATOM     33  C   UNL     1     -16.065  -5.329   6.194  0.00  0.00    +0.000 C 
ATOM     34  F   UNL     1     -17.247  -5.900   6.561  0.00  0.00    +0.000 F 
ATOM     35  F   UNL     1     -16.056  -5.332   4.832  0.00  0.00    +0.000 F 
BRANCH  33  36
ATOM     36  C   UNL     1     -15.960  -3.900   6.735  0.00  0.00    +0.000 C 
ATOM     37  F   UNL     1     -14.760  -3.333   6.446  0.00  0.00    +0.000 F 
ATOM     38  F   UNL     1     -16.104  -3.850   8.083  0.00  0.00    +0.000 F 
ATOM     39  F   UNL     1     -16.914  -3.089   6.208  0.00  0.00    +0.000 F 
ENDBRANCH  33  36
ENDBRANCH  32  33
ENDBRANCH  30  31
ENDBRANCH  28  30
ENDBRANCH  27  28
ENDBRANCH  25  26
ENDBRANCH  23  24
ENDBRANCH  22  23
ENDBRANCH  20  21
ENDBRANCH   8  19
BRANCH   6  40
ATOM     40  O   UNL     1      -9.708   5.098  18.812  0.00  0.00    +0.000 OA
ATOM     41  H   UNL     1     -10.026   4.548  19.550  0.00  0.00    +0.000 HD
ENDBRANCH   6  40
BRANCH  18  42
ATOM     42  O   UNL     1       0.559   5.778  15.685  0.00  0.00    +0.000 OA
ATOM     43  H   UNL     1       0.916   6.329  16.404  0.00  0.00    +0.000 HD
ENDBRANCH  18  42
TORSDOF 12
ENDMDL
MODEL 7
REMARK VINA RESULT:      -5.3      1.530      2.171
REMARK  Name = Fulvestrant.pdbqt.pdb
REMARK  12 active torsions:
REMARK  status: ('A' for Active; 'I' for Inactive)
REMARK    1  A    between atoms: C_6  and  O_40
REMARK    2  A    between atoms: C_8  and  C_19
REMARK    3  A    between atoms: C_18  and  O_42
REMARK    4  A    between atoms: C_20  and  C_21
REMARK    5  A    between atoms: C_22  and  C_23
REMARK    6  A    between atoms: C_23  and  C_24
REMARK    7  A    between atoms: C_25  and  C_26
REMARK    8  A    between atoms: C_27  and  S_28
REMARK    9  A    between atoms: S_28  and  C_30
REMARK   10  A    between atoms: C_30  and  C_31
REMARK   11  A    between atoms: C_32  and  C_33
REMARK   12  A    between atoms: C_33  and  C_36
REMARK                            x       y       z     vdW  Elec       q    Type
REMARK                         _______ _______ _______ _____ _____    ______ ____
ROOT
ATOM      1  C   UNL     1      -6.459   5.420  16.811  0.00  0.00    +0.000 C 
ATOM      2  C   UNL     1      -6.128   4.028  16.086  0.00  0.00    +0.000 C 
ATOM      3  C   UNL     1      -7.724   5.682  17.571  0.00  0.00    +0.000 A 
ATOM      4  C   UNL     1      -8.619   4.526  18.066  0.00  0.00    +0.000 A 
ATOM      5  C   UNL     1      -6.985   3.034  16.724  0.00  0.00    +0.000 C 
ATOM      6  C   UNL     1      -4.626   3.830  16.391  0.00  0.00    +0.000 C 
ATOM      7  C   UNL     1      -5.217   5.930  17.309  0.00  0.00    +0.000 C 
ATOM      8  C   UNL     1      -8.172   7.060  17.903  0.00  0.00    +0.000 A 
ATOM      9  C   UNL     1      -8.156   3.258  17.640  0.00  0.00    +0.000 C 
ATOM     10  C   UNL     1      -4.093   4.954  17.078  0.00  0.00    +0.000 C 
ATOM     11  C   UNL     1      -6.361   4.192  14.563  0.00  0.00    +0.000 C 
ATOM     12  C   UNL     1      -9.863   4.730  18.860  0.00  0.00    +0.000 A 
ATOM     13  C   UNL     1      -9.364   7.039  18.667  0.00  0.00    +0.000 A 
ATOM     14  C   UNL     1     -10.249   6.054  19.175  0.00  0.00    +0.000 A 
ATOM     15  C   UNL     1     -10.660   3.677  19.303  0.00  0.00    +0.000 A 
ATOM     16  C   UNL     1     -11.391   6.337  19.906  0.00  0.00    +0.000 A 
ATOM     17  C   UNL     1     -11.814   3.946  20.042  0.00  0.00    +0.000 A 
ATOM     18  C   UNL     1     -12.167   5.264  20.334  0.00  0.00    +0.000 A 
ENDROOT
BRANCH   8  19
ATOM     19  C   UNL     1      -7.583   8.228  17.363  0.00  0.00    +0.000 C 
ATOM     20  C   UNL     1      -6.933   9.480  16.765  0.00  0.00    +0.000 C 
BRANCH  20  21
ATOM     21  C   UNL     1      -6.266  10.714  16.151  0.00  0.00    +0.000 C 
ATOM     22  C   UNL     1      -5.621  11.967  15.550  0.00  0.00    +0.000 C 
BRANCH  22  23
ATOM     23  C   UNL     1      -5.002  13.239  14.963  0.00  0.00    +0.000 C 
BRANCH  23  24
ATOM     24  C   UNL     1      -4.415  14.526  14.375  0.00  0.00    +0.000 C 
ATOM     25  C   UNL     1      -3.860  15.829  13.790  0.00  0.00    +0.000 C 
BRANCH  25  26
ATOM     26  C   UNL     1      -3.338  17.145  13.205  0.00  0.00    +0.000 C 
ATOM     27  C   UNL     1      -2.796  18.442  12.595  0.00  0.00    +0.000 C 
BRANCH  27  28
ATOM     28  S   UNL     1      -2.151  19.913  11.875  0.00  0.00    +0.000 S 
ATOM     29  O   UNL     1      -0.742  19.533  12.222  0.00  0.00    +0.000 OA
BRANCH  28  30
ATOM     30  C   UNL     1      -2.014  19.203  10.270  0.00  0.00    +0.000 C 
BRANCH  30  31
ATOM     31  C   UNL     1      -1.883  18.565   8.882  0.00  0.00    +0.000 C 
ATOM     32  C   UNL     1      -1.755  17.945   7.486  0.00  0.00    +0.000 C 
BRANCH  32  33
ATOM     33  C   UNL     1      -1.636  17.360   6.148  0.00  0.00    +0.000 C 
ATOM     34  F   UNL     1      -0.657  16.413   6.190  0.00  0.00    +0.000 F 
ATOM     35  F   UNL     1      -1.179  18.332   5.309  0.00  0.00    +0.000 F 
BRANCH  33  36
ATOM     36  C   UNL     1      -2.948  16.765   5.627  0.00  0.00    +0.000 C 
ATOM     37  F   UNL     1      -3.848  17.727   5.297  0.00  0.00    +0.000 F 
ATOM     38  F   UNL     1      -3.545  15.963   6.543  0.00  0.00    +0.000 F 
ATOM     39  F   UNL     1      -2.753  16.013   4.514  0.00  0.00    +0.000 F 
ENDBRANCH  33  36
ENDBRANCH  32  33
ENDBRANCH  30  31
ENDBRANCH  28  30
ENDBRANCH  27  28
ENDBRANCH  25  26
ENDBRANCH  23  24
ENDBRANCH  22  23
ENDBRANCH  20  21
ENDBRANCH   8  19
BRANCH   6  40
ATOM     40  O   UNL     1      -4.033   2.586  16.444  0.00  0.00    +0.000 OA
ATOM     41  H   UNL     1      -3.127   2.632  16.799  0.00  0.00    +0.000 HD
ENDBRANCH   6  40
BRANCH  18  42
ATOM     42  O   UNL     1     -13.306   5.478  21.059  0.00  0.00    +0.000 OA
ATOM     43  H   UNL     1     -14.063   5.483  20.447  0.00  0.00    +0.000 HD
ENDBRANCH  18  42
TORSDOF 12
ENDMDL
MODEL 8
REMARK VINA RESULT:      -4.9      6.384      9.365
REMARK  Name = Fulvestrant.pdbqt.pdb
REMARK  12 active torsions:
REMARK  status: ('A' for Active; 'I' for Inactive)
REMARK    1  A    between atoms: C_6  and  O_40
REMARK    2  A    between atoms: C_8  and  C_19
REMARK    3  A    between atoms: C_18  and  O_42
REMARK    4  A    between atoms: C_20  and  C_21
REMARK    5  A    between atoms: C_22  and  C_23
REMARK    6  A    between atoms: C_23  and  C_24
REMARK    7  A    between atoms: C_25  and  C_26
REMARK    8  A    between atoms: C_27  and  S_28
REMARK    9  A    between atoms: S_28  and  C_30
REMARK   10  A    between atoms: C_30  and  C_31
REMARK   11  A    between atoms: C_32  and  C_33
REMARK   12  A    between atoms: C_33  and  C_36
REMARK                            x       y       z     vdW  Elec       q    Type
REMARK                         _______ _______ _______ _____ _____    ______ ____
ROOT
ATOM      1  C   UNL     1      -5.765  -1.346  17.333  0.00  0.00    +0.000 C 
ATOM      2  C   UNL     1      -5.476  -2.505  18.404  0.00  0.00    +0.000 C 
ATOM      3  C   UNL     1      -6.221  -1.605  15.929  0.00  0.00    +0.000 A 
ATOM      4  C   UNL     1      -6.839  -2.960  15.522  0.00  0.00    +0.000 A 
ATOM      5  C   UNL     1      -6.195  -3.679  17.922  0.00  0.00    +0.000 C 
ATOM      6  C   UNL     1      -6.058  -1.920  19.710  0.00  0.00    +0.000 C 
ATOM      7  C   UNL     1      -6.312  -0.241  18.062  0.00  0.00    +0.000 C 
ATOM      8  C   UNL     1      -6.120  -0.572  14.865  0.00  0.00    +0.000 A 
ATOM      9  C   UNL     1      -6.825  -3.904  16.576  0.00  0.00    +0.000 C 
ATOM     10  C   UNL     1      -6.518  -0.591  19.513  0.00  0.00    +0.000 C 
ATOM     11  C   UNL     1      -3.943  -2.699  18.526  0.00  0.00    +0.000 C 
ATOM     12  C   UNL     1      -7.346  -3.254  14.152  0.00  0.00    +0.000 A 
ATOM     13  C   UNL     1      -6.662  -1.041  13.645  0.00  0.00    +0.000 A 
ATOM     14  C   UNL     1      -7.252  -2.240  13.169  0.00  0.00    +0.000 A 
ATOM     15  C   UNL     1      -7.904  -4.480  13.798  0.00  0.00    +0.000 A 
ATOM     16  C   UNL     1      -7.695  -2.428  11.870  0.00  0.00    +0.000 A 
ATOM     17  C   UNL     1      -8.356  -4.684  12.493  0.00  0.00    +0.000 A 
ATOM     18  C   UNL     1      -8.248  -3.663  11.547  0.00  0.00    +0.000 A 
ENDROOT
BRANCH   8  19
ATOM     19  C   UNL     1      -5.406   0.641  15.015  0.00  0.00    +0.000 C 
ATOM     20  C   UNL     1      -4.621   1.949  15.160  0.00  0.00    +0.000 C 
BRANCH  20  21
ATOM     21  C   UNL     1      -3.820   3.247  15.283  0.00  0.00    +0.000 C 
ATOM     22  C   UNL     1      -3.008   4.544  15.375  0.00  0.00    +0.000 C 
BRANCH  22  23
ATOM     23  C   UNL     1      -2.186   5.834  15.435  0.00  0.00    +0.000 C 
BRANCH  23  24
ATOM     24  C   UNL     1      -1.358   7.124  15.460  0.00  0.00    +0.000 C 
ATOM     25  C   UNL     1      -0.561   8.431  15.483  0.00  0.00    +0.000 C 
BRANCH  25  26
ATOM     26  C   UNL     1       0.206   9.758  15.501  0.00  0.00    +0.000 C 
ATOM     27  C   UNL     1       0.967  11.087  15.482  0.00  0.00    +0.000 C 
BRANCH  27  28
ATOM     28  S   UNL     1       1.838  12.616  15.425  0.00  0.00    +0.000 S 
ATOM     29  O   UNL     1       2.458  12.279  14.101  0.00  0.00    +0.000 OA
BRANCH  28  30
ATOM     30  C   UNL     1       0.509  13.476  14.655  0.00  0.00    +0.000 C 
BRANCH  30  31
ATOM     31  C   UNL     1      -0.632  14.238  13.972  0.00  0.00    +0.000 C 
ATOM     32  C   UNL     1      -1.772  15.015  13.302  0.00  0.00    +0.000 C 
BRANCH  32  33
ATOM     33  C   UNL     1      -2.862  15.763  12.670  0.00  0.00    +0.000 C 
ATOM     34  F   UNL     1      -2.511  17.080  12.651  0.00  0.00    +0.000 F 
ATOM     35  F   UNL     1      -3.951  15.678  13.483  0.00  0.00    +0.000 F 
BRANCH  33  36
ATOM     36  C   UNL     1      -3.197  15.269  11.259  0.00  0.00    +0.000 C 
ATOM     37  F   UNL     1      -3.052  13.923  11.143  0.00  0.00    +0.000 F 
ATOM     38  F   UNL     1      -2.401  15.833  10.316  0.00  0.00    +0.000 F 
ATOM     39  F   UNL     1      -4.478  15.556  10.915  0.00  0.00    +0.000 F 
ENDBRANCH  33  36
ENDBRANCH  32  33
ENDBRANCH  30  31
ENDBRANCH  28  30
ENDBRANCH  27  28
ENDBRANCH  25  26
ENDBRANCH  23  24
ENDBRANCH  22  23
ENDBRANCH  20  21
ENDBRANCH   8  19
BRANCH   6  40
ATOM     40  O   UNL     1      -6.516  -2.711  20.743  0.00  0.00    +0.000 OA
ATOM     41  H   UNL     1      -6.446  -3.659  20.531  0.00  0.00    +0.000 HD
ENDBRANCH   6  40
BRANCH  18  42
ATOM     42  O   UNL     1      -8.703  -3.910  10.282  0.00  0.00    +0.000 OA
ATOM     43  H   UNL     1      -8.001  -3.670   9.651  0.00  0.00    +0.000 HD
ENDBRANCH  18  42
TORSDOF 12
ENDMDL
MODEL 9
REMARK VINA RESULT:      -4.8     20.394     23.031
REMARK  Name = Fulvestrant.pdbqt.pdb
REMARK  12 active torsions:
REMARK  status: ('A' for Active; 'I' for Inactive)
REMARK    1  A    between atoms: C_6  and  O_40
REMARK    2  A    between atoms: C_8  and  C_19
REMARK    3  A    between atoms: C_18  and  O_42
REMARK    4  A    between atoms: C_20  and  C_21
REMARK    5  A    between atoms: C_22  and  C_23
REMARK    6  A    between atoms: C_23  and  C_24
REMARK    7  A    between atoms: C_25  and  C_26
REMARK    8  A    between atoms: C_27  and  S_28
REMARK    9  A    between atoms: S_28  and  C_30
REMARK   10  A    between atoms: C_30  and  C_31
REMARK   11  A    between atoms: C_32  and  C_33
REMARK   12  A    between atoms: C_33  and  C_36
REMARK                            x       y       z     vdW  Elec       q    Type
REMARK                         _______ _______ _______ _____ _____    ______ ____
ROOT
ATOM      1  C   UNL     1     -23.273  21.483  26.842  0.00  0.00    +0.000 C 
ATOM      2  C   UNL     1     -22.919  20.234  27.786  0.00  0.00    +0.000 C 
ATOM      3  C   UNL     1     -24.175  22.606  27.252  0.00  0.00    +0.000 A 
ATOM      4  C   UNL     1     -24.509  22.869  28.735  0.00  0.00    +0.000 A 
ATOM      5  C   UNL     1     -23.204  20.673  29.148  0.00  0.00    +0.000 C 
ATOM      6  C   UNL     1     -21.414  20.013  27.514  0.00  0.00    +0.000 C 
ATOM      7  C   UNL     1     -22.095  21.765  26.076  0.00  0.00    +0.000 C 
ATOM      8  C   UNL     1     -24.779  23.534  26.258  0.00  0.00    +0.000 A 
ATOM      9  C   UNL     1     -23.955  21.895  29.599  0.00  0.00    +0.000 C 
ATOM     10  C   UNL     1     -20.946  20.886  26.496  0.00  0.00    +0.000 C 
ATOM     11  C   UNL     1     -23.747  19.009  27.321  0.00  0.00    +0.000 C 
ATOM     12  C   UNL     1     -25.367  23.996  29.199  0.00  0.00    +0.000 A 
ATOM     13  C   UNL     1     -25.548  24.536  26.898  0.00  0.00    +0.000 A 
ATOM     14  C   UNL     1     -25.909  24.871  28.228  0.00  0.00    +0.000 A 
ATOM     15  C   UNL     1     -25.658  24.224  30.542  0.00  0.00    +0.000 A 
ATOM     16  C   UNL     1     -26.718  25.943  28.568  0.00  0.00    +0.000 A 
ATOM     17  C   UNL     1     -26.472  25.300  30.901  0.00  0.00    +0.000 A 
ATOM     18  C   UNL     1     -26.992  26.144  29.918  0.00  0.00    +0.000 A 
ENDROOT
BRANCH   8  19
ATOM     19  C   UNL     1     -24.738  23.320  24.860  0.00  0.00    +0.000 C 
ATOM     20  C   UNL     1     -24.686  23.069  23.350  0.00  0.00    +0.000 C 
BRANCH  20  21
ATOM     21  C   UNL     1     -24.620  22.792  21.845  0.00  0.00    +0.000 C 
ATOM     22  C   UNL     1     -24.553  22.547  20.334  0.00  0.00    +0.000 C 
BRANCH  22  23
ATOM     23  C   UNL     1     -24.488  22.336  18.819  0.00  0.00    +0.000 C 
BRANCH  23  24
ATOM     24  C   UNL     1     -24.431  22.159  17.298  0.00  0.00    +0.000 C 
ATOM     25  C   UNL     1     -24.364  22.016  15.774  0.00  0.00    +0.000 C 
BRANCH  25  26
ATOM     26  C   UNL     1     -24.291  21.908  14.248  0.00  0.00    +0.000 C 
ATOM     27  C   UNL     1     -24.255  21.800  12.720  0.00  0.00    +0.000 C 
BRANCH  27  28
ATOM     28  S   UNL     1     -24.248  21.671  10.965  0.00  0.00    +0.000 S 
ATOM     29  O   UNL     1     -22.906  22.334  10.864  0.00  0.00    +0.000 OA
BRANCH  28  30
ATOM     30  C   UNL     1     -23.524  20.066  10.971  0.00  0.00    +0.000 C 
BRANCH  30  31
ATOM     31  C   UNL     1     -22.880  18.675  10.996  0.00  0.00    +0.000 C 
ATOM     32  C   UNL     1     -22.228  17.289  11.037  0.00  0.00    +0.000 C 
BRANCH  32  33
ATOM     33  C   UNL     1     -21.600  15.965  11.085  0.00  0.00    +0.000 C 
ATOM     34  F   UNL     1     -22.549  15.064  11.464  0.00  0.00    +0.000 F 
ATOM     35  F   UNL     1     -20.677  15.979  12.087  0.00  0.00    +0.000 F 
BRANCH  33  36
ATOM     36  C   UNL     1     -20.956  15.552   9.758  0.00  0.00    +0.000 C 
ATOM     37  F   UNL     1     -19.603  15.475   9.851  0.00  0.00    +0.000 F 
ATOM     38  F   UNL     1     -21.232  16.428   8.760  0.00  0.00    +0.000 F 
ATOM     39  F   UNL     1     -21.390  14.334   9.344  0.00  0.00    +0.000 F 
ENDBRANCH  33  36
ENDBRANCH  32  33
ENDBRANCH  30  31
ENDBRANCH  28  30
ENDBRANCH  27  28
ENDBRANCH  25  26
ENDBRANCH  23  24
ENDBRANCH  22  23
ENDBRANCH  20  21
ENDBRANCH   8  19
BRANCH   6  40
ATOM     40  O   UNL     1     -20.567  19.435  28.436  0.00  0.00    +0.000 OA
ATOM     41  H   UNL     1     -19.754  19.958  28.557  0.00  0.00    +0.000 HD
ENDBRANCH   6  40
BRANCH  18  42
ATOM     42  O   UNL     1     -27.783  27.183  30.317  0.00  0.00    +0.000 OA
ATOM     43  H   UNL     1     -27.684  27.293  31.279  0.00  0.00    +0.000 HD
ENDBRANCH  18  42
TORSDOF 12
ENDMDL
