MODEL 1
REMARK VINA RESULT:      -5.5      0.000      0.000
REMARK  Name = Gefitinib.pdbqt.pdb
REMARK  6 active torsions:
REMARK  status: ('A' for Active; 'I' for Inactive)
REMARK    1  A    between atoms: C_3  and  O_11
REMARK    2  A    between atoms: C_6  and  O_21
REMARK    3  A    between atoms: O_11  and  C_12
REMARK    4  A    between atoms: C_13  and  C_14
REMARK    5  A    between atoms: C_14  and  N_15
REMARK    6  A    between atoms: N_23  and  C_25
REMARK                            x       y       z     vdW  Elec       q    Type
REMARK                         _______ _______ _______ _____ _____    ______ ____
ROOT
ATOM      1  N   UNL     1     -17.816  13.831  -5.457  0.00  0.00    +0.000 NA
ATOM      2  N   UNL     1     -17.002  11.893  -4.335  0.00  0.00    +0.000 NA
ATOM      3  C   UNL     1     -14.092  15.663  -5.172  0.00  0.00    +0.000 A 
ATOM      4  C   UNL     1     -15.533  13.734  -4.751  0.00  0.00    +0.000 A 
ATOM      5  C   UNL     1     -14.287  14.379  -4.663  0.00  0.00    +0.000 A 
ATOM      6  C   UNL     1     -15.161  16.315  -5.787  0.00  0.00    +0.000 A 
ATOM      7  C   UNL     1     -16.609  14.388  -5.356  0.00  0.00    +0.000 A 
ATOM      8  C   UNL     1     -16.398  15.663  -5.864  0.00  0.00    +0.000 A 
ATOM      9  C   UNL     1     -15.784  12.449  -4.250  0.00  0.00    +0.000 A 
ATOM     10  C   UNL     1     -17.962  12.606  -4.936  0.00  0.00    +0.000 A 
ATOM     11  N   UNL     1     -14.734  11.746  -3.605  0.00  0.00    +0.000 N 
ATOM     12  H   UNL     1     -13.875  11.796  -4.143  0.00  0.00    +0.000 HD
ENDROOT
BRANCH  11  13
ATOM     13  C   UNL     1     -14.821  10.547  -2.863  0.00  0.00    +0.000 A 
ATOM     14  C   UNL     1     -15.039  10.620  -1.482  0.00  0.00    +0.000 A 
ATOM     15  C   UNL     1     -15.236   9.466  -0.726  0.00  0.00    +0.000 A 
ATOM     16 CL   UNL     1     -15.466   9.617   0.970  0.00  0.00    +0.000 Cl
ATOM     17  C   UNL     1     -15.246   8.224  -1.350  0.00  0.00    +0.000 A 
ATOM     18  F   UNL     1     -15.434   7.102  -0.639  0.00  0.00    +0.000 F 
ATOM     19  C   UNL     1     -15.071   8.127  -2.724  0.00  0.00    +0.000 A 
ATOM     20  C   UNL     1     -14.878   9.288  -3.470  0.00  0.00    +0.000 A 
ENDBRANCH  11  13
BRANCH   6  21
ATOM     21  O   UNL     1     -14.926  17.579  -6.275  0.00  0.00    +0.000 OA
ATOM     22  C   UNL     1     -15.888  18.543  -5.951  0.00  0.00    +0.000 C 
ENDBRANCH   6  21
BRANCH   3  23
ATOM     23  O   UNL     1     -12.890  16.326  -5.106  0.00  0.00    +0.000 OA
BRANCH  23  24
ATOM     24  C   UNL     1     -11.822  15.536  -5.030  0.00  0.00    +0.000 C 
ATOM     25  C   UNL     1     -10.599  14.618  -4.929  0.00  0.00    +0.000 C 
BRANCH  25  26
ATOM     26  C   UNL     1      -9.391  13.683  -4.800  0.00  0.00    +0.000 C 
BRANCH  26  27
ATOM     27  N   UNL     1      -8.241  12.800  -4.665  0.00  0.00    +0.000 N 
ATOM     28  C   UNL     1      -7.080  13.513  -5.278  0.00  0.00    +0.000 C 
ATOM     29  C   UNL     1      -5.830  14.137  -4.575  0.00  0.00    +0.000 C 
ATOM     30  O   UNL     1      -5.415  14.240  -3.293  0.00  0.00    +0.000 OA
ATOM     31  C   UNL     1      -6.462  13.598  -2.740  0.00  0.00    +0.000 C 
ATOM     32  C   UNL     1      -7.770  12.922  -3.253  0.00  0.00    +0.000 C 
ENDBRANCH  26  27
ENDBRANCH  25  26
ENDBRANCH  23  24
ENDBRANCH   3  23
TORSDOF 6
ENDMDL
MODEL 2
REMARK VINA RESULT:      -5.3     13.011     15.515
REMARK  Name = Gefitinib.pdbqt.pdb
REMARK  6 active torsions:
REMARK  status: ('A' for Active; 'I' for Inactive)
REMARK    1  A    between atoms: C_3  and  O_11
REMARK    2  A    between atoms: C_6  and  O_21
REMARK    3  A    between atoms: O_11  and  C_12
REMARK    4  A    between atoms: C_13  and  C_14
REMARK    5  A    between atoms: C_14  and  N_15
REMARK    6  A    between atoms: N_23  and  C_25
REMARK                            x       y       z     vdW  Elec       q    Type
REMARK                         _______ _______ _______ _____ _____    ______ ____
ROOT
ATOM      1  N   UNL     1      -6.802  22.333   9.995  0.00  0.00    +0.000 NA
ATOM      2  N   UNL     1      -5.910  20.179  10.483  0.00  0.00    +0.000 NA
ATOM      3  C   UNL     1      -7.161  21.367   5.965  0.00  0.00    +0.000 A 
ATOM      4  C   UNL     1      -6.537  20.730   8.241  0.00  0.00    +0.000 A 
ATOM      5  C   UNL     1      -6.662  20.432   6.873  0.00  0.00    +0.000 A 
ATOM      6  C   UNL     1      -7.545  22.623   6.433  0.00  0.00    +0.000 A 
ATOM      7  C   UNL     1      -6.911  21.991   8.711  0.00  0.00    +0.000 A 
ATOM      8  C   UNL     1      -7.410  22.909   7.797  0.00  0.00    +0.000 A 
ATOM      9  C   UNL     1      -6.037  19.830   9.193  0.00  0.00    +0.000 A 
ATOM     10  C   UNL     1      -6.300  21.412  10.826  0.00  0.00    +0.000 A 
ATOM     11  N   UNL     1      -5.620  18.542   8.769  0.00  0.00    +0.000 N 
ATOM     12  H   UNL     1      -6.307  18.120   8.153  0.00  0.00    +0.000 HD
ENDROOT
BRANCH  11  13
ATOM     13  C   UNL     1      -4.911  17.572   9.512  0.00  0.00    +0.000 A 
ATOM     14  C   UNL     1      -5.608  16.787  10.438  0.00  0.00    +0.000 A 
ATOM     15  C   UNL     1      -4.974  15.749  11.117  0.00  0.00    +0.000 A 
ATOM     16 CL   UNL     1      -5.872  14.842  12.267  0.00  0.00    +0.000 Cl
ATOM     17  C   UNL     1      -3.639  15.464  10.855  0.00  0.00    +0.000 A 
ATOM     18  F   UNL     1      -3.012  14.469  11.498  0.00  0.00    +0.000 F 
ATOM     19  C   UNL     1      -2.936  16.203   9.912  0.00  0.00    +0.000 A 
ATOM     20  C   UNL     1      -3.580  17.237   9.237  0.00  0.00    +0.000 A 
ENDBRANCH  11  13
BRANCH   6  21
ATOM     21  O   UNL     1      -8.030  23.515   5.505  0.00  0.00    +0.000 OA
ATOM     22  C   UNL     1      -9.319  24.003   5.748  0.00  0.00    +0.000 C 
ENDBRANCH   6  21
BRANCH   3  23
ATOM     23  O   UNL     1      -7.299  21.114   4.621  0.00  0.00    +0.000 OA
BRANCH  23  24
ATOM     24  C   UNL     1      -6.331  20.368   4.093  0.00  0.00    +0.000 C 
ATOM     25  C   UNL     1      -5.206  19.525   3.483  0.00  0.00    +0.000 C 
BRANCH  25  26
ATOM     26  C   UNL     1      -4.061  18.711   2.871  0.00  0.00    +0.000 C 
BRANCH  26  27
ATOM     27  N   UNL     1      -2.980  17.925   2.294  0.00  0.00    +0.000 N 
ATOM     28  C   UNL     1      -2.418  17.092   3.401  0.00  0.00    +0.000 C 
ATOM     29  C   UNL     1      -2.520  15.546   3.613  0.00  0.00    +0.000 C 
ATOM     30  O   UNL     1      -3.102  14.531   2.937  0.00  0.00    +0.000 OA
ATOM     31  C   UNL     1      -3.610  15.282   1.939  0.00  0.00    +0.000 C 
ATOM     32  C   UNL     1      -3.618  16.793   1.557  0.00  0.00    +0.000 C 
ENDBRANCH  26  27
ENDBRANCH  25  26
ENDBRANCH  23  24
ENDBRANCH   3  23
TORSDOF 6
ENDMDL
MODEL 3
REMARK VINA RESULT:      -5.2     11.381     14.664
REMARK  Name = Gefitinib.pdbqt.pdb
REMARK  6 active torsions:
REMARK  status: ('A' for Active; 'I' for Inactive)
REMARK    1  A    between atoms: C_3  and  O_11
REMARK    2  A    between atoms: C_6  and  O_21
REMARK    3  A    between atoms: O_11  and  C_12
REMARK    4  A    between atoms: C_13  and  C_14
REMARK    5  A    between atoms: C_14  and  N_15
REMARK    6  A    between atoms: N_23  and  C_25
REMARK                            x       y       z     vdW  Elec       q    Type
REMARK                         _______ _______ _______ _____ _____    ______ ____
ROOT
ATOM      1  N   UNL     1      -5.664  17.936  -0.717  0.00  0.00    +0.000 NA
ATOM      2  N   UNL     1      -6.113  19.731   0.785  0.00  0.00    +0.000 NA
ATOM      3  C   UNL     1      -4.140  15.614   2.380  0.00  0.00    +0.000 A 
ATOM      4  C   UNL     1      -5.153  17.700   1.608  0.00  0.00    +0.000 A 
ATOM      5  C   UNL     1      -4.627  16.896   2.634  0.00  0.00    +0.000 A 
ATOM      6  C   UNL     1      -4.183  15.122   1.075  0.00  0.00    +0.000 A 
ATOM      7  C   UNL     1      -5.188  17.215   0.298  0.00  0.00    +0.000 A 
ATOM      8  C   UNL     1      -4.705  15.935   0.061  0.00  0.00    +0.000 A 
ATOM      9  C   UNL     1      -5.649  18.996   1.808  0.00  0.00    +0.000 A 
ATOM     10  C   UNL     1      -6.102  19.169  -0.429  0.00  0.00    +0.000 A 
ATOM     11  N   UNL     1      -5.618  19.550   3.114  0.00  0.00    +0.000 N 
ATOM     12  H   UNL     1      -5.964  18.886   3.801  0.00  0.00    +0.000 HD
ENDROOT
BRANCH  11  13
ATOM     13  C   UNL     1      -5.874  20.885   3.496  0.00  0.00    +0.000 A 
ATOM     14  C   UNL     1      -7.136  21.215   4.003  0.00  0.00    +0.000 A 
ATOM     15  C   UNL     1      -7.402  22.492   4.489  0.00  0.00    +0.000 A 
ATOM     16 CL   UNL     1      -8.980  22.847   5.068  0.00  0.00    +0.000 Cl
ATOM     17  C   UNL     1      -6.395  23.451   4.501  0.00  0.00    +0.000 A 
ATOM     18  F   UNL     1      -6.631  24.687   4.965  0.00  0.00    +0.000 F 
ATOM     19  C   UNL     1      -5.123  23.139   4.039  0.00  0.00    +0.000 A 
ATOM     20  C   UNL     1      -4.868  21.856   3.558  0.00  0.00    +0.000 A 
ENDBRANCH  11  13
BRANCH   6  21
ATOM     21  O   UNL     1      -3.692  13.854   0.868  0.00  0.00    +0.000 OA
ATOM     22  C   UNL     1      -2.703  13.740  -0.116  0.00  0.00    +0.000 C 
ENDBRANCH   6  21
BRANCH   3  23
ATOM     23  O   UNL     1      -3.619  14.798   3.355  0.00  0.00    +0.000 OA
BRANCH  23  24
ATOM     24  C   UNL     1      -3.514  15.363   4.556  0.00  0.00    +0.000 C 
ATOM     25  C   UNL     1      -3.400  16.029   5.931  0.00  0.00    +0.000 C 
BRANCH  25  26
ATOM     26  C   UNL     1      -3.301  16.724   7.293  0.00  0.00    +0.000 C 
BRANCH  26  27
ATOM     27  N   UNL     1      -3.222  17.383   8.590  0.00  0.00    +0.000 N 
ATOM     28  C   UNL     1      -4.423  18.266   8.695  0.00  0.00    +0.000 C 
ATOM     29  C   UNL     1      -5.680  18.106   9.610  0.00  0.00    +0.000 C 
ATOM     30  O   UNL     1      -6.077  17.197  10.528  0.00  0.00    +0.000 OA
ATOM     31  C   UNL     1      -4.994  16.400  10.433  0.00  0.00    +0.000 C 
ATOM     32  C   UNL     1      -3.674  16.385   9.606  0.00  0.00    +0.000 C 
ENDBRANCH  26  27
ENDBRANCH  25  26
ENDBRANCH  23  24
ENDBRANCH   3  23
TORSDOF 6
ENDMDL
MODEL 4
REMARK VINA RESULT:      -5.2     12.396     15.232
REMARK  Name = Gefitinib.pdbqt.pdb
REMARK  6 active torsions:
REMARK  status: ('A' for Active; 'I' for Inactive)
REMARK    1  A    between atoms: C_3  and  O_11
REMARK    2  A    between atoms: C_6  and  O_21
REMARK    3  A    between atoms: O_11  and  C_12
REMARK    4  A    between atoms: C_13  and  C_14
REMARK    5  A    between atoms: C_14  and  N_15
REMARK    6  A    between atoms: N_23  and  C_25
REMARK                            x       y       z     vdW  Elec       q    Type
REMARK                         _______ _______ _______ _____ _____    ______ ____
ROOT
ATOM      1  N   UNL     1      -1.274   1.386   3.345  0.00  0.00    +0.000 NA
ATOM      2  N   UNL     1      -3.533   0.766   2.907  0.00  0.00    +0.000 NA
ATOM      3  C   UNL     1      -2.145   5.391   2.629  0.00  0.00    +0.000 A 
ATOM      4  C   UNL     1      -2.881   3.065   2.779  0.00  0.00    +0.000 A 
ATOM      5  C   UNL     1      -3.146   4.424   2.537  0.00  0.00    +0.000 A 
ATOM      6  C   UNL     1      -0.853   4.993   2.976  0.00  0.00    +0.000 A 
ATOM      7  C   UNL     1      -1.587   2.662   3.116  0.00  0.00    +0.000 A 
ATOM      8  C   UNL     1      -0.601   3.636   3.210  0.00  0.00    +0.000 A 
ATOM      9  C   UNL     1      -3.849   2.054   2.694  0.00  0.00    +0.000 A 
ATOM     10  C   UNL     1      -2.262   0.491   3.224  0.00  0.00    +0.000 A 
ATOM     11  N   UNL     1      -5.176   2.401   2.334  0.00  0.00    +0.000 N 
ATOM     12  H   UNL     1      -5.498   3.209   2.858  0.00  0.00    +0.000 HD
ENDROOT
BRANCH  11  13
ATOM     13  C   UNL     1      -6.239   1.533   1.998  0.00  0.00    +0.000 A 
ATOM     14  C   UNL     1      -7.377   1.509   2.813  0.00  0.00    +0.000 A 
ATOM     15  C   UNL     1      -8.491   0.749   2.465  0.00  0.00    +0.000 A 
ATOM     16 CL   UNL     1      -9.845   0.734   3.522  0.00  0.00    +0.000 Cl
ATOM     17  C   UNL     1      -8.491   0.024   1.279  0.00  0.00    +0.000 A 
ATOM     18  F   UNL     1      -9.554  -0.714   0.927  0.00  0.00    +0.000 F 
ATOM     19  C   UNL     1      -7.390   0.061   0.434  0.00  0.00    +0.000 A 
ATOM     20  C   UNL     1      -6.282   0.827   0.790  0.00  0.00    +0.000 A 
ENDBRANCH  11  13
BRANCH   6  21
ATOM     21  O   UNL     1       0.104   5.977   3.055  0.00  0.00    +0.000 OA
ATOM     22  C   UNL     1       0.573   6.265   4.342  0.00  0.00    +0.000 C 
ENDBRANCH   6  21
BRANCH   3  23
ATOM     23  O   UNL     1      -2.364   6.728   2.400  0.00  0.00    +0.000 OA
BRANCH  23  24
ATOM     24  C   UNL     1      -2.597   7.043   1.128  0.00  0.00    +0.000 C 
ATOM     25  C   UNL     1      -2.878   7.394  -0.337  0.00  0.00    +0.000 C 
BRANCH  25  26
ATOM     26  C   UNL     1      -3.188   7.724  -1.801  0.00  0.00    +0.000 C 
BRANCH  26  27
ATOM     27  N   UNL     1      -3.478   8.050  -3.190  0.00  0.00    +0.000 N 
ATOM     28  C   UNL     1      -2.184   8.475  -3.808  0.00  0.00    +0.000 C 
ATOM     29  C   UNL     1      -1.314   7.729  -4.871  0.00  0.00    +0.000 C 
ATOM     30  O   UNL     1      -1.419   6.553  -5.528  0.00  0.00    +0.000 OA
ATOM     31  C   UNL     1      -2.585   6.169  -4.971  0.00  0.00    +0.000 C 
ATOM     32  C   UNL     1      -3.580   6.753  -3.923  0.00  0.00    +0.000 C 
ENDBRANCH  26  27
ENDBRANCH  25  26
ENDBRANCH  23  24
ENDBRANCH   3  23
TORSDOF 6
ENDMDL
MODEL 5
REMARK VINA RESULT:      -5.1      2.403      2.875
REMARK  Name = Gefitinib.pdbqt.pdb
REMARK  6 active torsions:
REMARK  status: ('A' for Active; 'I' for Inactive)
REMARK    1  A    between atoms: C_3  and  O_11
REMARK    2  A    between atoms: C_6  and  O_21
REMARK    3  A    between atoms: O_11  and  C_12
REMARK    4  A    between atoms: C_13  and  C_14
REMARK    5  A    between atoms: C_14  and  N_15
REMARK    6  A    between atoms: N_23  and  C_25
REMARK                            x       y       z     vdW  Elec       q    Type
REMARK                         _______ _______ _______ _____ _____    ______ ____
ROOT
ATOM      1  N   UNL     1     -16.559  13.102  -5.737  0.00  0.00    +0.000 NA
ATOM      2  N   UNL     1     -16.662  11.665  -3.838  0.00  0.00    +0.000 NA
ATOM      3  C   UNL     1     -12.521  12.251  -6.267  0.00  0.00    +0.000 A 
ATOM      4  C   UNL     1     -14.603  11.920  -5.030  0.00  0.00    +0.000 A 
ATOM      5  C   UNL     1     -13.237  11.655  -5.228  0.00  0.00    +0.000 A 
ATOM      6  C   UNL     1     -13.184  13.126  -7.128  0.00  0.00    +0.000 A 
ATOM      7  C   UNL     1     -15.268  12.804  -5.884  0.00  0.00    +0.000 A 
ATOM      8  C   UNL     1     -14.544  13.385  -6.917  0.00  0.00    +0.000 A 
ATOM      9  C   UNL     1     -15.366  11.353  -3.999  0.00  0.00    +0.000 A 
ATOM     10  C   UNL     1     -17.200  12.522  -4.714  0.00  0.00    +0.000 A 
ATOM     11  N   UNL     1     -14.739  10.466  -3.088  0.00  0.00    +0.000 N 
ATOM     12  H   UNL     1     -14.170   9.781  -3.577  0.00  0.00    +0.000 HD
ENDROOT
BRANCH  11  13
ATOM     13  C   UNL     1     -15.260   9.951  -1.880  0.00  0.00    +0.000 A 
ATOM     14  C   UNL     1     -15.801   8.659  -1.872  0.00  0.00    +0.000 A 
ATOM     15  C   UNL     1     -16.231   8.071  -0.686  0.00  0.00    +0.000 A 
ATOM     16 CL   UNL     1     -16.915   6.496  -0.743  0.00  0.00    +0.000 Cl
ATOM     17  C   UNL     1     -16.098   8.758   0.516  0.00  0.00    +0.000 A 
ATOM     18  F   UNL     1     -16.507   8.208   1.669  0.00  0.00    +0.000 F 
ATOM     19  C   UNL     1     -15.531  10.025   0.540  0.00  0.00    +0.000 A 
ATOM     20  C   UNL     1     -15.101  10.603  -0.652  0.00  0.00    +0.000 A 
ENDBRANCH  11  13
BRANCH   6  21
ATOM     21  O   UNL     1     -12.442  13.692  -8.137  0.00  0.00    +0.000 OA
ATOM     22  C   UNL     1     -12.568  15.080  -8.279  0.00  0.00    +0.000 C 
ENDBRANCH   6  21
BRANCH   3  23
ATOM     23  O   UNL     1     -11.186  12.018  -6.494  0.00  0.00    +0.000 OA
BRANCH  23  24
ATOM     24  C   UNL     1     -10.360  12.764  -5.764  0.00  0.00    +0.000 C 
ATOM     25  C   UNL     1      -9.408  13.610  -4.911  0.00  0.00    +0.000 C 
BRANCH  25  26
ATOM     26  C   UNL     1      -8.454  14.429  -4.035  0.00  0.00    +0.000 C 
BRANCH  26  27
ATOM     27  N   UNL     1      -7.539  15.209  -3.214  0.00  0.00    +0.000 N 
ATOM     28  C   UNL     1      -6.774  14.233  -2.380  0.00  0.00    +0.000 C 
ATOM     29  C   UNL     1      -5.267  13.829  -2.478  0.00  0.00    +0.000 C 
ATOM     30  O   UNL     1      -4.239  14.184  -3.281  0.00  0.00    +0.000 OA
ATOM     31  C   UNL     1      -4.929  15.064  -4.034  0.00  0.00    +0.000 C 
ATOM     32  C   UNL     1      -6.394  15.592  -4.093  0.00  0.00    +0.000 C 
ENDBRANCH  26  27
ENDBRANCH  25  26
ENDBRANCH  23  24
ENDBRANCH   3  23
TORSDOF 6
ENDMDL
MODEL 6
REMARK VINA RESULT:      -5.1     23.806     26.109
REMARK  Name = Gefitinib.pdbqt.pdb
REMARK  6 active torsions:
REMARK  status: ('A' for Active; 'I' for Inactive)
REMARK    1  A    between atoms: C_3  and  O_11
REMARK    2  A    between atoms: C_6  and  O_21
REMARK    3  A    between atoms: O_11  and  C_12
REMARK    4  A    between atoms: C_13  and  C_14
REMARK    5  A    between atoms: C_14  and  N_15
REMARK    6  A    between atoms: N_23  and  C_25
REMARK                            x       y       z     vdW  Elec       q    Type
REMARK                         _______ _______ _______ _____ _____    ______ ____
ROOT
ATOM      1  N   UNL     1     -20.838   8.071  16.994  0.00  0.00    +0.000 NA
ATOM      2  N   UNL     1     -23.185   8.471  16.901  0.00  0.00    +0.000 NA
ATOM      3  C   UNL     1     -21.430   4.606  19.219  0.00  0.00    +0.000 A 
ATOM      4  C   UNL     1     -22.349   6.540  18.039  0.00  0.00    +0.000 A 
ATOM      5  C   UNL     1     -22.520   5.369  18.797  0.00  0.00    +0.000 A 
ATOM      6  C   UNL     1     -20.144   5.019  18.872  0.00  0.00    +0.000 A 
ATOM      7  C   UNL     1     -21.062   6.962  17.700  0.00  0.00    +0.000 A 
ATOM      8  C   UNL     1     -19.987   6.190  18.121  0.00  0.00    +0.000 A 
ATOM      9  C   UNL     1     -23.408   7.345  17.597  0.00  0.00    +0.000 A 
ATOM     10  C   UNL     1     -21.912   8.782  16.629  0.00  0.00    +0.000 A 
ATOM     11  N   UNL     1     -24.737   6.978  17.931  0.00  0.00    +0.000 N 
ATOM     12  H   UNL     1     -24.897   5.990  17.761  0.00  0.00    +0.000 HD
ENDROOT
BRANCH  11  13
ATOM     13  C   UNL     1     -25.915   7.739  17.765  0.00  0.00    +0.000 A 
ATOM     14  C   UNL     1     -26.052   8.938  18.474  0.00  0.00    +0.000 A 
ATOM     15  C   UNL     1     -27.147   9.773  18.264  0.00  0.00    +0.000 A 
ATOM     16 CL   UNL     1     -27.278  11.215  19.188  0.00  0.00    +0.000 Cl
ATOM     17  C   UNL     1     -28.107   9.431  17.318  0.00  0.00    +0.000 A 
ATOM     18  F   UNL     1     -29.168  10.222  17.102  0.00  0.00    +0.000 F 
ATOM     19  C   UNL     1     -27.974   8.266  16.574  0.00  0.00    +0.000 A 
ATOM     20  C   UNL     1     -26.873   7.440  16.790  0.00  0.00    +0.000 A 
ENDBRANCH  11  13
BRANCH   6  21
ATOM     21  O   UNL     1     -19.098   4.240  19.308  0.00  0.00    +0.000 OA
ATOM     22  C   UNL     1     -18.377   4.745  20.397  0.00  0.00    +0.000 C 
ENDBRANCH   6  21
BRANCH   3  23
ATOM     23  O   UNL     1     -21.556   3.456  19.960  0.00  0.00    +0.000 OA
BRANCH  23  24
ATOM     24  C   UNL     1     -21.448   2.329  19.261  0.00  0.00    +0.000 C 
ATOM     25  C   UNL     1     -21.329   1.022  18.470  0.00  0.00    +0.000 C 
BRANCH  25  26
ATOM     26  C   UNL     1     -21.224  -0.303  17.706  0.00  0.00    +0.000 C 
BRANCH  26  27
ATOM     27  N   UNL     1     -21.117  -1.554  16.969  0.00  0.00    +0.000 N 
ATOM     28  C   UNL     1     -20.219  -1.290  15.804  0.00  0.00    +0.000 C 
ATOM     29  C   UNL     1     -18.763  -1.802  15.552  0.00  0.00    +0.000 C 
ATOM     30  O   UNL     1     -17.898  -2.580  16.240  0.00  0.00    +0.000 OA
ATOM     31  C   UNL     1     -18.708  -2.818  17.291  0.00  0.00    +0.000 C 
ATOM     32  C   UNL     1     -20.150  -2.412  17.718  0.00  0.00    +0.000 C 
ENDBRANCH  26  27
ENDBRANCH  25  26
ENDBRANCH  23  24
ENDBRANCH   3  23
TORSDOF 6
ENDMDL
MODEL 7
REMARK VINA RESULT:      -5.0     12.327     14.869
REMARK  Name = Gefitinib.pdbqt.pdb
REMARK  6 active torsions:
REMARK  status: ('A' for Active; 'I' for Inactive)
REMARK    1  A    between atoms: C_3  and  O_11
REMARK    2  A    between atoms: C_6  and  O_21
REMARK    3  A    between atoms: O_11  and  C_12
REMARK    4  A    between atoms: C_13  and  C_14
REMARK    5  A    between atoms: C_14  and  N_15
REMARK    6  A    between atoms: N_23  and  C_25
REMARK                            x       y       z     vdW  Elec       q    Type
REMARK                         _______ _______ _______ _____ _____    ______ ____
ROOT
ATOM      1  N   UNL     1     -22.887  18.702   1.814  0.00  0.00    +0.000 NA
ATOM      2  N   UNL     1     -22.666  16.331   1.900  0.00  0.00    +0.000 NA
ATOM      3  C   UNL     1     -21.507  19.059   5.722  0.00  0.00    +0.000 A 
ATOM      4  C   UNL     1     -22.067  17.654   3.801  0.00  0.00    +0.000 A 
ATOM      5  C   UNL     1     -21.609  17.803   5.122  0.00  0.00    +0.000 A 
ATOM      6  C   UNL     1     -21.864  20.189   4.986  0.00  0.00    +0.000 A 
ATOM      7  C   UNL     1     -22.435  18.783   3.065  0.00  0.00    +0.000 A 
ATOM      8  C   UNL     1     -22.322  20.027   3.673  0.00  0.00    +0.000 A 
ATOM      9  C   UNL     1     -22.194  16.417   3.154  0.00  0.00    +0.000 A 
ATOM     10  C   UNL     1     -22.988  17.475   1.286  0.00  0.00    +0.000 A 
ATOM     11  N   UNL     1     -21.856  15.234   3.861  0.00  0.00    +0.000 N 
ATOM     12  H   UNL     1     -20.967  15.336   4.340  0.00  0.00    +0.000 HD
ENDROOT
BRANCH  11  13
ATOM     13  C   UNL     1     -22.098  13.896   3.477  0.00  0.00    +0.000 A 
ATOM     14  C   UNL     1     -23.214  13.233   4.000  0.00  0.00    +0.000 A 
ATOM     15  C   UNL     1     -23.551  11.951   3.572  0.00  0.00    +0.000 A 
ATOM     16 CL   UNL     1     -24.913  11.175   4.275  0.00  0.00    +0.000 Cl
ATOM     17  C   UNL     1     -22.790  11.327   2.591  0.00  0.00    +0.000 A 
ATOM     18  F   UNL     1     -23.098  10.093   2.166  0.00  0.00    +0.000 F 
ATOM     19  C   UNL     1     -21.700  11.978   2.028  0.00  0.00    +0.000 A 
ATOM     20  C   UNL     1     -21.374  13.261   2.461  0.00  0.00    +0.000 A 
ENDBRANCH  11  13
BRANCH   6  21
ATOM     21  O   UNL     1     -21.748  21.406   5.615  0.00  0.00    +0.000 OA
ATOM     22  C   UNL     1     -21.736  22.526   4.774  0.00  0.00    +0.000 C 
ENDBRANCH   6  21
BRANCH   3  23
ATOM     23  O   UNL     1     -21.064  19.246   7.009  0.00  0.00    +0.000 OA
BRANCH  23  24
ATOM     24  C   UNL     1     -21.516  18.354   7.887  0.00  0.00    +0.000 C 
ATOM     25  C   UNL     1     -22.046  17.318   8.886  0.00  0.00    +0.000 C 
BRANCH  25  26
ATOM     26  C   UNL     1     -22.589  16.265   9.857  0.00  0.00    +0.000 C 
BRANCH  26  27
ATOM     27  N   UNL     1     -23.116  15.273  10.784  0.00  0.00    +0.000 N 
ATOM     28  C   UNL     1     -24.604  15.412  10.759  0.00  0.00    +0.000 C 
ATOM     29  C   UNL     1     -25.670  14.434  10.165  0.00  0.00    +0.000 C 
ATOM     30  O   UNL     1     -25.616  13.245   9.527  0.00  0.00    +0.000 OA
ATOM     31  C   UNL     1     -24.274  13.119   9.548  0.00  0.00    +0.000 C 
ATOM     32  C   UNL     1     -23.071  13.958  10.076  0.00  0.00    +0.000 C 
ENDBRANCH  26  27
ENDBRANCH  25  26
ENDBRANCH  23  24
ENDBRANCH   3  23
TORSDOF 6
ENDMDL
MODEL 8
REMARK VINA RESULT:      -5.0     22.783     25.251
REMARK  Name = Gefitinib.pdbqt.pdb
REMARK  6 active torsions:
REMARK  status: ('A' for Active; 'I' for Inactive)
REMARK    1  A    between atoms: C_3  and  O_11
REMARK    2  A    between atoms: C_6  and  O_21
REMARK    3  A    between atoms: O_11  and  C_12
REMARK    4  A    between atoms: C_13  and  C_14
REMARK    5  A    between atoms: C_14  and  N_15
REMARK    6  A    between atoms: N_23  and  C_25
REMARK                            x       y       z     vdW  Elec       q    Type
REMARK                         _______ _______ _______ _____ _____    ______ ____
ROOT
ATOM      1  N   UNL     1     -26.546   4.968  11.801  0.00  0.00    +0.000 NA
ATOM      2  N   UNL     1     -24.888   5.544  13.413  0.00  0.00    +0.000 NA
ATOM      3  C   UNL     1     -29.475   6.974  13.969  0.00  0.00    +0.000 A 
ATOM      4  C   UNL     1     -27.145   6.282  13.707  0.00  0.00    +0.000 A 
ATOM      5  C   UNL     1     -28.155   6.947  14.422  0.00  0.00    +0.000 A 
ATOM      6  C   UNL     1     -29.790   6.327  12.774  0.00  0.00    +0.000 A 
ATOM      7  C   UNL     1     -27.460   5.625  12.515  0.00  0.00    +0.000 A 
ATOM      8  C   UNL     1     -28.775   5.665  12.073  0.00  0.00    +0.000 A 
ATOM      9  C   UNL     1     -25.807   6.220  14.121  0.00  0.00    +0.000 A 
ATOM     10  C   UNL     1     -25.298   4.951  12.285  0.00  0.00    +0.000 A 
ATOM     11  N   UNL     1     -25.433   6.850  15.336  0.00  0.00    +0.000 N 
ATOM     12  H   UNL     1     -25.819   7.788  15.395  0.00  0.00    +0.000 HD
ENDROOT
BRANCH  11  13
ATOM     13  C   UNL     1     -24.207   6.740  16.029  0.00  0.00    +0.000 A 
ATOM     14  C   UNL     1     -23.365   7.856  16.095  0.00  0.00    +0.000 A 
ATOM     15  C   UNL     1     -22.197   7.828  16.854  0.00  0.00    +0.000 A 
ATOM     16 CL   UNL     1     -21.186   9.217  16.870  0.00  0.00    +0.000 Cl
ATOM     17  C   UNL     1     -21.872   6.688  17.581  0.00  0.00    +0.000 A 
ATOM     18  F   UNL     1     -20.752   6.642  18.317  0.00  0.00    +0.000 F 
ATOM     19  C   UNL     1     -22.710   5.582  17.562  0.00  0.00    +0.000 A 
ATOM     20  C   UNL     1     -23.877   5.622  16.803  0.00  0.00    +0.000 A 
ENDBRANCH  11  13
BRANCH   6  21
ATOM     21  O   UNL     1     -31.102   6.378  12.364  0.00  0.00    +0.000 OA
ATOM     22  C   UNL     1     -31.407   5.637  11.215  0.00  0.00    +0.000 C 
ENDBRANCH   6  21
BRANCH   3  23
ATOM     23  O   UNL     1     -30.490   7.613  14.639  0.00  0.00    +0.000 OA
BRANCH  23  24
ATOM     24  C   UNL     1     -30.087   8.441  15.601  0.00  0.00    +0.000 C 
ATOM     25  C   UNL     1     -29.626   9.381  16.720  0.00  0.00    +0.000 C 
BRANCH  25  26
ATOM     26  C   UNL     1     -29.170  10.295  17.863  0.00  0.00    +0.000 C 
BRANCH  26  27
ATOM     27  N   UNL     1     -28.728  11.171  18.939  0.00  0.00    +0.000 N 
ATOM     28  C   UNL     1     -28.291  10.284  20.060  0.00  0.00    +0.000 C 
ATOM     29  C   UNL     1     -26.846  10.020  20.594  0.00  0.00    +0.000 C 
ATOM     30  O   UNL     1     -25.613  10.456  20.253  0.00  0.00    +0.000 OA
ATOM     31  C   UNL     1     -26.007  11.256  19.242  0.00  0.00    +0.000 C 
ATOM     32  C   UNL     1     -27.360  11.644  18.572  0.00  0.00    +0.000 C 
ENDBRANCH  26  27
ENDBRANCH  25  26
ENDBRANCH  23  24
ENDBRANCH   3  23
TORSDOF 6
ENDMDL
MODEL 9
REMARK VINA RESULT:      -4.8     11.792     17.504
REMARK  Name = Gefitinib.pdbqt.pdb
REMARK  6 active torsions:
REMARK  status: ('A' for Active; 'I' for Inactive)
REMARK    1  A    between atoms: C_3  and  O_11
REMARK    2  A    between atoms: C_6  and  O_21
REMARK    3  A    between atoms: O_11  and  C_12
REMARK    4  A    between atoms: C_13  and  C_14
REMARK    5  A    between atoms: C_14  and  N_15
REMARK    6  A    between atoms: N_23  and  C_25
REMARK                            x       y       z     vdW  Elec       q    Type
REMARK                         _______ _______ _______ _____ _____    ______ ____
ROOT
ATOM      1  N   UNL     1       1.567   6.660   4.282  0.00  0.00    +0.000 NA
ATOM      2  N   UNL     1       3.183   7.730   2.896  0.00  0.00    +0.000 NA
ATOM      3  C   UNL     1      -1.209   6.650   1.184  0.00  0.00    +0.000 A 
ATOM      4  C   UNL     1       1.026   7.192   2.014  0.00  0.00    +0.000 A 
ATOM      5  C   UNL     1       0.066   7.181   0.987  0.00  0.00    +0.000 A 
ATOM      6  C   UNL     1      -1.531   6.114   2.431  0.00  0.00    +0.000 A 
ATOM      7  C   UNL     1       0.703   6.666   3.267  0.00  0.00    +0.000 A 
ATOM      8  C   UNL     1      -0.568   6.135   3.447  0.00  0.00    +0.000 A 
ATOM      9  C   UNL     1       2.317   7.719   1.871  0.00  0.00    +0.000 A 
ATOM     10  C   UNL     1       2.771   7.199   4.053  0.00  0.00    +0.000 A 
ATOM     11  N   UNL     1       2.693   8.288   0.627  0.00  0.00    +0.000 N 
ATOM     12  H   UNL     1       2.427   7.685  -0.146  0.00  0.00    +0.000 HD
ENDROOT
BRANCH  11  13
ATOM     13  C   UNL     1       3.851   9.042   0.333  0.00  0.00    +0.000 A 
ATOM     14  C   UNL     1       5.041   8.367   0.036  0.00  0.00    +0.000 A 
ATOM     15  C   UNL     1       6.179   9.064  -0.361  0.00  0.00    +0.000 A 
ATOM     16 CL   UNL     1       7.620   8.184  -0.679  0.00  0.00    +0.000 Cl
ATOM     17  C   UNL     1       6.132  10.447  -0.496  0.00  0.00    +0.000 A 
ATOM     18  F   UNL     1       7.218  11.136  -0.877  0.00  0.00    +0.000 F 
ATOM     19  C   UNL     1       4.953  11.136  -0.245  0.00  0.00    +0.000 A 
ATOM     20  C   UNL     1       3.819  10.429   0.149  0.00  0.00    +0.000 A 
ENDBRANCH  11  13
BRANCH   6  21
ATOM     21  O   UNL     1      -2.798   5.602   2.583  0.00  0.00    +0.000 OA
ATOM     22  C   UNL     1      -2.878   4.210   2.715  0.00  0.00    +0.000 C 
ENDBRANCH   6  21
BRANCH   3  23
ATOM     23  O   UNL     1      -2.173   6.621   0.206  0.00  0.00    +0.000 OA
BRANCH  23  24
ATOM     24  C   UNL     1      -2.469   7.808  -0.319  0.00  0.00    +0.000 C 
ATOM     25  C   UNL     1      -2.794   9.180  -0.920  0.00  0.00    +0.000 C 
BRANCH  25  26
ATOM     26  C   UNL     1      -3.083  10.559  -1.523  0.00  0.00    +0.000 C 
BRANCH  26  27
ATOM     27  N   UNL     1      -3.360  11.875  -2.082  0.00  0.00    +0.000 N 
ATOM     28  C   UNL     1      -4.485  12.450  -1.285  0.00  0.00    +0.000 C 
ATOM     29  C   UNL     1      -4.458  13.635  -0.265  0.00  0.00    +0.000 C 
ATOM     30  O   UNL     1      -3.498  14.462   0.205  0.00  0.00    +0.000 OA
ATOM     31  C   UNL     1      -2.483  13.943  -0.514  0.00  0.00    +0.000 C 
ATOM     32  C   UNL     1      -2.309  12.795  -1.554  0.00  0.00    +0.000 C 
ENDBRANCH  26  27
ENDBRANCH  25  26
ENDBRANCH  23  24
ENDBRANCH   3  23
TORSDOF 6
ENDMDL
