MODEL 1
REMARK VINA RESULT:      -5.7      0.000      0.000
REMARK  Name = Genistein.pdbqt.pdb
REMARK  4 active torsions:
REMARK  status: ('A' for Active; 'I' for Inactive)
REMARK    1  A    between atoms: C_4  and  C_12
REMARK    2  A    between atoms: C_7  and  O_20
REMARK    3  A    between atoms: C_11  and  O_22
REMARK    4  A    between atoms: C_17  and  O_18
REMARK                            x       y       z     vdW  Elec       q    Type
REMARK                         _______ _______ _______ _____ _____    ______ ____
ROOT
ATOM      1  O   UNL     1     -10.228   5.529  16.624  0.00  0.00    +0.000 OA
ATOM      2  O   UNL     1      -9.562   2.293  19.192  0.00  0.00    +0.000 OA
ATOM      3  C   UNL     1      -8.863   3.574  17.314  0.00  0.00    +0.000 A 
ATOM      4  C   UNL     1     -10.965   4.171  18.610  0.00  0.00    +0.000 A 
ATOM      5  C   UNL     1      -9.129   4.688  16.464  0.00  0.00    +0.000 A 
ATOM      6  C   UNL     1      -9.791   3.250  18.461  0.00  0.00    +0.000 A 
ATOM      7  C   UNL     1      -7.733   2.786  17.076  0.00  0.00    +0.000 A 
ATOM      8  C   UNL     1     -10.886   5.059  17.670  0.00  0.00    +0.000 A 
ATOM      9  C   UNL     1      -8.273   4.986  15.407  0.00  0.00    +0.000 A 
ATOM     10  C   UNL     1      -6.881   3.091  16.015  0.00  0.00    +0.000 A 
ATOM     11  C   UNL     1      -7.157   4.183  15.195  0.00  0.00    +0.000 A 
ENDROOT
BRANCH   4  12
ATOM     12  C   UNL     1     -12.016   4.095  19.622  0.00  0.00    +0.000 A 
ATOM     13  C   UNL     1     -12.291   5.178  20.461  0.00  0.00    +0.000 A 
ATOM     14  C   UNL     1     -12.775   2.928  19.773  0.00  0.00    +0.000 A 
ATOM     15  C   UNL     1     -13.294   5.106  21.426  0.00  0.00    +0.000 A 
ATOM     16  C   UNL     1     -13.781   2.843  20.735  0.00  0.00    +0.000 A 
ATOM     17  C   UNL     1     -14.032   3.935  21.555  0.00  0.00    +0.000 A 
BRANCH  17  18
ATOM     18  O   UNL     1     -15.020   3.832  22.489  0.00  0.00    +0.000 OA
ATOM     19  H   UNL     1     -14.943   2.962  22.919  0.00  0.00    +0.000 HD
ENDBRANCH  17  18
ENDBRANCH   4  12
BRANCH   7  20
ATOM     20  O   UNL     1      -7.398   1.700  17.838  0.00  0.00    +0.000 OA
ATOM     21  H   UNL     1      -8.039   0.976  17.655  0.00  0.00    +0.000 HD
ENDBRANCH   7  20
BRANCH  11  22
ATOM     22  O   UNL     1      -6.330   4.492  14.154  0.00  0.00    +0.000 OA
ATOM     23  H   UNL     1      -5.441   4.663  14.513  0.00  0.00    +0.000 HD
ENDBRANCH  11  22
TORSDOF 4
ENDMDL
MODEL 2
REMARK VINA RESULT:      -5.6     17.728     19.397
REMARK  Name = Genistein.pdbqt.pdb
REMARK  4 active torsions:
REMARK  status: ('A' for Active; 'I' for Inactive)
REMARK    1  A    between atoms: C_4  and  C_12
REMARK    2  A    between atoms: C_7  and  O_20
REMARK    3  A    between atoms: C_11  and  O_22
REMARK    4  A    between atoms: C_17  and  O_18
REMARK                            x       y       z     vdW  Elec       q    Type
REMARK                         _______ _______ _______ _____ _____    ______ ____
ROOT
ATOM      1  O   UNL     1     -22.344  11.118   8.661  0.00  0.00    +0.000 OA
ATOM      2  O   UNL     1     -23.742  14.631   6.869  0.00  0.00    +0.000 OA
ATOM      3  C   UNL     1     -23.598  12.258   6.847  0.00  0.00    +0.000 A 
ATOM      4  C   UNL     1     -22.499  13.629   8.682  0.00  0.00    +0.000 A 
ATOM      5  C   UNL     1     -23.101  11.087   7.491  0.00  0.00    +0.000 A 
ATOM      6  C   UNL     1     -23.315  13.625   7.424  0.00  0.00    +0.000 A 
ATOM      7  C   UNL     1     -24.350  12.127   5.676  0.00  0.00    +0.000 A 
ATOM      8  C   UNL     1     -22.226  12.397   8.974  0.00  0.00    +0.000 A 
ATOM      9  C   UNL     1     -23.361   9.827   6.959  0.00  0.00    +0.000 A 
ATOM     10  C   UNL     1     -24.606  10.862   5.149  0.00  0.00    +0.000 A 
ATOM     11  C   UNL     1     -24.113   9.729   5.793  0.00  0.00    +0.000 A 
ENDROOT
BRANCH   4  12
ATOM     12  C   UNL     1     -22.078  14.799   9.450  0.00  0.00    +0.000 A 
ATOM     13  C   UNL     1     -20.729  15.034   9.727  0.00  0.00    +0.000 A 
ATOM     14  C   UNL     1     -23.024  15.715   9.926  0.00  0.00    +0.000 A 
ATOM     15  C   UNL     1     -20.327  16.149  10.458  0.00  0.00    +0.000 A 
ATOM     16  C   UNL     1     -22.635  16.835  10.660  0.00  0.00    +0.000 A 
ATOM     17  C   UNL     1     -21.287  17.043  10.919  0.00  0.00    +0.000 A 
BRANCH  17  18
ATOM     18  O   UNL     1     -20.926  18.145  11.638  0.00  0.00    +0.000 OA
ATOM     19  H   UNL     1     -20.879  18.903  11.029  0.00  0.00    +0.000 HD
ENDBRANCH  17  18
ENDBRANCH   4  12
BRANCH   7  20
ATOM     20  O   UNL     1     -24.867  13.192   4.990  0.00  0.00    +0.000 OA
ATOM     21  H   UNL     1     -24.587  13.127   4.048  0.00  0.00    +0.000 HD
ENDBRANCH   7  20
BRANCH  11  22
ATOM     22  O   UNL     1     -24.358   8.485   5.286  0.00  0.00    +0.000 OA
ATOM     23  H   UNL     1     -23.573   8.201   4.785  0.00  0.00    +0.000 HD
ENDBRANCH  11  22
TORSDOF 4
ENDMDL
MODEL 3
REMARK VINA RESULT:      -5.5     20.997     22.311
REMARK  Name = Genistein.pdbqt.pdb
REMARK  4 active torsions:
REMARK  status: ('A' for Active; 'I' for Inactive)
REMARK    1  A    between atoms: C_4  and  C_12
REMARK    2  A    between atoms: C_7  and  O_20
REMARK    3  A    between atoms: C_11  and  O_22
REMARK    4  A    between atoms: C_17  and  O_18
REMARK                            x       y       z     vdW  Elec       q    Type
REMARK                         _______ _______ _______ _____ _____    ______ ____
ROOT
ATOM      1  O   UNL     1      -4.029  18.608   1.496  0.00  0.00    +0.000 OA
ATOM      2  O   UNL     1      -3.939  14.476   2.142  0.00  0.00    +0.000 OA
ATOM      3  C   UNL     1      -5.090  16.374   1.290  0.00  0.00    +0.000 A 
ATOM      4  C   UNL     1      -2.814  16.598   2.395  0.00  0.00    +0.000 A 
ATOM      5  C   UNL     1      -5.079  17.786   1.091  0.00  0.00    +0.000 A 
ATOM      6  C   UNL     1      -3.928  15.689   1.971  0.00  0.00    +0.000 A 
ATOM      7  C   UNL     1      -6.189  15.630   0.849  0.00  0.00    +0.000 A 
ATOM      8  C   UNL     1      -3.142  17.804   2.057  0.00  0.00    +0.000 A 
ATOM      9  C   UNL     1      -6.150  18.417   0.465  0.00  0.00    +0.000 A 
ATOM     10  C   UNL     1      -7.257  16.269   0.223  0.00  0.00    +0.000 A 
ATOM     11  C   UNL     1      -7.229  17.650   0.036  0.00  0.00    +0.000 A 
ENDROOT
BRANCH   4  12
ATOM     12  C   UNL     1      -1.577  16.212   3.071  0.00  0.00    +0.000 A 
ATOM     13  C   UNL     1      -1.319  16.604   4.387  0.00  0.00    +0.000 A 
ATOM     14  C   UNL     1      -0.618  15.434   2.410  0.00  0.00    +0.000 A 
ATOM     15  C   UNL     1      -0.141  16.235   5.032  0.00  0.00    +0.000 A 
ATOM     16  C   UNL     1       0.566  15.058   3.043  0.00  0.00    +0.000 A 
ATOM     17  C   UNL     1       0.794  15.463   4.352  0.00  0.00    +0.000 A 
BRANCH  17  18
ATOM     18  O   UNL     1       1.958  15.085   4.955  0.00  0.00    +0.000 OA
ATOM     19  H   UNL     1       1.774  14.924   5.897  0.00  0.00    +0.000 HD
ENDBRANCH  17  18
ENDBRANCH   4  12
BRANCH   7  20
ATOM     20  O   UNL     1      -6.287  14.273   0.997  0.00  0.00    +0.000 OA
ATOM     21  H   UNL     1      -6.990  13.940   0.393  0.00  0.00    +0.000 HD
ENDBRANCH   7  20
BRANCH  11  22
ATOM     22  O   UNL     1      -8.269  18.286  -0.576  0.00  0.00    +0.000 OA
ATOM     23  H   UNL     1      -8.813  17.615  -1.027  0.00  0.00    +0.000 HD
ENDBRANCH  11  22
TORSDOF 4
ENDMDL
MODEL 4
REMARK VINA RESULT:      -5.4     17.912     19.305
REMARK  Name = Genistein.pdbqt.pdb
REMARK  4 active torsions:
REMARK  status: ('A' for Active; 'I' for Inactive)
REMARK    1  A    between atoms: C_4  and  C_12
REMARK    2  A    between atoms: C_7  and  O_20
REMARK    3  A    between atoms: C_11  and  O_22
REMARK    4  A    between atoms: C_17  and  O_18
REMARK                            x       y       z     vdW  Elec       q    Type
REMARK                         _______ _______ _______ _____ _____    ______ ____
ROOT
ATOM      1  O   UNL     1     -20.800  14.482   9.223  0.00  0.00    +0.000 OA
ATOM      2  O   UNL     1     -23.983  16.423  11.122  0.00  0.00    +0.000 OA
ATOM      3  C   UNL     1     -23.227  14.666   9.708  0.00  0.00    +0.000 A 
ATOM      4  C   UNL     1     -21.603  16.339  10.718  0.00  0.00    +0.000 A 
ATOM      5  C   UNL     1     -22.112  14.036   9.080  0.00  0.00    +0.000 A 
ATOM      6  C   UNL     1     -23.025  15.882  10.582  0.00  0.00    +0.000 A 
ATOM      7  C   UNL     1     -24.509  14.146   9.507  0.00  0.00    +0.000 A 
ATOM      8  C   UNL     1     -20.866  15.538  10.016  0.00  0.00    +0.000 A 
ATOM      9  C   UNL     1     -22.299  12.916   8.274  0.00  0.00    +0.000 A 
ATOM     10  C   UNL     1     -24.688  13.025   8.699  0.00  0.00    +0.000 A 
ATOM     11  C   UNL     1     -23.587  12.422   8.093  0.00  0.00    +0.000 A 
ENDROOT
BRANCH   4  12
ATOM     12  C   UNL     1     -21.120  17.479  11.494  0.00  0.00    +0.000 A 
ATOM     13  C   UNL     1     -20.113  17.326  12.451  0.00  0.00    +0.000 A 
ATOM     14  C   UNL     1     -21.656  18.756  11.292  0.00  0.00    +0.000 A 
ATOM     15  C   UNL     1     -19.651  18.412  13.191  0.00  0.00    +0.000 A 
ATOM     16  C   UNL     1     -21.203  19.852  12.026  0.00  0.00    +0.000 A 
ATOM     17  C   UNL     1     -20.202  19.669  12.971  0.00  0.00    +0.000 A 
BRANCH  17  18
ATOM     18  O   UNL     1     -19.772  20.754  13.678  0.00  0.00    +0.000 OA
ATOM     19  H   UNL     1     -20.553  21.256  13.971  0.00  0.00    +0.000 HD
ENDBRANCH  17  18
ENDBRANCH   4  12
BRANCH   7  20
ATOM     20  O   UNL     1     -25.636  14.683  10.068  0.00  0.00    +0.000 OA
ATOM     21  H   UNL     1     -25.977  15.391   9.475  0.00  0.00    +0.000 HD
ENDBRANCH   7  20
BRANCH  11  22
ATOM     22  O   UNL     1     -23.750  11.323   7.300  0.00  0.00    +0.000 OA
ATOM     23  H   UNL     1     -22.882  10.895   7.193  0.00  0.00    +0.000 HD
ENDBRANCH  11  22
TORSDOF 4
ENDMDL
MODEL 5
REMARK VINA RESULT:      -5.3     13.660     16.385
REMARK  Name = Genistein.pdbqt.pdb
REMARK  4 active torsions:
REMARK  status: ('A' for Active; 'I' for Inactive)
REMARK    1  A    between atoms: C_4  and  C_12
REMARK    2  A    between atoms: C_7  and  O_20
REMARK    3  A    between atoms: C_11  and  O_22
REMARK    4  A    between atoms: C_17  and  O_18
REMARK                            x       y       z     vdW  Elec       q    Type
REMARK                         _______ _______ _______ _____ _____    ______ ____
ROOT
ATOM      1  O   UNL     1     -14.189  19.644  20.276  0.00  0.00    +0.000 OA
ATOM      2  O   UNL     1     -12.047  17.290  22.991  0.00  0.00    +0.000 OA
ATOM      3  C   UNL     1     -14.018  18.519  22.482  0.00  0.00    +0.000 A 
ATOM      4  C   UNL     1     -12.106  18.342  20.817  0.00  0.00    +0.000 A 
ATOM      5  C   UNL     1     -14.712  19.318  21.526  0.00  0.00    +0.000 A 
ATOM      6  C   UNL     1     -12.643  17.976  22.169  0.00  0.00    +0.000 A 
ATOM      7  C   UNL     1     -14.623  18.244  23.711  0.00  0.00    +0.000 A 
ATOM      8  C   UNL     1     -13.000  19.070  20.226  0.00  0.00    +0.000 A 
ATOM      9  C   UNL     1     -15.978  19.820  21.814  0.00  0.00    +0.000 A 
ATOM     10  C   UNL     1     -15.891  18.750  23.993  0.00  0.00    +0.000 A 
ATOM     11  C   UNL     1     -16.555  19.528  23.047  0.00  0.00    +0.000 A 
ENDROOT
BRANCH   4  12
ATOM     12  C   UNL     1     -10.813  17.958  20.255  0.00  0.00    +0.000 A 
ATOM     13  C   UNL     1     -10.727  17.308  19.021  0.00  0.00    +0.000 A 
ATOM     14  C   UNL     1      -9.627  18.237  20.943  0.00  0.00    +0.000 A 
ATOM     15  C   UNL     1      -9.495  16.942  18.483  0.00  0.00    +0.000 A 
ATOM     16  C   UNL     1      -8.387  17.877  20.417  0.00  0.00    +0.000 A 
ATOM     17  C   UNL     1      -8.332  17.231  19.189  0.00  0.00    +0.000 A 
BRANCH  17  18
ATOM     18  O   UNL     1      -7.110  16.887  18.690  0.00  0.00    +0.000 OA
ATOM     19  H   UNL     1      -6.541  16.622  19.435  0.00  0.00    +0.000 HD
ENDBRANCH  17  18
ENDBRANCH   4  12
BRANCH   7  20
ATOM     20  O   UNL     1     -14.034  17.488  24.688  0.00  0.00    +0.000 OA
ATOM     21  H   UNL     1     -14.704  16.866  25.053  0.00  0.00    +0.000 HD
ENDBRANCH   7  20
BRANCH  11  22
ATOM     22  O   UNL     1     -17.797  20.028  23.311  0.00  0.00    +0.000 OA
ATOM     23  H   UNL     1     -18.337  19.942  22.506  0.00  0.00    +0.000 HD
ENDBRANCH  11  22
TORSDOF 4
ENDMDL
MODEL 6
REMARK VINA RESULT:      -5.2     12.701     15.245
REMARK  Name = Genistein.pdbqt.pdb
REMARK  4 active torsions:
REMARK  status: ('A' for Active; 'I' for Inactive)
REMARK    1  A    between atoms: C_4  and  C_12
REMARK    2  A    between atoms: C_7  and  O_20
REMARK    3  A    between atoms: C_11  and  O_22
REMARK    4  A    between atoms: C_17  and  O_18
REMARK                            x       y       z     vdW  Elec       q    Type
REMARK                         _______ _______ _______ _____ _____    ______ ____
ROOT
ATOM      1  O   UNL     1     -22.880   4.605  15.751  0.00  0.00    +0.000 OA
ATOM      2  O   UNL     1     -24.577   8.397  15.255  0.00  0.00    +0.000 OA
ATOM      3  C   UNL     1     -22.905   7.034  16.258  0.00  0.00    +0.000 A 
ATOM      4  C   UNL     1     -24.646   6.049  14.692  0.00  0.00    +0.000 A 
ATOM      5  C   UNL     1     -22.360   5.724  16.398  0.00  0.00    +0.000 A 
ATOM      6  C   UNL     1     -24.108   7.271  15.375  0.00  0.00    +0.000 A 
ATOM      7  C   UNL     1     -22.314   8.098  16.946  0.00  0.00    +0.000 A 
ATOM      8  C   UNL     1     -23.909   5.045  15.048  0.00  0.00    +0.000 A 
ATOM      9  C   UNL     1     -21.252   5.507  17.212  0.00  0.00    +0.000 A 
ATOM     10  C   UNL     1     -21.205   7.872  17.760  0.00  0.00    +0.000 A 
ATOM     11  C   UNL     1     -20.686   6.585  17.884  0.00  0.00    +0.000 A 
ENDROOT
BRANCH   4  12
ATOM     12  C   UNL     1     -25.793   5.984  13.788  0.00  0.00    +0.000 A 
ATOM     13  C   UNL     1     -27.030   6.523  14.151  0.00  0.00    +0.000 A 
ATOM     14  C   UNL     1     -25.676   5.377  12.532  0.00  0.00    +0.000 A 
ATOM     15  C   UNL     1     -28.124   6.462  13.290  0.00  0.00    +0.000 A 
ATOM     16  C   UNL     1     -26.762   5.308  11.661  0.00  0.00    +0.000 A 
ATOM     17  C   UNL     1     -27.979   5.853  12.049  0.00  0.00    +0.000 A 
BRANCH  17  18
ATOM     18  O   UNL     1     -29.030   5.777  11.182  0.00  0.00    +0.000 OA
ATOM     19  H   UNL     1     -29.629   6.523  11.364  0.00  0.00    +0.000 HD
ENDBRANCH  17  18
ENDBRANCH   4  12
BRANCH   7  20
ATOM     20  O   UNL     1     -22.768   9.387  16.873  0.00  0.00    +0.000 OA
ATOM     21  H   UNL     1     -22.024   9.968  16.591  0.00  0.00    +0.000 HD
ENDBRANCH   7  20
BRANCH  11  22
ATOM     22  O   UNL     1     -19.600   6.352  18.677  0.00  0.00    +0.000 OA
ATOM     23  H   UNL     1     -18.816   6.727  18.237  0.00  0.00    +0.000 HD
ENDBRANCH  11  22
TORSDOF 4
ENDMDL
MODEL 7
REMARK VINA RESULT:      -5.2     17.986     19.737
REMARK  Name = Genistein.pdbqt.pdb
REMARK  4 active torsions:
REMARK  status: ('A' for Active; 'I' for Inactive)
REMARK    1  A    between atoms: C_4  and  C_12
REMARK    2  A    between atoms: C_7  and  O_20
REMARK    3  A    between atoms: C_11  and  O_22
REMARK    4  A    between atoms: C_17  and  O_18
REMARK                            x       y       z     vdW  Elec       q    Type
REMARK                         _______ _______ _______ _____ _____    ______ ____
ROOT
ATOM      1  O   UNL     1     -23.742  18.824  11.501  0.00  0.00    +0.000 OA
ATOM      2  O   UNL     1     -20.133  16.730  11.816  0.00  0.00    +0.000 OA
ATOM      3  C   UNL     1     -21.367  18.723  12.215  0.00  0.00    +0.000 A 
ATOM      4  C   UNL     1     -22.434  16.716  11.081  0.00  0.00    +0.000 A 
ATOM      5  C   UNL     1     -22.616  19.399  12.086  0.00  0.00    +0.000 A 
ATOM      6  C   UNL     1     -21.207  17.310  11.706  0.00  0.00    +0.000 A 
ATOM      7  C   UNL     1     -20.292  19.382  12.819  0.00  0.00    +0.000 A 
ATOM      8  C   UNL     1     -23.372  17.608  11.136  0.00  0.00    +0.000 A 
ATOM      9  C   UNL     1     -22.763  20.702  12.556  0.00  0.00    +0.000 A 
ATOM     10  C   UNL     1     -20.447  20.686  13.286  0.00  0.00    +0.000 A 
ATOM     11  C   UNL     1     -21.675  21.331  13.152  0.00  0.00    +0.000 A 
ENDROOT
BRANCH   4  12
ATOM     12  C   UNL     1     -22.566  15.378  10.507  0.00  0.00    +0.000 A 
ATOM     13  C   UNL     1     -21.831  15.000   9.381  0.00  0.00    +0.000 A 
ATOM     14  C   UNL     1     -23.434  14.441  11.079  0.00  0.00    +0.000 A 
ATOM     15  C   UNL     1     -21.955  13.724   8.834  0.00  0.00    +0.000 A 
ATOM     16  C   UNL     1     -23.569  13.162  10.542  0.00  0.00    +0.000 A 
ATOM     17  C   UNL     1     -22.826  12.814   9.422  0.00  0.00    +0.000 A 
BRANCH  17  18
ATOM     18  O   UNL     1     -22.970  11.557   8.911  0.00  0.00    +0.000 OA
ATOM     19  H   UNL     1     -22.998  11.625   7.940  0.00  0.00    +0.000 HD
ENDBRANCH  17  18
ENDBRANCH   4  12
BRANCH   7  20
ATOM     20  O   UNL     1     -19.058  18.814  12.986  0.00  0.00    +0.000 OA
ATOM     21  H   UNL     1     -18.508  19.413  13.541  0.00  0.00    +0.000 HD
ENDBRANCH   7  20
BRANCH  11  22
ATOM     22  O   UNL     1     -21.838  22.608  13.606  0.00  0.00    +0.000 OA
ATOM     23  H   UNL     1     -20.968  22.944  13.886  0.00  0.00    +0.000 HD
ENDBRANCH  11  22
TORSDOF 4
ENDMDL
MODEL 8
REMARK VINA RESULT:      -5.1     13.666     16.505
REMARK  Name = Genistein.pdbqt.pdb
REMARK  4 active torsions:
REMARK  status: ('A' for Active; 'I' for Inactive)
REMARK    1  A    between atoms: C_4  and  C_12
REMARK    2  A    between atoms: C_7  and  O_20
REMARK    3  A    between atoms: C_11  and  O_22
REMARK    4  A    between atoms: C_17  and  O_18
REMARK                            x       y       z     vdW  Elec       q    Type
REMARK                         _______ _______ _______ _____ _____    ______ ____
ROOT
ATOM      1  O   UNL     1     -11.882  17.636  23.125  0.00  0.00    +0.000 OA
ATOM      2  O   UNL     1     -13.251  19.289  19.533  0.00  0.00    +0.000 OA
ATOM      3  C   UNL     1     -13.668  18.753  21.812  0.00  0.00    +0.000 A 
ATOM      4  C   UNL     1     -11.444  18.204  20.714  0.00  0.00    +0.000 A 
ATOM      5  C   UNL     1     -13.160  18.180  23.015  0.00  0.00    +0.000 A 
ATOM      6  C   UNL     1     -12.814  18.796  20.567  0.00  0.00    +0.000 A 
ATOM      7  C   UNL     1     -14.964  19.276  21.798  0.00  0.00    +0.000 A 
ATOM      8  C   UNL     1     -11.329  17.782  21.933  0.00  0.00    +0.000 A 
ATOM      9  C   UNL     1     -13.948  18.140  24.163  0.00  0.00    +0.000 A 
ATOM     10  C   UNL     1     -15.747  19.232  22.951  0.00  0.00    +0.000 A 
ATOM     11  C   UNL     1     -15.234  18.669  24.117  0.00  0.00    +0.000 A 
ENDROOT
BRANCH   4  12
ATOM     12  C   UNL     1     -10.414  18.111  19.681  0.00  0.00    +0.000 A 
ATOM     13  C   UNL     1     -10.340  17.001  18.834  0.00  0.00    +0.000 A 
ATOM     14  C   UNL     1      -9.477  19.137  19.516  0.00  0.00    +0.000 A 
ATOM     15  C   UNL     1      -9.359  16.912  17.848  0.00  0.00    +0.000 A 
ATOM     16  C   UNL     1      -8.489  19.059  18.534  0.00  0.00    +0.000 A 
ATOM     17  C   UNL     1      -8.440  17.945  17.707  0.00  0.00    +0.000 A 
BRANCH  17  18
ATOM     18  O   UNL     1      -7.467  17.888  16.752  0.00  0.00    +0.000 OA
ATOM     19  H   UNL     1      -7.883  17.633  15.909  0.00  0.00    +0.000 HD
ENDBRANCH  17  18
ENDBRANCH   4  12
BRANCH   7  20
ATOM     20  O   UNL     1     -15.535  19.844  20.691  0.00  0.00    +0.000 OA
ATOM     21  H   UNL     1     -16.331  19.321  20.442  0.00  0.00    +0.000 HD
ENDBRANCH   7  20
BRANCH  11  22
ATOM     22  O   UNL     1     -15.991  18.621  25.252  0.00  0.00    +0.000 OA
ATOM     23  H   UNL     1     -15.414  18.822  26.011  0.00  0.00    +0.000 HD
ENDBRANCH  11  22
TORSDOF 4
ENDMDL
MODEL 9
REMARK VINA RESULT:      -5.0     13.098     15.888
REMARK  Name = Genistein.pdbqt.pdb
REMARK  4 active torsions:
REMARK  status: ('A' for Active; 'I' for Inactive)
REMARK    1  A    between atoms: C_4  and  C_12
REMARK    2  A    between atoms: C_7  and  O_20
REMARK    3  A    between atoms: C_11  and  O_22
REMARK    4  A    between atoms: C_17  and  O_18
REMARK                            x       y       z     vdW  Elec       q    Type
REMARK                         _______ _______ _______ _____ _____    ______ ____
ROOT
ATOM      1  O   UNL     1     -14.178  17.343  24.615  0.00  0.00    +0.000 OA
ATOM      2  O   UNL     1     -12.078  18.192  21.097  0.00  0.00    +0.000 OA
ATOM      3  C   UNL     1     -14.022  18.509  22.429  0.00  0.00    +0.000 A 
ATOM      4  C   UNL     1     -12.122  17.010  23.204  0.00  0.00    +0.000 A 
ATOM      5  C   UNL     1     -14.702  18.192  23.642  0.00  0.00    +0.000 A 
ATOM      6  C   UNL     1     -12.662  17.919  22.140  0.00  0.00    +0.000 A 
ATOM      7  C   UNL     1     -14.628  19.372  21.511  0.00  0.00    +0.000 A 
ATOM      8  C   UNL     1     -13.002  16.954  24.153  0.00  0.00    +0.000 A 
ATOM      9  C   UNL     1     -15.956  18.735  23.909  0.00  0.00    +0.000 A 
ATOM     10  C   UNL     1     -15.883  19.912  21.785  0.00  0.00    +0.000 A 
ATOM     11  C   UNL     1     -16.533  19.591  22.976  0.00  0.00    +0.000 A 
ENDROOT
BRANCH   4  12
ATOM     12  C   UNL     1     -10.842  16.306  23.188  0.00  0.00    +0.000 A 
ATOM     13  C   UNL     1     -10.776  14.931  22.952  0.00  0.00    +0.000 A 
ATOM     14  C   UNL     1      -9.646  17.000  23.409  0.00  0.00    +0.000 A 
ATOM     15  C   UNL     1      -9.556  14.259  22.937  0.00  0.00    +0.000 A 
ATOM     16  C   UNL     1      -8.418  16.340  23.397  0.00  0.00    +0.000 A 
ATOM     17  C   UNL     1      -8.384  14.973  23.160  0.00  0.00    +0.000 A 
BRANCH  17  18
ATOM     18  O   UNL     1      -7.172  14.345  23.151  0.00  0.00    +0.000 OA
ATOM     19  H   UNL     1      -7.328  13.384  23.138  0.00  0.00    +0.000 HD
ENDBRANCH  17  18
ENDBRANCH   4  12
BRANCH   7  20
ATOM     20  O   UNL     1     -14.052  19.732  20.323  0.00  0.00    +0.000 OA
ATOM     21  H   UNL     1     -14.083  20.713  20.242  0.00  0.00    +0.000 HD
ENDBRANCH   7  20
BRANCH  11  22
ATOM     22  O   UNL     1     -17.762  20.114  23.255  0.00  0.00    +0.000 OA
ATOM     23  H   UNL     1     -18.332  19.984  22.476  0.00  0.00    +0.000 HD
ENDBRANCH  11  22
TORSDOF 4
ENDMDL
