MODEL 1
REMARK VINA RESULT:      -5.5      0.000      0.000
REMARK  Name = Hyoscyamine.pdbqt.pdb
REMARK  6 active torsions:
REMARK  status: ('A' for Active; 'I' for Inactive)
REMARK    1  A    between atoms: C_2  and  O_3
REMARK    2  A    between atoms: C_2  and  C_13
REMARK    3  A    between atoms: O_3  and  C_4
REMARK    4  A    between atoms: C_13  and  C_14
REMARK    5  A    between atoms: C_13  and  C_20
REMARK    6  A    between atoms: C_20  and  O_21
REMARK                            x       y       z     vdW  Elec       q    Type
REMARK                         _______ _______ _______ _____ _____    ______ ____
ROOT
ATOM      1  O   UNL     1     -16.245   6.811  -4.253  0.00  0.00    +0.000 OA
ATOM      2  C   UNL     1     -16.147   7.599  -3.320  0.00  0.00    +0.000 C 
ENDROOT
BRANCH   2   3
ATOM      3  O   UNL     1     -16.511   8.914  -3.318  0.00  0.00    +0.000 OA
BRANCH   3   4
ATOM      4  C   UNL     1     -15.646   9.720  -4.058  0.00  0.00    +0.000 C 
ATOM      5  C   UNL     1     -14.797  10.700  -3.403  0.00  0.00    +0.000 C 
ATOM      6  C   UNL     1     -14.500  12.060  -3.871  0.00  0.00    +0.000 C 
ATOM      7  N   UNL     1     -15.845  12.574  -4.404  0.00  0.00    +0.000 NA
ATOM      8  C   UNL     1     -13.625  12.086  -5.030  0.00  0.00    +0.000 C 
ATOM      9  C   UNL     1     -15.862  11.742  -5.697  0.00  0.00    +0.000 C 
ATOM     10  C   UNL     1     -15.794  14.015  -4.693  0.00  0.00    +0.000 C 
ATOM     11  C   UNL     1     -14.523  11.879  -6.251  0.00  0.00    +0.000 C 
ATOM     12  C   UNL     1     -16.163  10.376  -5.242  0.00  0.00    +0.000 C 
ENDBRANCH   3   4
ENDBRANCH   2   3
BRANCH   2  13
ATOM     13  C   UNL     1     -15.550   7.225  -2.003  0.00  0.00    +0.000 C 
BRANCH  13  14
ATOM     14  C   UNL     1     -15.822   7.946  -0.746  0.00  0.00    +0.000 A 
ATOM     15  C   UNL     1     -14.954   8.953  -0.308  0.00  0.00    +0.000 A 
ATOM     16  C   UNL     1     -15.178   9.618   0.896  0.00  0.00    +0.000 A 
ATOM     17  C   UNL     1     -16.271   9.277   1.685  0.00  0.00    +0.000 A 
ATOM     18  C   UNL     1     -17.138   8.271   1.271  0.00  0.00    +0.000 A 
ATOM     19  C   UNL     1     -16.908   7.609   0.065  0.00  0.00    +0.000 A 
ENDBRANCH  13  14
BRANCH  13  20
ATOM     20  C   UNL     1     -14.724   6.057  -1.976  0.00  0.00    +0.000 C 
BRANCH  20  21
ATOM     21  O   UNL     1     -13.958   4.972  -1.951  0.00  0.00    +0.000 OA
ATOM     22  H   UNL     1     -13.413   4.957  -1.144  0.00  0.00    +0.000 HD
ENDBRANCH  20  21
ENDBRANCH  13  20
ENDBRANCH   2  13
TORSDOF 6
ENDMDL
MODEL 2
REMARK VINA RESULT:      -5.2      2.703      3.784
REMARK  Name = Hyoscyamine.pdbqt.pdb
REMARK  6 active torsions:
REMARK  status: ('A' for Active; 'I' for Inactive)
REMARK    1  A    between atoms: C_2  and  O_3
REMARK    2  A    between atoms: C_2  and  C_13
REMARK    3  A    between atoms: O_3  and  C_4
REMARK    4  A    between atoms: C_13  and  C_14
REMARK    5  A    between atoms: C_13  and  C_20
REMARK    6  A    between atoms: C_20  and  O_21
REMARK                            x       y       z     vdW  Elec       q    Type
REMARK                         _______ _______ _______ _____ _____    ______ ____
ROOT
ATOM      1  O   UNL     1     -17.757   6.101  -3.109  0.00  0.00    +0.000 OA
ATOM      2  C   UNL     1     -18.206   6.478  -2.033  0.00  0.00    +0.000 C 
ENDROOT
BRANCH   2   3
ATOM      3  O   UNL     1     -19.439   7.015  -1.804  0.00  0.00    +0.000 OA
BRANCH   3   4
ATOM      4  C   UNL     1     -19.683   8.161  -2.561  0.00  0.00    +0.000 C 
ATOM      5  C   UNL     1     -19.584   8.132  -4.010  0.00  0.00    +0.000 C 
ATOM      6  C   UNL     1     -19.003   9.168  -4.873  0.00  0.00    +0.000 C 
ATOM      7  N   UNL     1     -17.749   9.626  -4.115  0.00  0.00    +0.000 NA
ATOM      8  C   UNL     1     -19.822  10.364  -4.959  0.00  0.00    +0.000 C 
ATOM      9  C   UNL     1     -18.474  10.429  -3.024  0.00  0.00    +0.000 C 
ATOM     10  C   UNL     1     -16.903  10.493  -4.949  0.00  0.00    +0.000 C 
ATOM     11  C   UNL     1     -19.475  11.213  -3.735  0.00  0.00    +0.000 C 
ATOM     12  C   UNL     1     -19.058   9.402  -2.149  0.00  0.00    +0.000 C 
ENDBRANCH   3   4
ENDBRANCH   2   3
BRANCH   2  13
ATOM     13  C   UNL     1     -17.415   6.438  -0.767  0.00  0.00    +0.000 C 
BRANCH  13  14
ATOM     14  C   UNL     1     -16.665   7.590  -0.232  0.00  0.00    +0.000 A 
ATOM     15  C   UNL     1     -16.948   8.083   1.046  0.00  0.00    +0.000 A 
ATOM     16  C   UNL     1     -16.272   9.194   1.551  0.00  0.00    +0.000 A 
ATOM     17  C   UNL     1     -15.309   9.832   0.776  0.00  0.00    +0.000 A 
ATOM     18  C   UNL     1     -15.024   9.361  -0.501  0.00  0.00    +0.000 A 
ATOM     19  C   UNL     1     -15.703   8.250  -1.000  0.00  0.00    +0.000 A 
ENDBRANCH  13  14
BRANCH  13  20
ATOM     20  C   UNL     1     -17.457   5.220  -0.017  0.00  0.00    +0.000 C 
BRANCH  20  21
ATOM     21  O   UNL     1     -17.496   4.089   0.680  0.00  0.00    +0.000 OA
ATOM     22  H   UNL     1     -16.625   3.898   1.069  0.00  0.00    +0.000 HD
ENDBRANCH  20  21
ENDBRANCH  13  20
ENDBRANCH   2  13
TORSDOF 6
ENDMDL
MODEL 3
REMARK VINA RESULT:      -5.0      3.948      7.131
REMARK  Name = Hyoscyamine.pdbqt.pdb
REMARK  6 active torsions:
REMARK  status: ('A' for Active; 'I' for Inactive)
REMARK    1  A    between atoms: C_2  and  O_3
REMARK    2  A    between atoms: C_2  and  C_13
REMARK    3  A    between atoms: O_3  and  C_4
REMARK    4  A    between atoms: C_13  and  C_14
REMARK    5  A    between atoms: C_13  and  C_20
REMARK    6  A    between atoms: C_20  and  O_21
REMARK                            x       y       z     vdW  Elec       q    Type
REMARK                         _______ _______ _______ _____ _____    ______ ____
ROOT
ATOM      1  O   UNL     1     -14.963   6.190  -3.540  0.00  0.00    +0.000 OA
ATOM      2  C   UNL     1     -15.322   6.045  -2.378  0.00  0.00    +0.000 C 
ENDROOT
BRANCH   2   3
ATOM      3  O   UNL     1     -15.014   5.005  -1.550  0.00  0.00    +0.000 OA
BRANCH   3   4
ATOM      4  C   UNL     1     -14.307   3.988  -2.193  0.00  0.00    +0.000 C 
ATOM      5  C   UNL     1     -14.716   2.601  -2.066  0.00  0.00    +0.000 C 
ATOM      6  C   UNL     1     -13.838   1.435  -1.900  0.00  0.00    +0.000 C 
ATOM      7  N   UNL     1     -12.757   1.917  -0.923  0.00  0.00    +0.000 NA
ATOM      8  C   UNL     1     -13.100   1.101  -3.107  0.00  0.00    +0.000 C 
ATOM      9  C   UNL     1     -11.993   2.809  -1.914  0.00  0.00    +0.000 C 
ATOM     10  C   UNL     1     -11.924   0.802  -0.449  0.00  0.00    +0.000 C 
ATOM     11  C   UNL     1     -11.868   2.008  -3.123  0.00  0.00    +0.000 C 
ATOM     12  C   UNL     1     -12.862   3.984  -2.085  0.00  0.00    +0.000 C 
ENDBRANCH   3   4
ENDBRANCH   2   3
BRANCH   2  13
ATOM     13  C   UNL     1     -16.222   7.012  -1.682  0.00  0.00    +0.000 C 
BRANCH  13  14
ATOM     14  C   UNL     1     -15.793   8.347  -1.224  0.00  0.00    +0.000 A 
ATOM     15  C   UNL     1     -15.446   9.334  -2.152  0.00  0.00    +0.000 A 
ATOM     16  C   UNL     1     -15.004  10.588  -1.734  0.00  0.00    +0.000 A 
ATOM     17  C   UNL     1     -14.894  10.868  -0.376  0.00  0.00    +0.000 A 
ATOM     18  C   UNL     1     -15.225   9.894   0.561  0.00  0.00    +0.000 A 
ATOM     19  C   UNL     1     -15.666   8.642   0.136  0.00  0.00    +0.000 A 
ENDBRANCH  13  14
BRANCH  13  20
ATOM     20  C   UNL     1     -17.589   6.622  -1.521  0.00  0.00    +0.000 C 
BRANCH  20  21
ATOM     21  O   UNL     1     -18.859   6.260  -1.372  0.00  0.00    +0.000 OA
ATOM     22  H   UNL     1     -19.323   6.878  -0.780  0.00  0.00    +0.000 HD
ENDBRANCH  20  21
ENDBRANCH  13  20
ENDBRANCH   2  13
TORSDOF 6
ENDMDL
MODEL 4
REMARK VINA RESULT:      -4.9      4.035      5.177
REMARK  Name = Hyoscyamine.pdbqt.pdb
REMARK  6 active torsions:
REMARK  status: ('A' for Active; 'I' for Inactive)
REMARK    1  A    between atoms: C_2  and  O_3
REMARK    2  A    between atoms: C_2  and  C_13
REMARK    3  A    between atoms: O_3  and  C_4
REMARK    4  A    between atoms: C_13  and  C_14
REMARK    5  A    between atoms: C_13  and  C_20
REMARK    6  A    between atoms: C_20  and  O_21
REMARK                            x       y       z     vdW  Elec       q    Type
REMARK                         _______ _______ _______ _____ _____    ______ ____
ROOT
ATOM      1  O   UNL     1     -18.215   5.761  -3.366  0.00  0.00    +0.000 OA
ATOM      2  C   UNL     1     -18.248   6.108  -2.192  0.00  0.00    +0.000 C 
ENDROOT
BRANCH   2   3
ATOM      3  O   UNL     1     -19.322   6.610  -1.516  0.00  0.00    +0.000 OA
BRANCH   3   4
ATOM      4  C   UNL     1     -19.896   7.713  -2.149  0.00  0.00    +0.000 C 
ATOM      5  C   UNL     1     -19.877   9.024  -1.526  0.00  0.00    +0.000 C 
ATOM      6  C   UNL     1     -20.968  10.007  -1.508  0.00  0.00    +0.000 C 
ATOM      7  N   UNL     1     -22.228   9.162  -1.274  0.00  0.00    +0.000 NA
ATOM      8  C   UNL     1     -21.194  10.631  -2.800  0.00  0.00    +0.000 C 
ATOM      9  C   UNL     1     -22.310   8.556  -2.684  0.00  0.00    +0.000 C 
ATOM     10  C   UNL     1     -23.396  10.007  -0.984  0.00  0.00    +0.000 C 
ATOM     11  C   UNL     1     -22.089   9.675  -3.589  0.00  0.00    +0.000 C 
ATOM     12  C   UNL     1     -21.223   7.565  -2.714  0.00  0.00    +0.000 C 
ENDBRANCH   3   4
ENDBRANCH   2   3
BRANCH   2  13
ATOM     13  C   UNL     1     -17.049   6.066  -1.302  0.00  0.00    +0.000 C 
BRANCH  13  14
ATOM     14  C   UNL     1     -16.560   7.224  -0.530  0.00  0.00    +0.000 A 
ATOM     15  C   UNL     1     -17.177   7.581   0.674  0.00  0.00    +0.000 A 
ATOM     16  C   UNL     1     -16.749   8.695   1.395  0.00  0.00    +0.000 A 
ATOM     17  C   UNL     1     -15.701   9.473   0.915  0.00  0.00    +0.000 A 
ATOM     18  C   UNL     1     -15.084   9.138  -0.286  0.00  0.00    +0.000 A 
ATOM     19  C   UNL     1     -15.517   8.023  -1.003  0.00  0.00    +0.000 A 
ENDBRANCH  13  14
BRANCH  13  20
ATOM     20  C   UNL     1     -16.396   4.802  -1.157  0.00  0.00    +0.000 C 
BRANCH  20  21
ATOM     21  O   UNL     1     -15.789   3.628  -1.022  0.00  0.00    +0.000 OA
ATOM     22  H   UNL     1     -15.035   3.561  -1.635  0.00  0.00    +0.000 HD
ENDBRANCH  20  21
ENDBRANCH  13  20
ENDBRANCH   2  13
TORSDOF 6
ENDMDL
MODEL 5
REMARK VINA RESULT:      -4.6      2.499      5.750
REMARK  Name = Hyoscyamine.pdbqt.pdb
REMARK  6 active torsions:
REMARK  status: ('A' for Active; 'I' for Inactive)
REMARK    1  A    between atoms: C_2  and  O_3
REMARK    2  A    between atoms: C_2  and  C_13
REMARK    3  A    between atoms: O_3  and  C_4
REMARK    4  A    between atoms: C_13  and  C_14
REMARK    5  A    between atoms: C_13  and  C_20
REMARK    6  A    between atoms: C_20  and  O_21
REMARK                            x       y       z     vdW  Elec       q    Type
REMARK                         _______ _______ _______ _____ _____    ______ ____
ROOT
ATOM      1  O   UNL     1     -17.595   9.292  -4.014  0.00  0.00    +0.000 OA
ATOM      2  C   UNL     1     -16.571   9.863  -3.661  0.00  0.00    +0.000 C 
ENDROOT
BRANCH   2   3
ATOM      3  O   UNL     1     -16.472  10.885  -2.761  0.00  0.00    +0.000 OA
BRANCH   3   4
ATOM      4  C   UNL     1     -16.637  10.465  -1.441  0.00  0.00    +0.000 C 
ATOM      5  C   UNL     1     -15.628   9.650  -0.787  0.00  0.00    +0.000 C 
ATOM      6  C   UNL     1     -15.862   8.509   0.108  0.00  0.00    +0.000 C 
ATOM      7  N   UNL     1     -17.026   7.754  -0.546  0.00  0.00    +0.000 NA
ATOM      8  C   UNL     1     -16.379   8.901   1.408  0.00  0.00    +0.000 C 
ATOM      9  C   UNL     1     -18.133   8.748  -0.162  0.00  0.00    +0.000 C 
ATOM     10  C   UNL     1     -17.238   6.442   0.085  0.00  0.00    +0.000 C 
ATOM     11  C   UNL     1     -17.891   9.059   1.240  0.00  0.00    +0.000 C 
ATOM     12  C   UNL     1     -17.912   9.895  -1.056  0.00  0.00    +0.000 C 
ENDBRANCH   3   4
ENDBRANCH   2   3
BRANCH   2  13
ATOM     13  C   UNL     1     -15.226   9.534  -4.220  0.00  0.00    +0.000 C 
BRANCH  13  14
ATOM     14  C   UNL     1     -14.719   8.159  -4.380  0.00  0.00    +0.000 A 
ATOM     15  C   UNL     1     -14.059   7.782  -5.555  0.00  0.00    +0.000 A 
ATOM     16  C   UNL     1     -13.607   6.475  -5.735  0.00  0.00    +0.000 A 
ATOM     17  C   UNL     1     -13.818   5.524  -4.742  0.00  0.00    +0.000 A 
ATOM     18  C   UNL     1     -14.481   5.880  -3.572  0.00  0.00    +0.000 A 
ATOM     19  C   UNL     1     -14.932   7.188  -3.398  0.00  0.00    +0.000 A 
ENDBRANCH  13  14
BRANCH  13  20
ATOM     20  C   UNL     1     -14.431  10.632  -4.679  0.00  0.00    +0.000 C 
BRANCH  20  21
ATOM     21  O   UNL     1     -13.692  11.650  -5.106  0.00  0.00    +0.000 OA
ATOM     22  H   UNL     1     -12.820  11.644  -4.673  0.00  0.00    +0.000 HD
ENDBRANCH  20  21
ENDBRANCH  13  20
ENDBRANCH   2  13
TORSDOF 6
ENDMDL
MODEL 6
REMARK VINA RESULT:      -4.5     24.850     26.036
REMARK  Name = Hyoscyamine.pdbqt.pdb
REMARK  6 active torsions:
REMARK  status: ('A' for Active; 'I' for Inactive)
REMARK    1  A    between atoms: C_2  and  O_3
REMARK    2  A    between atoms: C_2  and  C_13
REMARK    3  A    between atoms: O_3  and  C_4
REMARK    4  A    between atoms: C_13  and  C_14
REMARK    5  A    between atoms: C_13  and  C_20
REMARK    6  A    between atoms: C_20  and  O_21
REMARK                            x       y       z     vdW  Elec       q    Type
REMARK                         _______ _______ _______ _____ _____    ______ ____
ROOT
ATOM      1  O   UNL     1     -11.367  20.758  22.016  0.00  0.00    +0.000 OA
ATOM      2  C   UNL     1     -12.047  20.166  21.187  0.00  0.00    +0.000 C 
ENDROOT
BRANCH   2   3
ATOM      3  O   UNL     1     -12.233  20.514  19.881  0.00  0.00    +0.000 OA
BRANCH   3   4
ATOM      4  C   UNL     1     -12.396  21.888  19.702  0.00  0.00    +0.000 C 
ATOM      5  C   UNL     1     -13.592  22.565  20.172  0.00  0.00    +0.000 C 
ATOM      6  C   UNL     1     -14.335  23.623  19.475  0.00  0.00    +0.000 C 
ATOM      7  N   UNL     1     -14.341  23.173  18.008  0.00  0.00    +0.000 NA
ATOM      8  C   UNL     1     -13.632  24.894  19.454  0.00  0.00    +0.000 C 
ATOM      9  C   UNL     1     -12.871  23.504  17.706  0.00  0.00    +0.000 C 
ATOM     10  C   UNL     1     -15.254  23.992  17.197  0.00  0.00    +0.000 C 
ATOM     11  C   UNL     1     -12.658  24.827  18.277  0.00  0.00    +0.000 C 
ATOM     12  C   UNL     1     -12.114  22.448  18.395  0.00  0.00    +0.000 C 
ENDBRANCH   3   4
ENDBRANCH   2   3
BRANCH   2  13
ATOM     13  C   UNL     1     -12.838  18.942  21.514  0.00  0.00    +0.000 C 
BRANCH  13  14
ATOM     14  C   UNL     1     -14.227  18.972  22.009  0.00  0.00    +0.000 A 
ATOM     15  C   UNL     1     -14.511  18.635  23.338  0.00  0.00    +0.000 A 
ATOM     16  C   UNL     1     -15.822  18.624  23.809  0.00  0.00    +0.000 A 
ATOM     17  C   UNL     1     -16.871  18.941  22.953  0.00  0.00    +0.000 A 
ATOM     18  C   UNL     1     -16.608  19.267  21.627  0.00  0.00    +0.000 A 
ATOM     19  C   UNL     1     -15.294  19.277  21.161  0.00  0.00    +0.000 A 
ENDBRANCH  13  14
BRANCH  13  20
ATOM     20  C   UNL     1     -12.211  17.681  21.262  0.00  0.00    +0.000 C 
BRANCH  20  21
ATOM     21  O   UNL     1     -11.629  16.510  21.028  0.00  0.00    +0.000 OA
ATOM     22  H   UNL     1     -10.676  16.559  21.218  0.00  0.00    +0.000 HD
ENDBRANCH  20  21
ENDBRANCH  13  20
ENDBRANCH   2  13
TORSDOF 6
ENDMDL
MODEL 7
REMARK VINA RESULT:      -4.5     13.062     14.782
REMARK  Name = Hyoscyamine.pdbqt.pdb
REMARK  6 active torsions:
REMARK  status: ('A' for Active; 'I' for Inactive)
REMARK    1  A    between atoms: C_2  and  O_3
REMARK    2  A    between atoms: C_2  and  C_13
REMARK    3  A    between atoms: O_3  and  C_4
REMARK    4  A    between atoms: C_13  and  C_14
REMARK    5  A    between atoms: C_13  and  C_20
REMARK    6  A    between atoms: C_20  and  O_21
REMARK                            x       y       z     vdW  Elec       q    Type
REMARK                         _______ _______ _______ _____ _____    ______ ____
ROOT
ATOM      1  O   UNL     1      -3.385   1.161   0.847  0.00  0.00    +0.000 OA
ATOM      2  C   UNL     1      -3.306   1.379   2.050  0.00  0.00    +0.000 C 
ENDROOT
BRANCH   2   3
ATOM      3  O   UNL     1      -2.388   2.167   2.681  0.00  0.00    +0.000 OA
BRANCH   3   4
ATOM      4  C   UNL     1      -2.712   3.523   2.633  0.00  0.00    +0.000 C 
ATOM      5  C   UNL     1      -2.765   4.234   1.368  0.00  0.00    +0.000 C 
ATOM      6  C   UNL     1      -2.278   5.593   1.101  0.00  0.00    +0.000 C 
ATOM      7  N   UNL     1      -0.953   5.675   1.871  0.00  0.00    +0.000 NA
ATOM      8  C   UNL     1      -3.104   6.624   1.706  0.00  0.00    +0.000 C 
ATOM      9  C   UNL     1      -1.562   5.778   3.279  0.00  0.00    +0.000 C 
ATOM     10  C   UNL     1      -0.200   6.888   1.521  0.00  0.00    +0.000 C 
ATOM     11  C   UNL     1      -2.633   6.757   3.155  0.00  0.00    +0.000 C 
ATOM     12  C   UNL     1      -2.050   4.419   3.560  0.00  0.00    +0.000 C 
ENDBRANCH   3   4
ENDBRANCH   2   3
BRANCH   2  13
ATOM     13  C   UNL     1      -4.223   0.751   3.048  0.00  0.00    +0.000 C 
BRANCH  13  14
ATOM     14  C   UNL     1      -5.649   1.100   3.184  0.00  0.00    +0.000 A 
ATOM     15  C   UNL     1      -6.197   1.349   4.447  0.00  0.00    +0.000 A 
ATOM     16  C   UNL     1      -7.552   1.644   4.594  0.00  0.00    +0.000 A 
ATOM     17  C   UNL     1      -8.379   1.686   3.477  0.00  0.00    +0.000 A 
ATOM     18  C   UNL     1      -7.852   1.431   2.215  0.00  0.00    +0.000 A 
ATOM     19  C   UNL     1      -6.497   1.136   2.074  0.00  0.00    +0.000 A 
ENDBRANCH  13  14
BRANCH  13  20
ATOM     20  C   UNL     1      -3.676  -0.292   3.861  0.00  0.00    +0.000 C 
BRANCH  20  21
ATOM     21  O   UNL     1      -3.169  -1.260   4.616  0.00  0.00    +0.000 OA
ATOM     22  H   UNL     1      -2.553  -1.809   4.098  0.00  0.00    +0.000 HD
ENDBRANCH  20  21
ENDBRANCH  13  20
ENDBRANCH   2  13
TORSDOF 6
ENDMDL
MODEL 8
REMARK VINA RESULT:      -4.4     15.773     17.386
REMARK  Name = Hyoscyamine.pdbqt.pdb
REMARK  6 active torsions:
REMARK  status: ('A' for Active; 'I' for Inactive)
REMARK    1  A    between atoms: C_2  and  O_3
REMARK    2  A    between atoms: C_2  and  C_13
REMARK    3  A    between atoms: O_3  and  C_4
REMARK    4  A    between atoms: C_13  and  C_14
REMARK    5  A    between atoms: C_13  and  C_20
REMARK    6  A    between atoms: C_20  and  O_21
REMARK                            x       y       z     vdW  Elec       q    Type
REMARK                         _______ _______ _______ _____ _____    ______ ____
ROOT
ATOM      1  O   UNL     1      -2.412  19.068   8.022  0.00  0.00    +0.000 OA
ATOM      2  C   UNL     1      -3.003  17.995   8.015  0.00  0.00    +0.000 C 
ENDROOT
BRANCH   2   3
ATOM      3  O   UNL     1      -2.664  16.878   7.309  0.00  0.00    +0.000 OA
BRANCH   3   4
ATOM      4  C   UNL     1      -3.405  16.729   6.137  0.00  0.00    +0.000 C 
ATOM      5  C   UNL     1      -3.361  15.490   5.379  0.00  0.00    +0.000 C 
ATOM      6  C   UNL     1      -3.314  15.354   3.918  0.00  0.00    +0.000 C 
ATOM      7  N   UNL     1      -2.349  16.460   3.470  0.00  0.00    +0.000 NA
ATOM      8  C   UNL     1      -4.570  15.697   3.273  0.00  0.00    +0.000 C 
ATOM      9  C   UNL     1      -3.304  17.643   3.692  0.00  0.00    +0.000 C 
ATOM     10  C   UNL     1      -1.990  16.318   2.051  0.00  0.00    +0.000 C 
ATOM     11  C   UNL     1      -4.572  17.218   3.114  0.00  0.00    +0.000 C 
ATOM     12  C   UNL     1      -3.357  17.793   5.155  0.00  0.00    +0.000 C 
ENDBRANCH   3   4
ENDBRANCH   2   3
BRANCH   2  13
ATOM     13  C   UNL     1      -4.261  17.759   8.785  0.00  0.00    +0.000 C 
BRANCH  13  14
ATOM     14  C   UNL     1      -4.400  16.728   9.831  0.00  0.00    +0.000 A 
ATOM     15  C   UNL     1      -5.631  16.530  10.467  0.00  0.00    +0.000 A 
ATOM     16  C   UNL     1      -5.769  15.585  11.482  0.00  0.00    +0.000 A 
ATOM     17  C   UNL     1      -4.671  14.829  11.881  0.00  0.00    +0.000 A 
ATOM     18  C   UNL     1      -3.438  15.020  11.266  0.00  0.00    +0.000 A 
ATOM     19  C   UNL     1      -3.307  15.968  10.251  0.00  0.00    +0.000 A 
ENDBRANCH  13  14
BRANCH  13  20
ATOM     20  C   UNL     1      -5.356  18.640   8.519  0.00  0.00    +0.000 C 
BRANCH  20  21
ATOM     21  O   UNL     1      -6.374  19.458   8.272  0.00  0.00    +0.000 OA
ATOM     22  H   UNL     1      -7.168  18.950   8.029  0.00  0.00    +0.000 HD
ENDBRANCH  20  21
ENDBRANCH  13  20
ENDBRANCH   2  13
TORSDOF 6
ENDMDL
MODEL 9
REMARK VINA RESULT:      -4.1     18.570     21.230
REMARK  Name = Hyoscyamine.pdbqt.pdb
REMARK  6 active torsions:
REMARK  status: ('A' for Active; 'I' for Inactive)
REMARK    1  A    between atoms: C_2  and  O_3
REMARK    2  A    between atoms: C_2  and  C_13
REMARK    3  A    between atoms: O_3  and  C_4
REMARK    4  A    between atoms: C_13  and  C_14
REMARK    5  A    between atoms: C_13  and  C_20
REMARK    6  A    between atoms: C_20  and  O_21
REMARK                            x       y       z     vdW  Elec       q    Type
REMARK                         _______ _______ _______ _____ _____    ______ ____
ROOT
ATOM      1  O   UNL     1      -3.005  16.271  14.322  0.00  0.00    +0.000 OA
ATOM      2  C   UNL     1      -2.923  15.151  13.835  0.00  0.00    +0.000 C 
ENDROOT
BRANCH   2   3
ATOM      3  O   UNL     1      -2.854  13.967  14.511  0.00  0.00    +0.000 OA
BRANCH   3   4
ATOM      4  C   UNL     1      -4.035  13.655  15.184  0.00  0.00    +0.000 C 
ATOM      5  C   UNL     1      -5.318  13.714  14.506  0.00  0.00    +0.000 C 
ATOM      6  C   UNL     1      -6.580  14.228  15.052  0.00  0.00    +0.000 C 
ATOM      7  N   UNL     1      -6.166  15.483  15.832  0.00  0.00    +0.000 NA
ATOM      8  C   UNL     1      -7.160  13.359  16.061  0.00  0.00    +0.000 C 
ATOM      9  C   UNL     1      -5.524  14.758  17.025  0.00  0.00    +0.000 C 
ATOM     10  C   UNL     1      -7.337  16.269  16.248  0.00  0.00    +0.000 C 
ATOM     11  C   UNL     1      -6.467  13.707  17.379  0.00  0.00    +0.000 C 
ATOM     12  C   UNL     1      -4.254  14.241  16.492  0.00  0.00    +0.000 C 
ENDBRANCH   3   4
ENDBRANCH   2   3
BRANCH   2  13
ATOM     13  C   UNL     1      -2.845  14.911  12.363  0.00  0.00    +0.000 C 
BRANCH  13  14
ATOM     14  C   UNL     1      -3.710  15.584  11.376  0.00  0.00    +0.000 A 
ATOM     15  C   UNL     1      -3.156  16.160  10.228  0.00  0.00    +0.000 A 
ATOM     16  C   UNL     1      -3.957  16.831   9.305  0.00  0.00    +0.000 A 
ATOM     17  C   UNL     1      -5.326  16.942   9.524  0.00  0.00    +0.000 A 
ATOM     18  C   UNL     1      -5.891  16.384  10.665  0.00  0.00    +0.000 A 
ATOM     19  C   UNL     1      -5.085  15.714  11.585  0.00  0.00    +0.000 A 
ENDBRANCH  13  14
BRANCH  13  20
ATOM     20  C   UNL     1      -1.820  14.024  11.906  0.00  0.00    +0.000 C 
BRANCH  20  21
ATOM     21  O   UNL     1      -0.868  13.199  11.481  0.00  0.00    +0.000 OA
ATOM     22  H   UNL     1      -0.165  13.695  11.027  0.00  0.00    +0.000 HD
ENDBRANCH  20  21
ENDBRANCH  13  20
ENDBRANCH   2  13
TORSDOF 6
ENDMDL
