MODEL 1
REMARK VINA RESULT:      -6.8      0.000      0.000
REMARK  Name = 
REMARK  21 active torsions:
REMARK  status: ('A' for Active; 'I' for Inactive)
REMARK    1  A    between atoms: O_3  and  C_22
REMARK    2  A    between atoms: O_3  and  C_28
REMARK    3  A    between atoms: O_4  and  C_25
REMARK    4  A    between atoms: O_4  and  C_30
REMARK    5  A    between atoms: O_5  and  C_16
REMARK    6  A    between atoms: O_6  and  C_17
REMARK    7  A    between atoms: O_7  and  C_18
REMARK    8  A    between atoms: O_8  and  C_20
REMARK    9  A    between atoms: O_9  and  C_21
REMARK   10  A    between atoms: O_10  and  C_23
REMARK   11  A    between atoms: O_11  and  C_26
REMARK   12  A    between atoms: O_13  and  C_36
REMARK   13  A    between atoms: O_15  and  C_45
REMARK   14  A    between atoms: O_15  and  C_48
REMARK   15  A    between atoms: C_19  and  C_26
REMARK   16  A    between atoms: C_24  and  C_27
REMARK   17  A    between atoms: C_29  and  C_37
REMARK   18  A    between atoms: C_35  and  C_38
REMARK   19  A    between atoms: C_37  and  C_39
REMARK   20  A    between atoms: C_42  and  C_46
REMARK   21  A    between atoms: C_42  and  C_47
REMARK                            x       y       z     vdW  Elec       q    Type
REMARK                         _______ _______ _______ _____ _____    ______ ____
ROOT
ATOM      1  O   UNL     1     -15.252   6.130  -1.852  0.00  0.00    +0.000 OA
ATOM      2  O   UNL     1     -19.085   4.963  -1.199  0.00  0.00    +0.000 OA
ATOM      3  C   UNL     1     -14.772   2.503  -1.855  0.00  0.00    +0.000 A 
ATOM      4  C   UNL     1     -14.487   3.878  -1.932  0.00  0.00    +0.000 A 
ATOM      5  C   UNL     1     -17.550   6.762  -1.447  0.00  0.00    +0.000 A 
ATOM      6  C   UNL     1     -15.550   4.791  -1.773  0.00  0.00    +0.000 A 
ATOM      7  C   UNL     1     -16.851   4.338  -1.554  0.00  0.00    +0.000 A 
ATOM      8  C   UNL     1     -17.924   5.326  -1.382  0.00  0.00    +0.000 A 
ATOM      9  C   UNL     1     -16.083   2.050  -1.677  0.00  0.00    +0.000 A 
ATOM     10  C   UNL     1     -16.253   7.059  -1.643  0.00  0.00    +0.000 A 
ATOM     11  C   UNL     1     -17.115   2.967  -1.512  0.00  0.00    +0.000 A 
ENDROOT
BRANCH  10  12
ATOM     12  C   UNL     1     -15.767   8.447  -1.701  0.00  0.00    +0.000 A 
ATOM     13  C   UNL     1     -15.317   8.978  -2.914  0.00  0.00    +0.000 A 
ATOM     14  C   UNL     1     -15.734   9.252  -0.555  0.00  0.00    +0.000 A 
ATOM     15  C   UNL     1     -14.858  10.296  -2.979  0.00  0.00    +0.000 A 
ATOM     16  C   UNL     1     -15.277  10.573  -0.623  0.00  0.00    +0.000 A 
ATOM     17  C   UNL     1     -14.842  11.103  -1.838  0.00  0.00    +0.000 A 
BRANCH  17  18
ATOM     18  O   UNL     1     -14.376  12.371  -2.042  0.00  0.00    +0.000 OA
ATOM     19  C   UNL     1     -13.751  13.011  -0.937  0.00  0.00    +0.000 C 
ENDBRANCH  17  18
ENDBRANCH  10  12
BRANCH  11  20
ATOM     20  O   UNL     1     -18.367   2.449  -1.323  0.00  0.00    +0.000 OA
ATOM     21  H   UNL     1     -18.422   1.591  -1.801  0.00  0.00    +0.000 HD
ENDBRANCH  11  20
BRANCH   4  22
ATOM     22  C   UNL     1     -13.072   4.382  -2.140  0.00  0.00    +0.000 C 
BRANCH  22  23
ATOM     23  C   UNL     1     -12.572   4.126  -3.538  0.00  0.00    +0.000 C 
ATOM     24  C   UNL     1     -12.847   4.807  -4.669  0.00  0.00    +0.000 C 
ATOM     25  C   UNL     1     -13.741   6.012  -4.770  0.00  0.00    +0.000 C 
ATOM     26  C   UNL     1     -12.236   4.383  -5.979  0.00  0.00    +0.000 C 
ENDBRANCH  22  23
ENDBRANCH   4  22
BRANCH   5  27
ATOM     27  O   UNL     1     -18.518   7.725  -1.227  0.00  0.00    +0.000 OA
BRANCH  27  33
ATOM     28  O   UNL     1     -19.174   7.992  -3.488  0.00  0.00    +0.000 OA
ATOM     29  C   UNL     1     -20.362  10.018  -1.814  0.00  0.00    +0.000 C 
ATOM     30  C   UNL     1     -19.863  10.330  -3.231  0.00  0.00    +0.000 C 
ATOM     31  C   UNL     1     -20.753   8.547  -1.678  0.00  0.00    +0.000 C 
ATOM     32  C   UNL     1     -18.742   9.354  -3.612  0.00  0.00    +0.000 C 
ATOM     33  C   UNL     1     -19.600   7.642  -2.163  0.00  0.00    +0.000 C 
ATOM     34  C   UNL     1     -18.288   9.560  -5.053  0.00  0.00    +0.000 C 
BRANCH  29  35
ATOM     35  O   UNL     1     -21.496  10.860  -1.539  0.00  0.00    +0.000 OA
ATOM     36  H   UNL     1     -21.850  11.101  -2.421  0.00  0.00    +0.000 HD
ENDBRANCH  29  35
BRANCH  30  37
ATOM     37  O   UNL     1     -19.405  11.686  -3.271  0.00  0.00    +0.000 OA
ATOM     38  H   UNL     1     -18.429  11.627  -3.311  0.00  0.00    +0.000 HD
ENDBRANCH  30  37
BRANCH  31  39
ATOM     39  O   UNL     1     -21.962   8.347  -2.440  0.00  0.00    +0.000 OA
ATOM     40  H   UNL     1     -22.124   7.386  -2.476  0.00  0.00    +0.000 HD
ENDBRANCH  31  39
ENDBRANCH  27  33
ENDBRANCH   5  27
BRANCH   3  41
ATOM     41  O   UNL     1     -13.762   1.597  -2.060  0.00  0.00    +0.000 OA
BRANCH  41  47
ATOM     42  O   UNL     1     -12.452   1.180  -0.135  0.00  0.00    +0.000 OA
ATOM     43  C   UNL     1     -12.936  -1.627  -0.354  0.00  0.00    +0.000 C 
ATOM     44  C   UNL     1     -11.833  -1.067   0.549  0.00  0.00    +0.000 C 
ATOM     45  C   UNL     1     -13.251  -0.662  -1.495  0.00  0.00    +0.000 C 
ATOM     46  C   UNL     1     -12.218   0.344   1.013  0.00  0.00    +0.000 C 
ATOM     47  C   UNL     1     -13.555   0.735  -0.922  0.00  0.00    +0.000 C 
BRANCH  44  48
ATOM     48  O   UNL     1     -11.646  -1.949   1.658  0.00  0.00    +0.000 OA
ATOM     49  H   UNL     1     -11.977  -1.454   2.436  0.00  0.00    +0.000 HD
ENDBRANCH  44  48
BRANCH  45  50
ATOM     50  O   UNL     1     -14.357  -1.190  -2.246  0.00  0.00    +0.000 OA
ATOM     51  H   UNL     1     -14.035  -2.021  -2.648  0.00  0.00    +0.000 HD
ENDBRANCH  45  50
BRANCH  43  52
ATOM     52  O   UNL     1     -12.511  -2.896  -0.876  0.00  0.00    +0.000 OA
ATOM     53  H   UNL     1     -12.045  -3.334  -0.135  0.00  0.00    +0.000 HD
ENDBRANCH  43  52
BRANCH  46  54
ATOM     54  C   UNL     1     -11.101   0.975   1.854  0.00  0.00    +0.000 C 
BRANCH  54  55
ATOM     55  O   UNL     1     -11.607   1.325   3.145  0.00  0.00    +0.000 OA
ATOM     56  H   UNL     1     -12.075   0.544   3.485  0.00  0.00    +0.000 HD
ENDBRANCH  54  55
ENDBRANCH  46  54
ENDBRANCH  41  47
ENDBRANCH   3  41
TORSDOF 17
ENDMDL
MODEL 2
REMARK VINA RESULT:      -6.7     11.194     14.868
REMARK  Name = 
REMARK  21 active torsions:
REMARK  status: ('A' for Active; 'I' for Inactive)
REMARK    1  A    between atoms: O_3  and  C_22
REMARK    2  A    between atoms: O_3  and  C_28
REMARK    3  A    between atoms: O_4  and  C_25
REMARK    4  A    between atoms: O_4  and  C_30
REMARK    5  A    between atoms: O_5  and  C_16
REMARK    6  A    between atoms: O_6  and  C_17
REMARK    7  A    between atoms: O_7  and  C_18
REMARK    8  A    between atoms: O_8  and  C_20
REMARK    9  A    between atoms: O_9  and  C_21
REMARK   10  A    between atoms: O_10  and  C_23
REMARK   11  A    between atoms: O_11  and  C_26
REMARK   12  A    between atoms: O_13  and  C_36
REMARK   13  A    between atoms: O_15  and  C_45
REMARK   14  A    between atoms: O_15  and  C_48
REMARK   15  A    between atoms: C_19  and  C_26
REMARK   16  A    between atoms: C_24  and  C_27
REMARK   17  A    between atoms: C_29  and  C_37
REMARK   18  A    between atoms: C_35  and  C_38
REMARK   19  A    between atoms: C_37  and  C_39
REMARK   20  A    between atoms: C_42  and  C_46
REMARK   21  A    between atoms: C_42  and  C_47
REMARK                            x       y       z     vdW  Elec       q    Type
REMARK                         _______ _______ _______ _____ _____    ______ ____
ROOT
ATOM      1  O   UNL     1     -24.118  13.400   5.673  0.00  0.00    +0.000 OA
ATOM      2  O   UNL     1     -22.111  12.550   9.098  0.00  0.00    +0.000 OA
ATOM      3  C   UNL     1     -24.107   9.747   5.459  0.00  0.00    +0.000 A 
ATOM      4  C   UNL     1     -24.347  11.094   5.131  0.00  0.00    +0.000 A 
ATOM      5  C   UNL     1     -22.969  14.217   7.636  0.00  0.00    +0.000 A 
ATOM      6  C   UNL     1     -23.873  12.090   6.009  0.00  0.00    +0.000 A 
ATOM      7  C   UNL     1     -23.192  11.745   7.177  0.00  0.00    +0.000 A 
ATOM      8  C   UNL     1     -22.706  12.817   8.055  0.00  0.00    +0.000 A 
ATOM      9  C   UNL     1     -23.460   9.401   6.649  0.00  0.00    +0.000 A 
ATOM     10  C   UNL     1     -23.620  14.408   6.475  0.00  0.00    +0.000 A 
ATOM     11  C   UNL     1     -22.992  10.400   7.496  0.00  0.00    +0.000 A 
ENDROOT
BRANCH  10  12
ATOM     12  C   UNL     1     -23.913  15.752   5.953  0.00  0.00    +0.000 A 
ATOM     13  C   UNL     1     -22.904  16.494   5.328  0.00  0.00    +0.000 A 
ATOM     14  C   UNL     1     -25.188  16.317   6.079  0.00  0.00    +0.000 A 
ATOM     15  C   UNL     1     -23.175  17.768   4.826  0.00  0.00    +0.000 A 
ATOM     16  C   UNL     1     -25.458  17.593   5.572  0.00  0.00    +0.000 A 
ATOM     17  C   UNL     1     -24.453  18.323   4.938  0.00  0.00    +0.000 A 
BRANCH  17  18
ATOM     18  O   UNL     1     -24.583  19.572   4.399  0.00  0.00    +0.000 OA
ATOM     19  C   UNL     1     -24.074  19.761   3.085  0.00  0.00    +0.000 C 
ENDBRANCH  17  18
ENDBRANCH  10  12
BRANCH  11  20
ATOM     20  O   UNL     1     -22.352   9.985   8.633  0.00  0.00    +0.000 OA
ATOM     21  H   UNL     1     -22.193   9.017   8.562  0.00  0.00    +0.000 HD
ENDBRANCH  11  20
BRANCH   4  22
ATOM     22  C   UNL     1     -25.061  11.480   3.851  0.00  0.00    +0.000 C 
BRANCH  22  23
ATOM     23  C   UNL     1     -24.228  11.211   2.625  0.00  0.00    +0.000 C 
ATOM     24  C   UNL     1     -23.247  11.965   2.090  0.00  0.00    +0.000 C 
ATOM     25  C   UNL     1     -22.761  13.281   2.631  0.00  0.00    +0.000 C 
ATOM     26  C   UNL     1     -22.528  11.508   0.848  0.00  0.00    +0.000 C 
ENDBRANCH  22  23
ENDBRANCH   4  22
BRANCH   5  27
ATOM     27  O   UNL     1     -22.474  15.257   8.402  0.00  0.00    +0.000 OA
BRANCH  27  33
ATOM     28  O   UNL     1     -23.949  16.986   9.071  0.00  0.00    +0.000 OA
ATOM     29  C   UNL     1     -21.662  16.835  10.821  0.00  0.00    +0.000 C 
ATOM     30  C   UNL     1     -22.279  18.178  10.411  0.00  0.00    +0.000 C 
ATOM     31  C   UNL     1     -22.699  15.713  10.772  0.00  0.00    +0.000 C 
ATOM     32  C   UNL     1     -22.972  18.036   9.050  0.00  0.00    +0.000 C 
ATOM     33  C   UNL     1     -23.404  15.700   9.398  0.00  0.00    +0.000 C 
ATOM     34  C   UNL     1     -23.691  19.321   8.652  0.00  0.00    +0.000 C 
BRANCH  29  35
ATOM     35  O   UNL     1     -21.138  16.967  12.155  0.00  0.00    +0.000 OA
ATOM     36  H   UNL     1     -20.586  16.168  12.288  0.00  0.00    +0.000 HD
ENDBRANCH  29  35
BRANCH  30  37
ATOM     37  O   UNL     1     -21.245  19.168  10.365  0.00  0.00    +0.000 OA
ATOM     38  H   UNL     1     -21.620  19.953  10.813  0.00  0.00    +0.000 HD
ENDBRANCH  30  37
BRANCH  31  39
ATOM     39  O   UNL     1     -23.624  15.928  11.859  0.00  0.00    +0.000 OA
ATOM     40  H   UNL     1     -23.294  15.418  12.622  0.00  0.00    +0.000 HD
ENDBRANCH  31  39
ENDBRANCH  27  33
ENDBRANCH   5  27
BRANCH   3  41
ATOM     41  O   UNL     1     -24.606   8.761   4.646  0.00  0.00    +0.000 OA
BRANCH  41  47
ATOM     42  O   UNL     1     -25.268   6.826   5.836  0.00  0.00    +0.000 OA
ATOM     43  C   UNL     1     -27.866   6.927   4.653  0.00  0.00    +0.000 C 
ATOM     44  C   UNL     1     -27.362   5.680   5.385  0.00  0.00    +0.000 C 
ATOM     45  C   UNL     1     -26.700   7.754   4.113  0.00  0.00    +0.000 C 
ATOM     46  C   UNL     1     -26.340   6.093   6.454  0.00  0.00    +0.000 C 
ATOM     47  C   UNL     1     -25.707   8.051   5.251  0.00  0.00    +0.000 C 
BRANCH  44  48
ATOM     48  O   UNL     1     -28.475   4.996   5.963  0.00  0.00    +0.000 OA
ATOM     49  H   UNL     1     -28.454   4.098   5.572  0.00  0.00    +0.000 HD
ENDBRANCH  44  48
BRANCH  45  50
ATOM     50  O   UNL     1     -27.227   8.956   3.528  0.00  0.00    +0.000 OA
ATOM     51  H   UNL     1     -26.513   9.621   3.595  0.00  0.00    +0.000 HD
ENDBRANCH  45  50
BRANCH  43  52
ATOM     52  O   UNL     1     -28.729   6.520   3.579  0.00  0.00    +0.000 OA
ATOM     53  H   UNL     1     -29.245   7.319   3.350  0.00  0.00    +0.000 HD
ENDBRANCH  43  52
BRANCH  46  54
ATOM     54  C   UNL     1     -25.747   4.864   7.156  0.00  0.00    +0.000 C 
BRANCH  54  55
ATOM     55  O   UNL     1     -24.321   4.895   7.062  0.00  0.00    +0.000 OA
ATOM     56  H   UNL     1     -23.982   5.052   7.959  0.00  0.00    +0.000 HD
ENDBRANCH  54  55
ENDBRANCH  46  54
ENDBRANCH  41  47
ENDBRANCH   3  41
TORSDOF 17
ENDMDL
MODEL 3
REMARK VINA RESULT:      -6.7     19.979     23.764
REMARK  Name = 
REMARK  21 active torsions:
REMARK  status: ('A' for Active; 'I' for Inactive)
REMARK    1  A    between atoms: O_3  and  C_22
REMARK    2  A    between atoms: O_3  and  C_28
REMARK    3  A    between atoms: O_4  and  C_25
REMARK    4  A    between atoms: O_4  and  C_30
REMARK    5  A    between atoms: O_5  and  C_16
REMARK    6  A    between atoms: O_6  and  C_17
REMARK    7  A    between atoms: O_7  and  C_18
REMARK    8  A    between atoms: O_8  and  C_20
REMARK    9  A    between atoms: O_9  and  C_21
REMARK   10  A    between atoms: O_10  and  C_23
REMARK   11  A    between atoms: O_11  and  C_26
REMARK   12  A    between atoms: O_13  and  C_36
REMARK   13  A    between atoms: O_15  and  C_45
REMARK   14  A    between atoms: O_15  and  C_48
REMARK   15  A    between atoms: C_19  and  C_26
REMARK   16  A    between atoms: C_24  and  C_27
REMARK   17  A    between atoms: C_29  and  C_37
REMARK   18  A    between atoms: C_35  and  C_38
REMARK   19  A    between atoms: C_37  and  C_39
REMARK   20  A    between atoms: C_42  and  C_46
REMARK   21  A    between atoms: C_42  and  C_47
REMARK                            x       y       z     vdW  Elec       q    Type
REMARK                         _______ _______ _______ _____ _____    ______ ____
ROOT
ATOM      1  O   UNL     1     -10.304   6.512  20.165  0.00  0.00    +0.000 OA
ATOM      2  O   UNL     1     -10.637   2.984  18.184  0.00  0.00    +0.000 OA
ATOM      3  C   UNL     1     -13.201   5.123  21.917  0.00  0.00    +0.000 A 
ATOM      4  C   UNL     1     -12.172   6.010  21.552  0.00  0.00    +0.000 A 
ATOM      5  C   UNL     1      -9.492   5.055  18.416  0.00  0.00    +0.000 A 
ATOM      6  C   UNL     1     -11.304   5.633  20.507  0.00  0.00    +0.000 A 
ATOM      7  C   UNL     1     -11.458   4.406  19.860  0.00  0.00    +0.000 A 
ATOM      8  C   UNL     1     -10.537   4.061  18.769  0.00  0.00    +0.000 A 
ATOM      9  C   UNL     1     -13.329   3.877  21.296  0.00  0.00    +0.000 A 
ATOM     10  C   UNL     1      -9.469   6.208  19.107  0.00  0.00    +0.000 A 
ATOM     11  C   UNL     1     -12.468   3.528  20.261  0.00  0.00    +0.000 A 
ENDROOT
BRANCH  10  12
ATOM     12  C   UNL     1      -8.492   7.271  18.826  0.00  0.00    +0.000 A 
ATOM     13  C   UNL     1      -8.490   7.905  17.578  0.00  0.00    +0.000 A 
ATOM     14  C   UNL     1      -7.546   7.658  19.783  0.00  0.00    +0.000 A 
ATOM     15  C   UNL     1      -7.568   8.918  17.304  0.00  0.00    +0.000 A 
ATOM     16  C   UNL     1      -6.626   8.676  19.507  0.00  0.00    +0.000 A 
ATOM     17  C   UNL     1      -6.637   9.315  18.267  0.00  0.00    +0.000 A 
BRANCH  17  18
ATOM     18  O   UNL     1      -5.799  10.320  17.872  0.00  0.00    +0.000 OA
ATOM     19  C   UNL     1      -5.652  10.519  16.472  0.00  0.00    +0.000 C 
ENDBRANCH  17  18
ENDBRANCH  10  12
BRANCH  11  20
ATOM     20  O   UNL     1     -12.668   2.301  19.689  0.00  0.00    +0.000 OA
ATOM     21  H   UNL     1     -13.627   2.202  19.497  0.00  0.00    +0.000 HD
ENDBRANCH  11  20
BRANCH   4  22
ATOM     22  C   UNL     1     -12.013   7.358  22.228  0.00  0.00    +0.000 C 
BRANCH  22  23
ATOM     23  C   UNL     1     -10.798   7.414  23.118  0.00  0.00    +0.000 C 
ATOM     24  C   UNL     1      -9.812   8.332  23.141  0.00  0.00    +0.000 C 
ATOM     25  C   UNL     1      -9.721   9.542  22.253  0.00  0.00    +0.000 C 
ATOM     26  C   UNL     1      -8.676   8.203  24.121  0.00  0.00    +0.000 C 
ENDBRANCH  22  23
ENDBRANCH   4  22
BRANCH   5  27
ATOM     27  O   UNL     1      -8.645   4.797  17.353  0.00  0.00    +0.000 OA
BRANCH  27  33
ATOM     28  O   UNL     1      -6.321   5.111  17.693  0.00  0.00    +0.000 OA
ATOM     29  C   UNL     1      -6.817   3.351  15.463  0.00  0.00    +0.000 C 
ATOM     30  C   UNL     1      -5.681   4.380  15.443  0.00  0.00    +0.000 C 
ATOM     31  C   UNL     1      -7.161   2.936  16.894  0.00  0.00    +0.000 C 
ATOM     32  C   UNL     1      -6.032   5.558  16.361  0.00  0.00    +0.000 C 
ATOM     33  C   UNL     1      -7.415   4.185  17.763  0.00  0.00    +0.000 C 
ATOM     34  C   UNL     1      -4.882   6.556  16.454  0.00  0.00    +0.000 C 
BRANCH  29  35
ATOM     35  O   UNL     1      -6.401   2.202  14.701  0.00  0.00    +0.000 OA
ATOM     36  H   UNL     1      -5.446   2.345  14.533  0.00  0.00    +0.000 HD
ENDBRANCH  29  35
BRANCH  30  37
ATOM     37  O   UNL     1      -5.476   4.817  14.095  0.00  0.00    +0.000 OA
ATOM     38  H   UNL     1      -5.476   5.794  14.139  0.00  0.00    +0.000 HD
ENDBRANCH  30  37
BRANCH  31  39
ATOM     39  O   UNL     1      -6.066   2.138  17.390  0.00  0.00    +0.000 OA
ATOM     40  H   UNL     1      -5.990   1.360  16.806  0.00  0.00    +0.000 HD
ENDBRANCH  31  39
ENDBRANCH  27  33
ENDBRANCH   5  27
BRANCH   3  41
ATOM     41  O   UNL     1     -14.023   5.447  22.966  0.00  0.00    +0.000 OA
BRANCH  41  47
ATOM     42  O   UNL     1     -16.342   5.314  22.515  0.00  0.00    +0.000 OA
ATOM     43  C   UNL     1     -16.704   3.467  24.664  0.00  0.00    +0.000 C 
ATOM     44  C   UNL     1     -17.888   4.179  24.005  0.00  0.00    +0.000 C 
ATOM     45  C   UNL     1     -15.420   4.280  24.506  0.00  0.00    +0.000 C 
ATOM     46  C   UNL     1     -17.537   4.515  22.549  0.00  0.00    +0.000 C 
ATOM     47  C   UNL     1     -15.203   4.618  23.019  0.00  0.00    +0.000 C 
BRANCH  44  48
ATOM     48  O   UNL     1     -19.041   3.337  24.083  0.00  0.00    +0.000 OA
ATOM     49  H   UNL     1     -19.640   3.782  24.718  0.00  0.00    +0.000 HD
ENDBRANCH  44  48
BRANCH  45  50
ATOM     50  O   UNL     1     -14.329   3.519  25.052  0.00  0.00    +0.000 OA
ATOM     51  H   UNL     1     -14.063   2.892  24.350  0.00  0.00    +0.000 HD
ENDBRANCH  45  50
BRANCH  43  52
ATOM     52  O   UNL     1     -16.997   3.264  26.056  0.00  0.00    +0.000 OA
ATOM     53  H   UNL     1     -16.350   3.819  26.536  0.00  0.00    +0.000 HD
ENDBRANCH  43  52
BRANCH  46  54
ATOM     54  C   UNL     1     -18.668   5.304  21.874  0.00  0.00    +0.000 C 
BRANCH  54  55
ATOM     55  O   UNL     1     -18.164   5.974  20.716  0.00  0.00    +0.000 OA
ATOM     56  H   UNL     1     -18.110   5.311  20.007  0.00  0.00    +0.000 HD
ENDBRANCH  54  55
ENDBRANCH  46  54
ENDBRANCH  41  47
ENDBRANCH   3  41
TORSDOF 17
ENDMDL
MODEL 4
REMARK VINA RESULT:      -6.4     14.202     18.178
REMARK  Name = 
REMARK  21 active torsions:
REMARK  status: ('A' for Active; 'I' for Inactive)
REMARK    1  A    between atoms: O_3  and  C_22
REMARK    2  A    between atoms: O_3  and  C_28
REMARK    3  A    between atoms: O_4  and  C_25
REMARK    4  A    between atoms: O_4  and  C_30
REMARK    5  A    between atoms: O_5  and  C_16
REMARK    6  A    between atoms: O_6  and  C_17
REMARK    7  A    between atoms: O_7  and  C_18
REMARK    8  A    between atoms: O_8  and  C_20
REMARK    9  A    between atoms: O_9  and  C_21
REMARK   10  A    between atoms: O_10  and  C_23
REMARK   11  A    between atoms: O_11  and  C_26
REMARK   12  A    between atoms: O_13  and  C_36
REMARK   13  A    between atoms: O_15  and  C_45
REMARK   14  A    between atoms: O_15  and  C_48
REMARK   15  A    between atoms: C_19  and  C_26
REMARK   16  A    between atoms: C_24  and  C_27
REMARK   17  A    between atoms: C_29  and  C_37
REMARK   18  A    between atoms: C_35  and  C_38
REMARK   19  A    between atoms: C_37  and  C_39
REMARK   20  A    between atoms: C_42  and  C_46
REMARK   21  A    between atoms: C_42  and  C_47
REMARK                            x       y       z     vdW  Elec       q    Type
REMARK                         _______ _______ _______ _____ _____    ______ ____
ROOT
ATOM      1  O   UNL     1      -4.869  18.403   2.611  0.00  0.00    +0.000 OA
ATOM      2  O   UNL     1      -4.214  14.484   1.776  0.00  0.00    +0.000 OA
ATOM      3  C   UNL     1      -3.250  17.397   5.734  0.00  0.00    +0.000 A 
ATOM      4  C   UNL     1      -3.878  18.200   4.765  0.00  0.00    +0.000 A 
ATOM      5  C   UNL     1      -5.112  16.565   1.059  0.00  0.00    +0.000 A 
ATOM      6  C   UNL     1      -4.257  17.602   3.546  0.00  0.00    +0.000 A 
ATOM      7  C   UNL     1      -4.006  16.251   3.306  0.00  0.00    +0.000 A 
ATOM      8  C   UNL     1      -4.429  15.669   2.026  0.00  0.00    +0.000 A 
ATOM      9  C   UNL     1      -2.961  16.053   5.477  0.00  0.00    +0.000 A 
ATOM     10  C   UNL     1      -5.310  17.844   1.427  0.00  0.00    +0.000 A 
ATOM     11  C   UNL     1      -3.352  15.481   4.272  0.00  0.00    +0.000 A 
ENDROOT
BRANCH  10  12
ATOM     12  C   UNL     1      -5.995  18.812   0.557  0.00  0.00    +0.000 A 
ATOM     13  C   UNL     1      -7.337  18.613   0.213  0.00  0.00    +0.000 A 
ATOM     14  C   UNL     1      -5.326  19.933   0.051  0.00  0.00    +0.000 A 
ATOM     15  C   UNL     1      -7.997  19.530  -0.609  0.00  0.00    +0.000 A 
ATOM     16  C   UNL     1      -5.990  20.852  -0.769  0.00  0.00    +0.000 A 
ATOM     17  C   UNL     1      -7.332  20.657  -1.098  0.00  0.00    +0.000 A 
BRANCH  17  18
ATOM     18  O   UNL     1      -8.095  21.475  -1.884  0.00  0.00    +0.000 OA
ATOM     19  C   UNL     1      -9.161  22.166  -1.246  0.00  0.00    +0.000 C 
ENDBRANCH  17  18
ENDBRANCH  10  12
BRANCH  11  20
ATOM     20  O   UNL     1      -3.053  14.157   4.100  0.00  0.00    +0.000 OA
ATOM     21  H   UNL     1      -2.135  14.090   3.756  0.00  0.00    +0.000 HD
ENDBRANCH  11  20
BRANCH   4  22
ATOM     22  C   UNL     1      -4.182  19.662   5.026  0.00  0.00    +0.000 C 
BRANCH  22  23
ATOM     23  C   UNL     1      -5.550  19.865   5.624  0.00  0.00    +0.000 C 
ATOM     24  C   UNL     1      -6.627  20.466   5.079  0.00  0.00    +0.000 C 
ATOM     25  C   UNL     1      -6.689  21.075   3.706  0.00  0.00    +0.000 C 
ATOM     26  C   UNL     1      -7.916  20.563   5.853  0.00  0.00    +0.000 C 
ENDBRANCH  22  23
ENDBRANCH   4  22
BRANCH   5  27
ATOM     27  O   UNL     1      -5.583  16.043  -0.132  0.00  0.00    +0.000 OA
BRANCH  27  33
ATOM     28  O   UNL     1      -4.782  17.098  -2.096  0.00  0.00    +0.000 OA
ATOM     29  C   UNL     1      -5.882  14.498  -2.687  0.00  0.00    +0.000 C 
ATOM     30  C   UNL     1      -6.075  15.691  -3.631  0.00  0.00    +0.000 C 
ATOM     31  C   UNL     1      -4.606  14.651  -1.859  0.00  0.00    +0.000 C 
ATOM     32  C   UNL     1      -6.009  16.999  -2.833  0.00  0.00    +0.000 C 
ATOM     33  C   UNL     1      -4.586  16.027  -1.161  0.00  0.00    +0.000 C 
ATOM     34  C   UNL     1      -6.091  18.217  -3.748  0.00  0.00    +0.000 C 
BRANCH  29  35
ATOM     35  O   UNL     1      -5.816  13.299  -3.481  0.00  0.00    +0.000 OA
ATOM     36  H   UNL     1      -5.400  13.578  -4.323  0.00  0.00    +0.000 HD
ENDBRANCH  29  35
BRANCH  30  37
ATOM     37  O   UNL     1      -7.335  15.554  -4.297  0.00  0.00    +0.000 OA
ATOM     38  H   UNL     1      -7.597  14.620  -4.161  0.00  0.00    +0.000 HD
ENDBRANCH  30  37
BRANCH  31  39
ATOM     39  O   UNL     1      -3.485  14.473  -2.750  0.00  0.00    +0.000 OA
ATOM     40  H   UNL     1      -3.520  15.196  -3.404  0.00  0.00    +0.000 HD
ENDBRANCH  31  39
ENDBRANCH  27  33
ENDBRANCH   5  27
BRANCH   3  41
ATOM     41  O   UNL     1      -2.825  17.971   6.905  0.00  0.00    +0.000 OA
BRANCH  41  47
ATOM     42  O   UNL     1      -4.257  17.477   8.723  0.00  0.00    +0.000 OA
ATOM     43  C   UNL     1      -2.048  16.538  10.272  0.00  0.00    +0.000 C 
ATOM     44  C   UNL     1      -3.406  16.846  10.909  0.00  0.00    +0.000 C 
ATOM     45  C   UNL     1      -1.850  17.342   8.989  0.00  0.00    +0.000 C 
ATOM     46  C   UNL     1      -4.516  16.647   9.869  0.00  0.00    +0.000 C 
ATOM     47  C   UNL     1      -3.050  17.121   8.050  0.00  0.00    +0.000 C 
BRANCH  44  48
ATOM     48  O   UNL     1      -3.593  15.997  12.043  0.00  0.00    +0.000 OA
ATOM     49  H   UNL     1      -3.333  16.541  12.815  0.00  0.00    +0.000 HD
ENDBRANCH  44  48
BRANCH  45  50
ATOM     50  O   UNL     1      -0.610  16.938   8.384  0.00  0.00    +0.000 OA
ATOM     51  H   UNL     1       0.035  17.640   8.601  0.00  0.00    +0.000 HD
ENDBRANCH  45  50
BRANCH  43  52
ATOM     52  O   UNL     1      -1.009  16.842  11.217  0.00  0.00    +0.000 OA
ATOM     53  H   UNL     1      -1.253  16.353  12.029  0.00  0.00    +0.000 HD
ENDBRANCH  43  52
BRANCH  46  54
ATOM     54  C   UNL     1      -5.888  17.026  10.443  0.00  0.00    +0.000 C 
BRANCH  54  55
ATOM     55  O   UNL     1      -6.450  15.906  11.131  0.00  0.00    +0.000 OA
ATOM     56  H   UNL     1      -7.383  15.851  10.866  0.00  0.00    +0.000 HD
ENDBRANCH  54  55
ENDBRANCH  46  54
ENDBRANCH  41  47
ENDBRANCH   3  41
TORSDOF 17
ENDMDL
MODEL 5
REMARK VINA RESULT:      -6.1     23.216     26.392
REMARK  Name = 
REMARK  21 active torsions:
REMARK  status: ('A' for Active; 'I' for Inactive)
REMARK    1  A    between atoms: O_3  and  C_22
REMARK    2  A    between atoms: O_3  and  C_28
REMARK    3  A    between atoms: O_4  and  C_25
REMARK    4  A    between atoms: O_4  and  C_30
REMARK    5  A    between atoms: O_5  and  C_16
REMARK    6  A    between atoms: O_6  and  C_17
REMARK    7  A    between atoms: O_7  and  C_18
REMARK    8  A    between atoms: O_8  and  C_20
REMARK    9  A    between atoms: O_9  and  C_21
REMARK   10  A    between atoms: O_10  and  C_23
REMARK   11  A    between atoms: O_11  and  C_26
REMARK   12  A    between atoms: O_13  and  C_36
REMARK   13  A    between atoms: O_15  and  C_45
REMARK   14  A    between atoms: O_15  and  C_48
REMARK   15  A    between atoms: C_19  and  C_26
REMARK   16  A    between atoms: C_24  and  C_27
REMARK   17  A    between atoms: C_29  and  C_37
REMARK   18  A    between atoms: C_35  and  C_38
REMARK   19  A    between atoms: C_37  and  C_39
REMARK   20  A    between atoms: C_42  and  C_46
REMARK   21  A    between atoms: C_42  and  C_47
REMARK                            x       y       z     vdW  Elec       q    Type
REMARK                         _______ _______ _______ _____ _____    ______ ____
ROOT
ATOM      1  O   UNL     1      -9.986  16.421  21.893  0.00  0.00    +0.000 OA
ATOM      2  O   UNL     1     -11.891  18.613  19.056  0.00  0.00    +0.000 OA
ATOM      3  C   UNL     1      -7.596  16.040  19.149  0.00  0.00    +0.000 A 
ATOM      4  C   UNL     1      -8.188  15.914  20.418  0.00  0.00    +0.000 A 
ATOM      5  C   UNL     1     -11.911  17.743  21.269  0.00  0.00    +0.000 A 
ATOM      6  C   UNL     1      -9.423  16.554  20.646  0.00  0.00    +0.000 A 
ATOM      7  C   UNL     1     -10.035  17.300  19.638  0.00  0.00    +0.000 A 
ATOM      8  C   UNL     1     -11.328  17.940  19.917  0.00  0.00    +0.000 A 
ATOM      9  C   UNL     1      -8.190  16.821  18.153  0.00  0.00    +0.000 A 
ATOM     10  C   UNL     1     -11.224  16.982  22.139  0.00  0.00    +0.000 A 
ATOM     11  C   UNL     1      -9.413  17.436  18.395  0.00  0.00    +0.000 A 
ENDROOT
BRANCH  10  12
ATOM     12  C   UNL     1     -11.719  16.703  23.496  0.00  0.00    +0.000 A 
ATOM     13  C   UNL     1     -11.155  17.363  24.594  0.00  0.00    +0.000 A 
ATOM     14  C   UNL     1     -12.743  15.774  23.718  0.00  0.00    +0.000 A 
ATOM     15  C   UNL     1     -11.622  17.107  25.885  0.00  0.00    +0.000 A 
ATOM     16  C   UNL     1     -13.210  15.521  25.013  0.00  0.00    +0.000 A 
ATOM     17  C   UNL     1     -12.655  16.193  26.103  0.00  0.00    +0.000 A 
BRANCH  17  18
ATOM     18  O   UNL     1     -13.019  16.042  27.411  0.00  0.00    +0.000 OA
ATOM     19  C   UNL     1     -14.304  16.527  27.780  0.00  0.00    +0.000 C 
ENDBRANCH  17  18
ENDBRANCH  10  12
BRANCH  11  20
ATOM     20  O   UNL     1      -9.942  18.168  17.366  0.00  0.00    +0.000 OA
ATOM     21  H   UNL     1     -10.682  18.710  17.721  0.00  0.00    +0.000 HD
ENDBRANCH  11  20
BRANCH   4  22
ATOM     22  C   UNL     1      -7.545  15.082  21.511  0.00  0.00    +0.000 C 
BRANCH  22  23
ATOM     23  C   UNL     1      -8.042  13.660  21.516  0.00  0.00    +0.000 C 
ATOM     24  C   UNL     1      -8.850  13.052  22.407  0.00  0.00    +0.000 C 
ATOM     25  C   UNL     1      -9.450  13.695  23.626  0.00  0.00    +0.000 C 
ATOM     26  C   UNL     1      -9.232  11.606  22.225  0.00  0.00    +0.000 C 
ENDBRANCH  22  23
ENDBRANCH   4  22
BRANCH   5  27
ATOM     27  O   UNL     1     -13.156  18.275  21.553  0.00  0.00    +0.000 OA
BRANCH  27  33
ATOM     28  O   UNL     1     -13.242  19.736  23.416  0.00  0.00    +0.000 OA
ATOM     29  C   UNL     1     -15.553  20.071  21.724  0.00  0.00    +0.000 C 
ATOM     30  C   UNL     1     -15.654  20.140  23.253  0.00  0.00    +0.000 C 
ATOM     31  C   UNL     1     -14.156  20.461  21.244  0.00  0.00    +0.000 C 
ATOM     32  C   UNL     1     -14.529  19.310  23.884  0.00  0.00    +0.000 C 
ATOM     33  C   UNL     1     -13.087  19.637  21.993  0.00  0.00    +0.000 C 
ATOM     34  C   UNL     1     -14.527  19.436  25.404  0.00  0.00    +0.000 C 
BRANCH  29  35
ATOM     35  O   UNL     1     -16.536  20.962  21.165  0.00  0.00    +0.000 OA
ATOM     36  H   UNL     1     -16.096  21.365  20.387  0.00  0.00    +0.000 HD
ENDBRANCH  29  35
BRANCH  30  37
ATOM     37  O   UNL     1     -16.942  19.658  23.653  0.00  0.00    +0.000 OA
ATOM     38  H   UNL     1     -16.759  18.908  24.255  0.00  0.00    +0.000 HD
ENDBRANCH  30  37
BRANCH  31  39
ATOM     39  O   UNL     1     -14.003  21.880  21.460  0.00  0.00    +0.000 OA
ATOM     40  H   UNL     1     -13.596  21.995  22.339  0.00  0.00    +0.000 HD
ENDBRANCH  31  39
ENDBRANCH  27  33
ENDBRANCH   5  27
BRANCH   3  41
ATOM     41  O   UNL     1      -6.369  15.470  18.923  0.00  0.00    +0.000 OA
BRANCH  41  47
ATOM     42  O   UNL     1      -6.465  13.132  18.572  0.00  0.00    +0.000 OA
ATOM     43  C   UNL     1      -5.070  13.397  16.093  0.00  0.00    +0.000 C 
ATOM     44  C   UNL     1      -5.243  12.039  16.780  0.00  0.00    +0.000 C 
ATOM     45  C   UNL     1      -5.135  14.536  17.109  0.00  0.00    +0.000 C 
ATOM     46  C   UNL     1      -6.525  12.052  17.624  0.00  0.00    +0.000 C 
ATOM     47  C   UNL     1      -6.424  14.412  17.943  0.00  0.00    +0.000 C 
BRANCH  44  48
ATOM     48  O   UNL     1      -5.283  11.015  15.784  0.00  0.00    +0.000 OA
ATOM     49  H   UNL     1      -4.766  11.369  15.031  0.00  0.00    +0.000 HD
ENDBRANCH  44  48
BRANCH  45  50
ATOM     50  O   UNL     1      -5.070  15.784  16.399  0.00  0.00    +0.000 OA
ATOM     51  H   UNL     1      -5.895  15.838  15.876  0.00  0.00    +0.000 HD
ENDBRANCH  45  50
BRANCH  43  52
ATOM     52  O   UNL     1      -3.810  13.414  15.403  0.00  0.00    +0.000 OA
ATOM     53  H   UNL     1      -3.894  14.126  14.737  0.00  0.00    +0.000 HD
ENDBRANCH  43  52
BRANCH  46  54
ATOM     54  C   UNL     1      -6.693  10.736  18.396  0.00  0.00    +0.000 C 
BRANCH  54  55
ATOM     55  O   UNL     1      -7.100   9.699  17.500  0.00  0.00    +0.000 OA
ATOM     56  H   UNL     1      -7.172   8.885  18.026  0.00  0.00    +0.000 HD
ENDBRANCH  54  55
ENDBRANCH  46  54
ENDBRANCH  41  47
ENDBRANCH   3  41
TORSDOF 17
ENDMDL
MODEL 6
REMARK VINA RESULT:      -6.1     22.925     26.978
REMARK  Name = 
REMARK  21 active torsions:
REMARK  status: ('A' for Active; 'I' for Inactive)
REMARK    1  A    between atoms: O_3  and  C_22
REMARK    2  A    between atoms: O_3  and  C_28
REMARK    3  A    between atoms: O_4  and  C_25
REMARK    4  A    between atoms: O_4  and  C_30
REMARK    5  A    between atoms: O_5  and  C_16
REMARK    6  A    between atoms: O_6  and  C_17
REMARK    7  A    between atoms: O_7  and  C_18
REMARK    8  A    between atoms: O_8  and  C_20
REMARK    9  A    between atoms: O_9  and  C_21
REMARK   10  A    between atoms: O_10  and  C_23
REMARK   11  A    between atoms: O_11  and  C_26
REMARK   12  A    between atoms: O_13  and  C_36
REMARK   13  A    between atoms: O_15  and  C_45
REMARK   14  A    between atoms: O_15  and  C_48
REMARK   15  A    between atoms: C_19  and  C_26
REMARK   16  A    between atoms: C_24  and  C_27
REMARK   17  A    between atoms: C_29  and  C_37
REMARK   18  A    between atoms: C_35  and  C_38
REMARK   19  A    between atoms: C_37  and  C_39
REMARK   20  A    between atoms: C_42  and  C_46
REMARK   21  A    between atoms: C_42  and  C_47
REMARK                            x       y       z     vdW  Elec       q    Type
REMARK                         _______ _______ _______ _____ _____    ______ ____
ROOT
ATOM      1  O   UNL     1      -9.727  16.837  19.904  0.00  0.00    +0.000 OA
ATOM      2  O   UNL     1     -10.846  20.091  17.750  0.00  0.00    +0.000 OA
ATOM      3  C   UNL     1     -12.632  17.875  21.871  0.00  0.00    +0.000 A 
ATOM      4  C   UNL     1     -11.509  17.139  21.451  0.00  0.00    +0.000 A 
ATOM      5  C   UNL     1      -9.301  18.306  18.032  0.00  0.00    +0.000 A 
ATOM      6  C   UNL     1     -10.820  17.570  20.299  0.00  0.00    +0.000 A 
ATOM      7  C   UNL     1     -11.248  18.693  19.591  0.00  0.00    +0.000 A 
ATOM      8  C   UNL     1     -10.492  19.112  18.404  0.00  0.00    +0.000 A 
ATOM      9  C   UNL     1     -13.084  18.976  21.138  0.00  0.00    +0.000 A 
ATOM     10  C   UNL     1      -8.987  17.259  18.815  0.00  0.00    +0.000 A 
ATOM     11  C   UNL     1     -12.384  19.391  20.010  0.00  0.00    +0.000 A 
ENDROOT
BRANCH  10  12
ATOM     12  C   UNL     1      -7.817  16.407  18.553  0.00  0.00    +0.000 A 
ATOM     13  C   UNL     1      -7.994  15.115  18.046  0.00  0.00    +0.000 A 
ATOM     14  C   UNL     1      -6.518  16.860  18.814  0.00  0.00    +0.000 A 
ATOM     15  C   UNL     1      -6.888  14.301  17.791  0.00  0.00    +0.000 A 
ATOM     16  C   UNL     1      -5.411  16.043  18.555  0.00  0.00    +0.000 A 
ATOM     17  C   UNL     1      -5.592  14.761  18.036  0.00  0.00    +0.000 A 
BRANCH  17  18
ATOM     18  O   UNL     1      -4.602  13.867  17.736  0.00  0.00    +0.000 OA
ATOM     19  C   UNL     1      -4.756  13.117  16.538  0.00  0.00    +0.000 C 
ENDBRANCH  17  18
ENDBRANCH  10  12
BRANCH  11  20
ATOM     20  O   UNL     1     -12.875  20.487  19.356  0.00  0.00    +0.000 OA
ATOM     21  H   UNL     1     -12.216  20.767  18.682  0.00  0.00    +0.000 HD
ENDBRANCH  11  20
BRANCH   4  22
ATOM     22  C   UNL     1     -11.018  15.933  22.229  0.00  0.00    +0.000 C 
BRANCH  22  23
ATOM     23  C   UNL     1      -9.874  16.272  23.149  0.00  0.00    +0.000 C 
ATOM     24  C   UNL     1      -8.601  15.828  23.109  0.00  0.00    +0.000 C 
ATOM     25  C   UNL     1      -8.039  14.871  22.095  0.00  0.00    +0.000 C 
ATOM     26  C   UNL     1      -7.601  16.297  24.133  0.00  0.00    +0.000 C 
ENDBRANCH  22  23
ENDBRANCH   4  22
BRANCH   5  27
ATOM     27  O   UNL     1      -8.524  18.703  16.959  0.00  0.00    +0.000 OA
BRANCH  27  33
ATOM     28  O   UNL     1      -7.808  17.102  15.365  0.00  0.00    +0.000 OA
ATOM     29  C   UNL     1      -7.868  19.750  14.225  0.00  0.00    +0.000 C 
ATOM     30  C   UNL     1      -6.765  18.744  13.874  0.00  0.00    +0.000 C 
ATOM     31  C   UNL     1      -9.154  19.036  14.642  0.00  0.00    +0.000 C 
ATOM     32  C   UNL     1      -6.576  17.758  15.034  0.00  0.00    +0.000 C 
ATOM     33  C   UNL     1      -8.854  18.005  15.751  0.00  0.00    +0.000 C 
ATOM     34  C   UNL     1      -5.561  16.674  14.686  0.00  0.00    +0.000 C 
BRANCH  29  35
ATOM     35  O   UNL     1      -8.112  20.574  13.069  0.00  0.00    +0.000 OA
ATOM     36  H   UNL     1      -8.312  19.942  12.348  0.00  0.00    +0.000 HD
ENDBRANCH  29  35
BRANCH  30  37
ATOM     37  O   UNL     1      -5.556  19.461  13.601  0.00  0.00    +0.000 OA
ATOM     38  H   UNL     1      -4.949  19.229  14.333  0.00  0.00    +0.000 HD
ENDBRANCH  30  37
BRANCH  31  39
ATOM     39  O   UNL     1      -9.714  18.423  13.462  0.00  0.00    +0.000 OA
ATOM     40  H   UNL     1      -9.170  18.708  12.704  0.00  0.00    +0.000 HD
ENDBRANCH  31  39
ENDBRANCH  27  33
ENDBRANCH   5  27
BRANCH   3  41
ATOM     41  O   UNL     1     -13.348  17.442  22.958  0.00  0.00    +0.000 OA
BRANCH  41  47
ATOM     42  O   UNL     1     -12.289  18.466  24.809  0.00  0.00    +0.000 OA
ATOM     43  C   UNL     1     -14.820  19.038  26.003  0.00  0.00    +0.000 C 
ATOM     44  C   UNL     1     -13.515  19.132  26.798  0.00  0.00    +0.000 C 
ATOM     45  C   UNL     1     -14.681  18.065  24.834  0.00  0.00    +0.000 C 
ATOM     46  C   UNL     1     -12.358  19.463  25.844  0.00  0.00    +0.000 C 
ATOM     47  C   UNL     1     -13.454  18.449  23.986  0.00  0.00    +0.000 C 
BRANCH  44  48
ATOM     48  O   UNL     1     -13.657  20.129  27.812  0.00  0.00    +0.000 OA
ATOM     49  H   UNL     1     -13.238  20.933  27.441  0.00  0.00    +0.000 HD
ENDBRANCH  44  48
BRANCH  45  50
ATOM     50  O   UNL     1     -15.897  18.095  24.069  0.00  0.00    +0.000 OA
ATOM     51  H   UNL     1     -15.973  19.006  23.723  0.00  0.00    +0.000 HD
ENDBRANCH  45  50
BRANCH  43  52
ATOM     52  O   UNL     1     -15.873  18.613  26.884  0.00  0.00    +0.000 OA
ATOM     53  H   UNL     1     -15.501  18.697  27.785  0.00  0.00    +0.000 HD
ENDBRANCH  43  52
BRANCH  46  54
ATOM     54  C   UNL     1     -11.016  19.485  26.588  0.00  0.00    +0.000 C 
BRANCH  54  55
ATOM     55  O   UNL     1     -11.100  18.670  27.759  0.00  0.00    +0.000 OA
ATOM     56  H   UNL     1     -10.819  17.776  27.501  0.00  0.00    +0.000 HD
ENDBRANCH  54  55
ENDBRANCH  46  54
ENDBRANCH  41  47
ENDBRANCH   3  41
TORSDOF 17
ENDMDL
MODEL 7
REMARK VINA RESULT:      -5.9      9.808     14.381
REMARK  Name = 
REMARK  21 active torsions:
REMARK  status: ('A' for Active; 'I' for Inactive)
REMARK    1  A    between atoms: O_3  and  C_22
REMARK    2  A    between atoms: O_3  and  C_28
REMARK    3  A    between atoms: O_4  and  C_25
REMARK    4  A    between atoms: O_4  and  C_30
REMARK    5  A    between atoms: O_5  and  C_16
REMARK    6  A    between atoms: O_6  and  C_17
REMARK    7  A    between atoms: O_7  and  C_18
REMARK    8  A    between atoms: O_8  and  C_20
REMARK    9  A    between atoms: O_9  and  C_21
REMARK   10  A    between atoms: O_10  and  C_23
REMARK   11  A    between atoms: O_11  and  C_26
REMARK   12  A    between atoms: O_13  and  C_36
REMARK   13  A    between atoms: O_15  and  C_45
REMARK   14  A    between atoms: O_15  and  C_48
REMARK   15  A    between atoms: C_19  and  C_26
REMARK   16  A    between atoms: C_24  and  C_27
REMARK   17  A    between atoms: C_29  and  C_37
REMARK   18  A    between atoms: C_35  and  C_38
REMARK   19  A    between atoms: C_37  and  C_39
REMARK   20  A    between atoms: C_42  and  C_46
REMARK   21  A    between atoms: C_42  and  C_47
REMARK                            x       y       z     vdW  Elec       q    Type
REMARK                         _______ _______ _______ _____ _____    ______ ____
ROOT
ATOM      1  O   UNL     1     -24.629  13.566   5.330  0.00  0.00    +0.000 OA
ATOM      2  O   UNL     1     -22.497  11.992   8.405  0.00  0.00    +0.000 OA
ATOM      3  C   UNL     1     -25.025  10.011   4.562  0.00  0.00    +0.000 A 
ATOM      4  C   UNL     1     -25.141  11.409   4.464  0.00  0.00    +0.000 A 
ATOM      5  C   UNL     1     -23.268  13.946   7.291  0.00  0.00    +0.000 A 
ATOM      6  C   UNL     1     -24.504  12.202   5.441  0.00  0.00    +0.000 A 
ATOM      7  C   UNL     1     -23.786  11.612   6.481  0.00  0.00    +0.000 A 
ATOM      8  C   UNL     1     -23.129  12.478   7.469  0.00  0.00    +0.000 A 
ATOM      9  C   UNL     1     -24.340   9.419   5.627  0.00  0.00    +0.000 A 
ATOM     10  C   UNL     1     -23.972  14.382   6.231  0.00  0.00    +0.000 A 
ATOM     11  C   UNL     1     -23.711  10.220   6.574  0.00  0.00    +0.000 A 
ENDROOT
BRANCH  10  12
ATOM     12  C   UNL     1     -24.153  15.813   5.946  0.00  0.00    +0.000 A 
ATOM     13  C   UNL     1     -23.066  16.583   5.517  0.00  0.00    +0.000 A 
ATOM     14  C   UNL     1     -25.399  16.432   6.107  0.00  0.00    +0.000 A 
ATOM     15  C   UNL     1     -23.231  17.942   5.240  0.00  0.00    +0.000 A 
ATOM     16  C   UNL     1     -25.563  17.794   5.826  0.00  0.00    +0.000 A 
ATOM     17  C   UNL     1     -24.479  18.554   5.386  0.00  0.00    +0.000 A 
BRANCH  17  18
ATOM     18  O   UNL     1     -24.503  19.885   5.076  0.00  0.00    +0.000 OA
ATOM     19  C   UNL     1     -23.439  20.375   4.269  0.00  0.00    +0.000 C 
ENDBRANCH  17  18
ENDBRANCH  10  12
BRANCH  11  20
ATOM     20  O   UNL     1     -23.044   9.569   7.576  0.00  0.00    +0.000 OA
ATOM     21  H   UNL     1     -22.213   9.198   7.204  0.00  0.00    +0.000 HD
ENDBRANCH  11  20
BRANCH   4  22
ATOM     22  C   UNL     1     -25.894  12.063   3.322  0.00  0.00    +0.000 C 
BRANCH  22  23
ATOM     23  C   UNL     1     -25.006  12.351   2.140  0.00  0.00    +0.000 C 
ATOM     24  C   UNL     1     -24.574  13.543   1.681  0.00  0.00    +0.000 C 
ATOM     25  C   UNL     1     -24.899  14.882   2.282  0.00  0.00    +0.000 C 
ATOM     26  C   UNL     1     -23.680  13.613   0.471  0.00  0.00    +0.000 C 
ENDBRANCH  22  23
ENDBRANCH   4  22
BRANCH   5  27
ATOM     27  O   UNL     1     -22.613  14.798   8.162  0.00  0.00    +0.000 OA
BRANCH  27  33
ATOM     28  O   UNL     1     -24.031  16.374   9.221  0.00  0.00    +0.000 OA
ATOM     29  C   UNL     1     -21.488  16.190  10.570  0.00  0.00    +0.000 C 
ATOM     30  C   UNL     1     -22.217  17.529  10.397  0.00  0.00    +0.000 C 
ATOM     31  C   UNL     1     -22.473  15.021  10.571  0.00  0.00    +0.000 C 
ATOM     32  C   UNL     1     -23.113  17.473   9.153  0.00  0.00    +0.000 C 
ATOM     33  C   UNL     1     -23.388  15.095   9.330  0.00  0.00    +0.000 C 
ATOM     34  C   UNL     1     -23.937  18.748   9.002  0.00  0.00    +0.000 C 
BRANCH  29  35
ATOM     35  O   UNL     1     -20.762  16.228  11.813  0.00  0.00    +0.000 OA
ATOM     36  H   UNL     1     -21.191  16.940  12.332  0.00  0.00    +0.000 HD
ENDBRANCH  29  35
BRANCH  30  37
ATOM     37  O   UNL     1     -21.244  18.574  10.289  0.00  0.00    +0.000 OA
ATOM     38  H   UNL     1     -20.690  18.331   9.519  0.00  0.00    +0.000 HD
ENDBRANCH  30  37
BRANCH  31  39
ATOM     39  O   UNL     1     -23.219  15.083  11.805  0.00  0.00    +0.000 OA
ATOM     40  H   UNL     1     -22.587  15.305  12.513  0.00  0.00    +0.000 HD
ENDBRANCH  31  39
ENDBRANCH  27  33
ENDBRANCH   5  27
BRANCH   3  41
ATOM     41  O   UNL     1     -25.681   9.220   3.653  0.00  0.00    +0.000 OA
BRANCH  41  47
ATOM     42  O   UNL     1     -24.559   8.822   1.608  0.00  0.00    +0.000 OA
ATOM     43  C   UNL     1     -24.635   6.002   2.059  0.00  0.00    +0.000 C 
ATOM     44  C   UNL     1     -24.301   6.590   0.685  0.00  0.00    +0.000 C 
ATOM     45  C   UNL     1     -25.482   6.974   2.879  0.00  0.00    +0.000 C 
ATOM     46  C   UNL     1     -23.666   7.976   0.862  0.00  0.00    +0.000 C 
ATOM     47  C   UNL     1     -24.785   8.346   2.934  0.00  0.00    +0.000 C 
BRANCH  44  48
ATOM     48  O   UNL     1     -23.423   5.697  -0.003  0.00  0.00    +0.000 OA
ATOM     49  H   UNL     1     -22.817   5.352   0.685  0.00  0.00    +0.000 HD
ENDBRANCH  44  48
BRANCH  45  50
ATOM     50  O   UNL     1     -25.677   6.415   4.189  0.00  0.00    +0.000 OA
ATOM     51  H   UNL     1     -26.218   7.065   4.679  0.00  0.00    +0.000 HD
ENDBRANCH  45  50
BRANCH  43  52
ATOM     52  O   UNL     1     -25.335   4.761   1.878  0.00  0.00    +0.000 OA
ATOM     53  H   UNL     1     -25.427   4.659   0.909  0.00  0.00    +0.000 HD
ENDBRANCH  43  52
BRANCH  46  54
ATOM     54  C   UNL     1     -23.392   8.637  -0.495  0.00  0.00    +0.000 C 
BRANCH  54  55
ATOM     55  O   UNL     1     -22.133   8.190  -1.004  0.00  0.00    +0.000 OA
ATOM     56  H   UNL     1     -21.964   7.316  -0.612  0.00  0.00    +0.000 HD
ENDBRANCH  54  55
ENDBRANCH  46  54
ENDBRANCH  41  47
ENDBRANCH   3  41
TORSDOF 17
ENDMDL
MODEL 8
REMARK VINA RESULT:      -5.9     19.497     24.337
REMARK  Name = 
REMARK  21 active torsions:
REMARK  status: ('A' for Active; 'I' for Inactive)
REMARK    1  A    between atoms: O_3  and  C_22
REMARK    2  A    between atoms: O_3  and  C_28
REMARK    3  A    between atoms: O_4  and  C_25
REMARK    4  A    between atoms: O_4  and  C_30
REMARK    5  A    between atoms: O_5  and  C_16
REMARK    6  A    between atoms: O_6  and  C_17
REMARK    7  A    between atoms: O_7  and  C_18
REMARK    8  A    between atoms: O_8  and  C_20
REMARK    9  A    between atoms: O_9  and  C_21
REMARK   10  A    between atoms: O_10  and  C_23
REMARK   11  A    between atoms: O_11  and  C_26
REMARK   12  A    between atoms: O_13  and  C_36
REMARK   13  A    between atoms: O_15  and  C_45
REMARK   14  A    between atoms: O_15  and  C_48
REMARK   15  A    between atoms: C_19  and  C_26
REMARK   16  A    between atoms: C_24  and  C_27
REMARK   17  A    between atoms: C_29  and  C_37
REMARK   18  A    between atoms: C_35  and  C_38
REMARK   19  A    between atoms: C_37  and  C_39
REMARK   20  A    between atoms: C_42  and  C_46
REMARK   21  A    between atoms: C_42  and  C_47
REMARK                            x       y       z     vdW  Elec       q    Type
REMARK                         _______ _______ _______ _____ _____    ______ ____
ROOT
ATOM      1  O   UNL     1      -8.742   6.422  19.455  0.00  0.00    +0.000 OA
ATOM      2  O   UNL     1     -10.082   8.461  22.700  0.00  0.00    +0.000 OA
ATOM      3  C   UNL     1      -7.308   9.707  18.721  0.00  0.00    +0.000 A 
ATOM      4  C   UNL     1      -7.640   8.347  18.592  0.00  0.00    +0.000 A 
ATOM      5  C   UNL     1     -10.028   6.408  21.502  0.00  0.00    +0.000 A 
ATOM      6  C   UNL     1      -8.429   7.753  19.598  0.00  0.00    +0.000 A 
ATOM      7  C   UNL     1      -8.861   8.496  20.696  0.00  0.00    +0.000 A 
ATOM      8  C   UNL     1      -9.692   7.839  21.714  0.00  0.00    +0.000 A 
ATOM      9  C   UNL     1      -7.707  10.441  19.842  0.00  0.00    +0.000 A 
ATOM     10  C   UNL     1      -9.563   5.817  20.387  0.00  0.00    +0.000 A 
ATOM     11  C   UNL     1      -8.494   9.839  20.818  0.00  0.00    +0.000 A 
ENDROOT
BRANCH  10  12
ATOM     12  C   UNL     1      -9.854   4.411  20.065  0.00  0.00    +0.000 A 
ATOM     13  C   UNL     1      -9.437   3.396  20.933  0.00  0.00    +0.000 A 
ATOM     14  C   UNL     1     -10.536   4.061  18.893  0.00  0.00    +0.000 A 
ATOM     15  C   UNL     1      -9.713   2.059  20.637  0.00  0.00    +0.000 A 
ATOM     16  C   UNL     1     -10.814   2.721  18.600  0.00  0.00    +0.000 A 
ATOM     17  C   UNL     1     -10.407   1.714  19.476  0.00  0.00    +0.000 A 
BRANCH  17  18
ATOM     18  O   UNL     1     -10.616   0.373  19.312  0.00  0.00    +0.000 OA
ATOM     19  C   UNL     1      -9.548  -0.492  19.676  0.00  0.00    +0.000 C 
ENDBRANCH  17  18
ENDBRANCH  10  12
BRANCH  11  20
ATOM     20  O   UNL     1      -8.861  10.625  21.876  0.00  0.00    +0.000 OA
ATOM     21  H   UNL     1      -8.127  11.250  22.067  0.00  0.00    +0.000 HD
ENDBRANCH  11  20
BRANCH   4  22
ATOM     22  C   UNL     1      -7.200   7.537  17.388  0.00  0.00    +0.000 C 
BRANCH  22  23
ATOM     23  C   UNL     1      -8.366   7.038  16.575  0.00  0.00    +0.000 C 
ATOM     24  C   UNL     1      -8.608   5.791  16.124  0.00  0.00    +0.000 C 
ATOM     25  C   UNL     1      -7.730   4.592  16.353  0.00  0.00    +0.000 C 
ATOM     26  C   UNL     1      -9.848   5.499  15.321  0.00  0.00    +0.000 C 
ENDBRANCH  22  23
ENDBRANCH   4  22
BRANCH   5  27
ATOM     27  O   UNL     1     -10.860   5.767  22.402  0.00  0.00    +0.000 OA
BRANCH  27  33
ATOM     28  O   UNL     1     -12.896   6.568  23.312  0.00  0.00    +0.000 OA
ATOM     29  C   UNL     1     -13.016   3.727  22.836  0.00  0.00    +0.000 C 
ATOM     30  C   UNL     1     -13.667   4.369  24.068  0.00  0.00    +0.000 C 
ATOM     31  C   UNL     1     -12.924   4.722  21.679  0.00  0.00    +0.000 C 
ATOM     32  C   UNL     1     -12.930   5.665  24.425  0.00  0.00    +0.000 C 
ATOM     33  C   UNL     1     -12.247   6.026  22.152  0.00  0.00    +0.000 C 
ATOM     34  C   UNL     1     -13.609   6.393  25.582  0.00  0.00    +0.000 C 
BRANCH  29  35
ATOM     35  O   UNL     1     -13.808   2.588  22.448  0.00  0.00    +0.000 OA
ATOM     36  H   UNL     1     -14.678   2.729  22.878  0.00  0.00    +0.000 HD
ENDBRANCH  29  35
BRANCH  30  37
ATOM     37  O   UNL     1     -13.626   3.433  25.152  0.00  0.00    +0.000 OA
ATOM     38  H   UNL     1     -13.032   3.837  25.817  0.00  0.00    +0.000 HD
ENDBRANCH  30  37
BRANCH  31  39
ATOM     39  O   UNL     1     -14.263   4.946  21.191  0.00  0.00    +0.000 OA
ATOM     40  H   UNL     1     -14.383   4.378  20.407  0.00  0.00    +0.000 HD
ENDBRANCH  31  39
ENDBRANCH  27  33
ENDBRANCH   5  27
BRANCH   3  41
ATOM     41  O   UNL     1      -6.497  10.291  17.781  0.00  0.00    +0.000 OA
BRANCH  41  47
ATOM     42  O   UNL     1      -6.947  12.536  17.187  0.00  0.00    +0.000 OA
ATOM     43  C   UNL     1      -4.351  13.341  18.064  0.00  0.00    +0.000 C 
ATOM     44  C   UNL     1      -5.225  14.250  17.196  0.00  0.00    +0.000 C 
ATOM     45  C   UNL     1      -4.714  11.872  17.858  0.00  0.00    +0.000 C 
ATOM     46  C   UNL     1      -6.705  13.930  17.449  0.00  0.00    +0.000 C 
ATOM     47  C   UNL     1      -6.227  11.679  18.071  0.00  0.00    +0.000 C 
BRANCH  44  48
ATOM     48  O   UNL     1      -4.927  15.614  17.499  0.00  0.00    +0.000 OA
ATOM     49  H   UNL     1      -5.686  15.930  18.031  0.00  0.00    +0.000 HD
ENDBRANCH  44  48
BRANCH  45  50
ATOM     50  O   UNL     1      -3.935  11.078  18.769  0.00  0.00    +0.000 OA
ATOM     51  H   UNL     1      -3.212  11.659  19.080  0.00  0.00    +0.000 HD
ENDBRANCH  45  50
BRANCH  43  52
ATOM     52  O   UNL     1      -2.971  13.566  17.733  0.00  0.00    +0.000 OA
ATOM     53  H   UNL     1      -2.505  13.601  18.592  0.00  0.00    +0.000 HD
ENDBRANCH  43  52
BRANCH  46  54
ATOM     54  C   UNL     1      -7.616  14.761  16.537  0.00  0.00    +0.000 C 
BRANCH  54  55
ATOM     55  O   UNL     1      -8.195  13.920  15.536  0.00  0.00    +0.000 OA
ATOM     56  H   UNL     1      -9.054  13.622  15.881  0.00  0.00    +0.000 HD
ENDBRANCH  54  55
ENDBRANCH  46  54
ENDBRANCH  41  47
ENDBRANCH   3  41
TORSDOF 17
ENDMDL
MODEL 9
REMARK VINA RESULT:      -5.7     20.593     23.730
REMARK  Name = 
REMARK  21 active torsions:
REMARK  status: ('A' for Active; 'I' for Inactive)
REMARK    1  A    between atoms: O_3  and  C_22
REMARK    2  A    between atoms: O_3  and  C_28
REMARK    3  A    between atoms: O_4  and  C_25
REMARK    4  A    between atoms: O_4  and  C_30
REMARK    5  A    between atoms: O_5  and  C_16
REMARK    6  A    between atoms: O_6  and  C_17
REMARK    7  A    between atoms: O_7  and  C_18
REMARK    8  A    between atoms: O_8  and  C_20
REMARK    9  A    between atoms: O_9  and  C_21
REMARK   10  A    between atoms: O_10  and  C_23
REMARK   11  A    between atoms: O_11  and  C_26
REMARK   12  A    between atoms: O_13  and  C_36
REMARK   13  A    between atoms: O_15  and  C_45
REMARK   14  A    between atoms: O_15  and  C_48
REMARK   15  A    between atoms: C_19  and  C_26
REMARK   16  A    between atoms: C_24  and  C_27
REMARK   17  A    between atoms: C_29  and  C_37
REMARK   18  A    between atoms: C_35  and  C_38
REMARK   19  A    between atoms: C_37  and  C_39
REMARK   20  A    between atoms: C_42  and  C_46
REMARK   21  A    between atoms: C_42  and  C_47
REMARK                            x       y       z     vdW  Elec       q    Type
REMARK                         _______ _______ _______ _____ _____    ______ ____
ROOT
ATOM      1  O   UNL     1     -21.027   4.407  18.932  0.00  0.00    +0.000 OA
ATOM      2  O   UNL     1     -23.156   1.025  19.651  0.00  0.00    +0.000 OA
ATOM      3  C   UNL     1     -22.965   4.260  15.832  0.00  0.00    +0.000 A 
ATOM      4  C   UNL     1     -22.055   4.707  16.807  0.00  0.00    +0.000 A 
ATOM      5  C   UNL     1     -21.500   2.553  20.410  0.00  0.00    +0.000 A 
ATOM      6  C   UNL     1     -21.921   3.954  17.991  0.00  0.00    +0.000 A 
ATOM      7  C   UNL     1     -22.679   2.800  18.192  0.00  0.00    +0.000 A 
ATOM      8  C   UNL     1     -22.497   2.041  19.436  0.00  0.00    +0.000 A 
ATOM      9  C   UNL     1     -23.755   3.126  16.052  0.00  0.00    +0.000 A 
ATOM     10  C   UNL     1     -20.821   3.667  20.080  0.00  0.00    +0.000 A 
ATOM     11  C   UNL     1     -23.599   2.393  17.222  0.00  0.00    +0.000 A 
ENDROOT
BRANCH  10  12
ATOM     12  C   UNL     1     -19.795   4.248  20.959  0.00  0.00    +0.000 A 
ATOM     13  C   UNL     1     -18.492   4.434  20.484  0.00  0.00    +0.000 A 
ATOM     14  C   UNL     1     -20.092   4.613  22.279  0.00  0.00    +0.000 A 
ATOM     15  C   UNL     1     -17.513   4.989  21.311  0.00  0.00    +0.000 A 
ATOM     16  C   UNL     1     -19.110   5.172  23.104  0.00  0.00    +0.000 A 
ATOM     17  C   UNL     1     -17.816   5.368  22.620  0.00  0.00    +0.000 A 
BRANCH  17  18
ATOM     18  O   UNL     1     -16.769   5.904  23.317  0.00  0.00    +0.000 OA
ATOM     19  C   UNL     1     -16.755   5.684  24.722  0.00  0.00    +0.000 C 
ENDBRANCH  17  18
ENDBRANCH  10  12
BRANCH  11  20
ATOM     20  O   UNL     1     -24.392   1.285  17.358  0.00  0.00    +0.000 OA
ATOM     21  H   UNL     1     -24.278   0.933  18.269  0.00  0.00    +0.000 HD
ENDBRANCH  11  20
BRANCH   4  22
ATOM     22  C   UNL     1     -21.205   5.943  16.586  0.00  0.00    +0.000 C 
BRANCH  22  23
ATOM     23  C   UNL     1     -21.811   7.174  17.208  0.00  0.00    +0.000 C 
ATOM     24  C   UNL     1     -21.381   8.450  17.144  0.00  0.00    +0.000 C 
ATOM     25  C   UNL     1     -20.162   8.926  16.404  0.00  0.00    +0.000 C 
ATOM     26  C   UNL     1     -22.142   9.546  17.843  0.00  0.00    +0.000 C 
ENDBRANCH  22  23
ENDBRANCH   4  22
BRANCH   5  27
ATOM     27  O   UNL     1     -21.251   1.835  21.565  0.00  0.00    +0.000 OA
BRANCH  27  33
ATOM     28  O   UNL     1     -22.000   2.547  23.697  0.00  0.00    +0.000 OA
ATOM     29  C   UNL     1     -21.774  -0.326  23.581  0.00  0.00    +0.000 C 
ATOM     30  C   UNL     1     -21.393   0.465  24.838  0.00  0.00    +0.000 C 
ATOM     31  C   UNL     1     -22.821   0.422  22.755  0.00  0.00    +0.000 C 
ATOM     32  C   UNL     1     -20.972   1.887  24.448  0.00  0.00    +0.000 C 
ATOM     33  C   UNL     1     -22.351   1.867  22.483  0.00  0.00    +0.000 C 
ATOM     34  C   UNL     1     -20.685   2.742  25.678  0.00  0.00    +0.000 C 
BRANCH  29  35
ATOM     35  O   UNL     1     -22.289  -1.606  23.990  0.00  0.00    +0.000 OA
ATOM     36  H   UNL     1     -21.939  -1.740  24.896  0.00  0.00    +0.000 HD
ENDBRANCH  29  35
BRANCH  30  37
ATOM     37  O   UNL     1     -20.333  -0.223  25.513  0.00  0.00    +0.000 OA
ATOM     38  H   UNL     1     -20.471  -0.036  26.464  0.00  0.00    +0.000 HD
ENDBRANCH  30  37
BRANCH  31  39
ATOM     39  O   UNL     1     -24.064   0.380  23.487  0.00  0.00    +0.000 OA
ATOM     40  H   UNL     1     -24.213  -0.548  23.747  0.00  0.00    +0.000 HD
ENDBRANCH  31  39
ENDBRANCH  27  33
ENDBRANCH   5  27
BRANCH   3  41
ATOM     41  O   UNL     1     -23.151   5.006  14.696  0.00  0.00    +0.000 OA
BRANCH  41  47
ATOM     42  O   UNL     1     -24.687   6.014  16.188  0.00  0.00    +0.000 OA
ATOM     43  C   UNL     1     -26.495   6.547  14.042  0.00  0.00    +0.000 C 
ATOM     44  C   UNL     1     -26.932   6.642  15.507  0.00  0.00    +0.000 C 
ATOM     45  C   UNL     1     -25.315   5.591  13.884  0.00  0.00    +0.000 C 
ATOM     46  C   UNL     1     -25.720   6.996  16.380  0.00  0.00    +0.000 C 
ATOM     47  C   UNL     1     -24.187   5.998  14.851  0.00  0.00    +0.000 C 
BRANCH  44  48
ATOM     48  O   UNL     1     -27.964   7.623  15.623  0.00  0.00    +0.000 OA
ATOM     49  H   UNL     1     -28.773   7.118  15.849  0.00  0.00    +0.000 HD
ENDBRANCH  44  48
BRANCH  45  50
ATOM     50  O   UNL     1     -24.886   5.621  12.512  0.00  0.00    +0.000 OA
ATOM     51  H   UNL     1     -24.254   4.881  12.414  0.00  0.00    +0.000 HD
ENDBRANCH  45  50
BRANCH  43  52
ATOM     52  O   UNL     1     -27.609   6.100  13.252  0.00  0.00    +0.000 OA
ATOM     53  H   UNL     1     -27.554   6.615  12.421  0.00  0.00    +0.000 HD
ENDBRANCH  43  52
BRANCH  46  54
ATOM     54  C   UNL     1     -26.097   7.020  17.867  0.00  0.00    +0.000 C 
BRANCH  54  55
ATOM     55  O   UNL     1     -25.231   7.913  18.571  0.00  0.00    +0.000 OA
ATOM     56  H   UNL     1     -25.768   8.346  19.256  0.00  0.00    +0.000 HD
ENDBRANCH  54  55
ENDBRANCH  46  54
ENDBRANCH  41  47
ENDBRANCH   3  41
TORSDOF 17
ENDMDL
