MODEL 1
REMARK VINA RESULT:      -6.0      0.000      0.000
REMARK  Name = 
REMARK  6 active torsions:
REMARK  status: ('A' for Active; 'I' for Inactive)
REMARK    1  A    between atoms: O_3  and  C_16
REMARK    2  A    between atoms: O_4  and  C_17
REMARK    3  A    between atoms: O_4  and  C_22
REMARK    4  A    between atoms: O_5  and  C_19
REMARK    5  A    between atoms: O_5  and  C_23
REMARK    6  A    between atoms: O_6  and  C_21
REMARK                            x       y       z     vdW  Elec       q    Type
REMARK                         _______ _______ _______ _____ _____    ______ ____
ROOT
ATOM      1  O   UNL     1     -16.150  10.160   0.275  0.00  0.00    +0.000 OA
ATOM      2  O   UNL     1     -15.196  10.108  -3.555  0.00  0.00    +0.000 OA
ATOM      3  C   UNL     1     -15.468   8.723  -1.545  0.00  0.00    +0.000 C 
ATOM      4  C   UNL     1     -15.068   9.905  -0.656  0.00  0.00    +0.000 C 
ATOM      5  C   UNL     1     -16.949   8.800  -1.410  0.00  0.00    +0.000 A 
ATOM      6  C   UNL     1     -14.886   8.860  -2.936  0.00  0.00    +0.000 C 
ATOM      7  C   UNL     1     -14.744  11.168  -1.424  0.00  0.00    +0.000 A 
ATOM      8  C   UNL     1     -17.256   9.611  -0.327  0.00  0.00    +0.000 A 
ATOM      9  C   UNL     1     -14.840  11.212  -2.826  0.00  0.00    +0.000 A 
ATOM     10  C   UNL     1     -17.950   8.165  -2.126  0.00  0.00    +0.000 A 
ATOM     11  C   UNL     1     -14.347  12.319  -0.720  0.00  0.00    +0.000 A 
ATOM     12  C   UNL     1     -18.562   9.808   0.071  0.00  0.00    +0.000 A 
ATOM     13  C   UNL     1     -14.589  12.412  -3.505  0.00  0.00    +0.000 A 
ATOM     14  C   UNL     1     -19.284   8.368  -1.741  0.00  0.00    +0.000 A 
ATOM     15  C   UNL     1     -19.596   9.186  -0.642  0.00  0.00    +0.000 A 
ATOM     16  C   UNL     1     -14.044  13.497  -1.397  0.00  0.00    +0.000 A 
ATOM     17  C   UNL     1     -14.161  13.530  -2.778  0.00  0.00    +0.000 A 
ENDROOT
BRANCH  12  18
ATOM     18  O   UNL     1     -18.846  10.603   1.145  0.00  0.00    +0.000 OA
ATOM     19  H   UNL     1     -19.737  10.332   1.433  0.00  0.00    +0.000 HD
ENDBRANCH  12  18
BRANCH  13  20
ATOM     20  O   UNL     1     -14.658  12.603  -4.865  0.00  0.00    +0.000 OA
ATOM     21  C   UNL     1     -13.508  12.158  -5.582  0.00  0.00    +0.000 C 
ENDBRANCH  13  20
BRANCH  15  22
ATOM     22  O   UNL     1     -20.859   9.450  -0.171  0.00  0.00    +0.000 OA
ATOM     23  C   UNL     1     -21.720  10.193  -1.028  0.00  0.00    +0.000 C 
ENDBRANCH  15  22
BRANCH  17  24
ATOM     24  O   UNL     1     -13.859  14.698  -3.426  0.00  0.00    +0.000 OA
ATOM     25  H   UNL     1     -14.131  15.403  -2.809  0.00  0.00    +0.000 HD
ENDBRANCH  17  24
TORSDOF 4
ENDMDL
MODEL 2
REMARK VINA RESULT:      -5.6      2.173      6.520
REMARK  Name = 
REMARK  6 active torsions:
REMARK  status: ('A' for Active; 'I' for Inactive)
REMARK    1  A    between atoms: O_3  and  C_16
REMARK    2  A    between atoms: O_4  and  C_17
REMARK    3  A    between atoms: O_4  and  C_22
REMARK    4  A    between atoms: O_5  and  C_19
REMARK    5  A    between atoms: O_5  and  C_23
REMARK    6  A    between atoms: O_6  and  C_21
REMARK                            x       y       z     vdW  Elec       q    Type
REMARK                         _______ _______ _______ _____ _____    ______ ____
ROOT
ATOM      1  O   UNL     1     -15.272   7.928  -3.182  0.00  0.00    +0.000 OA
ATOM      2  O   UNL     1     -18.276   7.320  -0.694  0.00  0.00    +0.000 OA
ATOM      3  C   UNL     1     -15.834   7.211  -0.944  0.00  0.00    +0.000 C 
ATOM      4  C   UNL     1     -15.984   6.908  -2.438  0.00  0.00    +0.000 C 
ATOM      5  C   UNL     1     -15.543   8.670  -1.014  0.00  0.00    +0.000 A 
ATOM      6  C   UNL     1     -17.064   6.781  -0.170  0.00  0.00    +0.000 C 
ATOM      7  C   UNL     1     -17.421   6.839  -2.909  0.00  0.00    +0.000 A 
ATOM      8  C   UNL     1     -15.197   8.992  -2.318  0.00  0.00    +0.000 A 
ATOM      9  C   UNL     1     -18.488   7.064  -2.023  0.00  0.00    +0.000 A 
ATOM     10  C   UNL     1     -15.516   9.629  -0.015  0.00  0.00    +0.000 A 
ATOM     11  C   UNL     1     -17.689   6.550  -4.260  0.00  0.00    +0.000 A 
ATOM     12  C   UNL     1     -14.812  10.273  -2.658  0.00  0.00    +0.000 A 
ATOM     13  C   UNL     1     -19.806   7.049  -2.502  0.00  0.00    +0.000 A 
ATOM     14  C   UNL     1     -15.141  10.938  -0.351  0.00  0.00    +0.000 A 
ATOM     15  C   UNL     1     -14.786  11.266  -1.670  0.00  0.00    +0.000 A 
ATOM     16  C   UNL     1     -18.999   6.481  -4.724  0.00  0.00    +0.000 A 
ATOM     17  C   UNL     1     -20.041   6.723  -3.842  0.00  0.00    +0.000 A 
ENDROOT
BRANCH  12  18
ATOM     18  O   UNL     1     -14.465  10.572  -3.946  0.00  0.00    +0.000 OA
ATOM     19  H   UNL     1     -14.860   9.862  -4.486  0.00  0.00    +0.000 HD
ENDBRANCH  12  18
BRANCH  13  20
ATOM     20  O   UNL     1     -20.941   7.265  -1.756  0.00  0.00    +0.000 OA
ATOM     21  C   UNL     1     -21.308   8.637  -1.626  0.00  0.00    +0.000 C 
ENDBRANCH  13  20
BRANCH  15  22
ATOM     22  O   UNL     1     -14.396  12.507  -2.112  0.00  0.00    +0.000 OA
ATOM     23  C   UNL     1     -13.648  13.304  -1.202  0.00  0.00    +0.000 C 
ENDBRANCH  15  22
BRANCH  17  24
ATOM     24  O   UNL     1     -21.323   6.651  -4.319  0.00  0.00    +0.000 OA
ATOM     25  H   UNL     1     -21.426   5.728  -4.620  0.00  0.00    +0.000 HD
ENDBRANCH  17  24
TORSDOF 4
ENDMDL
MODEL 3
REMARK VINA RESULT:      -5.5     20.013     21.795
REMARK  Name = 
REMARK  6 active torsions:
REMARK  status: ('A' for Active; 'I' for Inactive)
REMARK    1  A    between atoms: O_3  and  C_16
REMARK    2  A    between atoms: O_4  and  C_17
REMARK    3  A    between atoms: O_4  and  C_22
REMARK    4  A    between atoms: O_5  and  C_19
REMARK    5  A    between atoms: O_5  and  C_23
REMARK    6  A    between atoms: O_6  and  C_21
REMARK                            x       y       z     vdW  Elec       q    Type
REMARK                         _______ _______ _______ _____ _____    ______ ____
ROOT
ATOM      1  O   UNL     1     -10.041   4.671  16.216  0.00  0.00    +0.000 OA
ATOM      2  O   UNL     1      -7.349   7.373  17.235  0.00  0.00    +0.000 OA
ATOM      3  C   UNL     1      -9.665   7.043  16.485  0.00  0.00    +0.000 C 
ATOM      4  C   UNL     1      -9.254   5.782  15.717  0.00  0.00    +0.000 C 
ATOM      5  C   UNL     1     -10.220   6.416  17.716  0.00  0.00    +0.000 A 
ATOM      6  C   UNL     1      -8.495   7.991  16.651  0.00  0.00    +0.000 C 
ATOM      7  C   UNL     1      -7.780   5.454  15.820  0.00  0.00    +0.000 A 
ATOM      8  C   UNL     1     -10.438   5.068  17.469  0.00  0.00    +0.000 A 
ATOM      9  C   UNL     1      -6.910   6.251  16.583  0.00  0.00    +0.000 A 
ATOM     10  C   UNL     1     -10.570   6.979  18.932  0.00  0.00    +0.000 A 
ATOM     11  C   UNL     1      -7.277   4.328  15.144  0.00  0.00    +0.000 A 
ATOM     12  C   UNL     1     -11.013   4.252  18.421  0.00  0.00    +0.000 A 
ATOM     13  C   UNL     1      -5.561   5.890  16.705  0.00  0.00    +0.000 A 
ATOM     14  C   UNL     1     -11.141   6.157  19.914  0.00  0.00    +0.000 A 
ATOM     15  C   UNL     1     -11.367   4.793  19.664  0.00  0.00    +0.000 A 
ATOM     16  C   UNL     1      -5.927   3.999  15.220  0.00  0.00    +0.000 A 
ATOM     17  C   UNL     1      -5.084   4.784  15.992  0.00  0.00    +0.000 A 
ENDROOT
BRANCH  12  18
ATOM     18  O   UNL     1     -11.229   2.928  18.158  0.00  0.00    +0.000 OA
ATOM     19  H   UNL     1     -12.160   2.770  18.402  0.00  0.00    +0.000 HD
ENDBRANCH  12  18
BRANCH  13  20
ATOM     20  O   UNL     1      -4.603   6.564  17.426  0.00  0.00    +0.000 OA
ATOM     21  C   UNL     1      -4.572   6.238  18.814  0.00  0.00    +0.000 C 
ENDBRANCH  13  20
BRANCH  15  22
ATOM     22  O   UNL     1     -11.924   3.897  20.544  0.00  0.00    +0.000 OA
ATOM     23  C   UNL     1     -11.294   3.771  21.814  0.00  0.00    +0.000 C 
ENDBRANCH  15  22
BRANCH  17  24
ATOM     24  O   UNL     1      -3.758   4.444  16.054  0.00  0.00    +0.000 OA
ATOM     25  H   UNL     1      -3.317   5.043  15.423  0.00  0.00    +0.000 HD
ENDBRANCH  17  24
TORSDOF 4
ENDMDL
MODEL 4
REMARK VINA RESULT:      -5.3     19.974     22.315
REMARK  Name = 
REMARK  6 active torsions:
REMARK  status: ('A' for Active; 'I' for Inactive)
REMARK    1  A    between atoms: O_3  and  C_16
REMARK    2  A    between atoms: O_4  and  C_17
REMARK    3  A    between atoms: O_4  and  C_22
REMARK    4  A    between atoms: O_5  and  C_19
REMARK    5  A    between atoms: O_5  and  C_23
REMARK    6  A    between atoms: O_6  and  C_21
REMARK                            x       y       z     vdW  Elec       q    Type
REMARK                         _______ _______ _______ _____ _____    ______ ____
ROOT
ATOM      1  O   UNL     1      -8.354   7.323  17.176  0.00  0.00    +0.000 OA
ATOM      2  O   UNL     1     -10.750   4.192  16.980  0.00  0.00    +0.000 OA
ATOM      3  C   UNL     1      -9.642   5.946  15.664  0.00  0.00    +0.000 C 
ATOM      4  C   UNL     1      -9.705   6.904  16.858  0.00  0.00    +0.000 C 
ATOM      5  C   UNL     1      -8.234   5.478  15.794  0.00  0.00    +0.000 A 
ATOM      6  C   UNL     1     -10.734   4.900  15.741  0.00  0.00    +0.000 C 
ATOM      7  C   UNL     1     -10.361   6.311  18.086  0.00  0.00    +0.000 A 
ATOM      8  C   UNL     1      -7.557   6.337  16.647  0.00  0.00    +0.000 A 
ATOM      9  C   UNL     1     -10.832   4.988  18.092  0.00  0.00    +0.000 A 
ATOM     10  C   UNL     1      -7.574   4.431  15.172  0.00  0.00    +0.000 A 
ATOM     11  C   UNL     1     -10.493   7.101  19.244  0.00  0.00    +0.000 A 
ATOM     12  C   UNL     1      -6.209   6.179  16.898  0.00  0.00    +0.000 A 
ATOM     13  C   UNL     1     -11.384   4.449  19.263  0.00  0.00    +0.000 A 
ATOM     14  C   UNL     1      -6.208   4.250  15.431  0.00  0.00    +0.000 A 
ATOM     15  C   UNL     1      -5.519   5.121  16.291  0.00  0.00    +0.000 A 
ATOM     16  C   UNL     1     -11.090   6.584  20.390  0.00  0.00    +0.000 A 
ATOM     17  C   UNL     1     -11.534   5.270  20.386  0.00  0.00    +0.000 A 
ENDROOT
BRANCH  12  18
ATOM     18  O   UNL     1      -5.555   7.040  17.734  0.00  0.00    +0.000 OA
ATOM     19  H   UNL     1      -4.743   7.290  17.256  0.00  0.00    +0.000 HD
ENDBRANCH  12  18
BRANCH  13  20
ATOM     20  O   UNL     1     -11.869   3.172  19.416  0.00  0.00    +0.000 OA
ATOM     21  C   UNL     1     -10.867   2.183  19.646  0.00  0.00    +0.000 C 
ENDBRANCH  13  20
BRANCH  15  22
ATOM     22  O   UNL     1      -4.185   5.046  16.611  0.00  0.00    +0.000 OA
ATOM     23  C   UNL     1      -3.261   5.210  15.541  0.00  0.00    +0.000 C 
ENDBRANCH  15  22
BRANCH  17  24
ATOM     24  O   UNL     1     -12.118   4.781  21.524  0.00  0.00    +0.000 OA
ATOM     25  H   UNL     1     -12.105   5.528  22.152  0.00  0.00    +0.000 HD
ENDBRANCH  17  24
TORSDOF 4
ENDMDL
MODEL 5
REMARK VINA RESULT:      -5.1      2.869      5.900
REMARK  Name = 
REMARK  6 active torsions:
REMARK  status: ('A' for Active; 'I' for Inactive)
REMARK    1  A    between atoms: O_3  and  C_16
REMARK    2  A    between atoms: O_4  and  C_17
REMARK    3  A    between atoms: O_4  and  C_22
REMARK    4  A    between atoms: O_5  and  C_19
REMARK    5  A    between atoms: O_5  and  C_23
REMARK    6  A    between atoms: O_6  and  C_21
REMARK                            x       y       z     vdW  Elec       q    Type
REMARK                         _______ _______ _______ _____ _____    ______ ____
ROOT
ATOM      1  O   UNL     1     -14.292  11.776  -4.966  0.00  0.00    +0.000 OA
ATOM      2  O   UNL     1     -11.205  14.095  -4.144  0.00  0.00    +0.000 OA
ATOM      3  C   UNL     1     -13.653  14.022  -4.343  0.00  0.00    +0.000 C 
ATOM      4  C   UNL     1     -13.549  12.936  -5.419  0.00  0.00    +0.000 C 
ATOM      5  C   UNL     1     -13.956  13.171  -3.158  0.00  0.00    +0.000 A 
ATOM      6  C   UNL     1     -12.397  14.866  -4.292  0.00  0.00    +0.000 C 
ATOM      7  C   UNL     1     -12.128  12.536  -5.752  0.00  0.00    +0.000 A 
ATOM      8  C   UNL     1     -14.346  11.916  -3.601  0.00  0.00    +0.000 A 
ATOM      9  C   UNL     1     -11.035  13.120  -5.090  0.00  0.00    +0.000 A 
ATOM     10  C   UNL     1     -13.957  13.479  -1.808  0.00  0.00    +0.000 A 
ATOM     11  C   UNL     1     -11.902  11.559  -6.738  0.00  0.00    +0.000 A 
ATOM     12  C   UNL     1     -14.750  10.940  -2.713  0.00  0.00    +0.000 A 
ATOM     13  C   UNL     1      -9.733  12.689  -5.381  0.00  0.00    +0.000 A 
ATOM     14  C   UNL     1     -14.352  12.492  -0.894  0.00  0.00    +0.000 A 
ATOM     15  C   UNL     1     -14.751  11.220  -1.340  0.00  0.00    +0.000 A 
ATOM     16  C   UNL     1     -10.606  11.169  -7.067  0.00  0.00    +0.000 A 
ATOM     17  C   UNL     1      -9.538  11.740  -6.392  0.00  0.00    +0.000 A 
ENDROOT
BRANCH  12  18
ATOM     18  O   UNL     1     -15.141   9.710  -3.166  0.00  0.00    +0.000 OA
ATOM     19  H   UNL     1     -14.326   9.295  -3.504  0.00  0.00    +0.000 HD
ENDBRANCH  12  18
BRANCH  13  20
ATOM     20  O   UNL     1      -8.576  13.158  -4.805  0.00  0.00    +0.000 OA
ATOM     21  C   UNL     1      -8.315  12.640  -3.501  0.00  0.00    +0.000 C 
ENDBRANCH  13  20
BRANCH  15  22
ATOM     22  O   UNL     1     -15.163  10.182  -0.541  0.00  0.00    +0.000 OA
ATOM     23  C   UNL     1     -16.529  10.186  -0.140  0.00  0.00    +0.000 C 
ENDBRANCH  15  22
BRANCH  17  24
ATOM     24  O   UNL     1      -8.272  11.343  -6.730  0.00  0.00    +0.000 OA
ATOM     25  H   UNL     1      -7.990  10.760  -5.999  0.00  0.00    +0.000 HD
ENDBRANCH  17  24
TORSDOF 4
ENDMDL
MODEL 6
REMARK VINA RESULT:      -5.0      3.479      6.292
REMARK  Name = 
REMARK  6 active torsions:
REMARK  status: ('A' for Active; 'I' for Inactive)
REMARK    1  A    between atoms: O_3  and  C_16
REMARK    2  A    between atoms: O_4  and  C_17
REMARK    3  A    between atoms: O_4  and  C_22
REMARK    4  A    between atoms: O_5  and  C_19
REMARK    5  A    between atoms: O_5  and  C_23
REMARK    6  A    between atoms: O_6  and  C_21
REMARK                            x       y       z     vdW  Elec       q    Type
REMARK                         _______ _______ _______ _____ _____    ______ ____
ROOT
ATOM      1  O   UNL     1     -16.941   8.975  -3.178  0.00  0.00    +0.000 OA
ATOM      2  O   UNL     1     -15.923   5.446  -1.731  0.00  0.00    +0.000 OA
ATOM      3  C   UNL     1     -15.152   7.747  -2.113  0.00  0.00    +0.000 C 
ATOM      4  C   UNL     1     -16.038   7.854  -3.358  0.00  0.00    +0.000 C 
ATOM      5  C   UNL     1     -16.021   8.449  -1.128  0.00  0.00    +0.000 A 
ATOM      6  C   UNL     1     -14.788   6.306  -1.820  0.00  0.00    +0.000 C 
ATOM      7  C   UNL     1     -16.831   6.600  -3.658  0.00  0.00    +0.000 A 
ATOM      8  C   UNL     1     -16.996   9.154  -1.818  0.00  0.00    +0.000 A 
ATOM      9  C   UNL     1     -16.747   5.472  -2.825  0.00  0.00    +0.000 A 
ATOM     10  C   UNL     1     -15.935   8.524   0.252  0.00  0.00    +0.000 A 
ATOM     11  C   UNL     1     -17.670   6.570  -4.787  0.00  0.00    +0.000 A 
ATOM     12  C   UNL     1     -17.904   9.953  -1.154  0.00  0.00    +0.000 A 
ATOM     13  C   UNL     1     -17.537   4.345  -3.096  0.00  0.00    +0.000 A 
ATOM     14  C   UNL     1     -16.861   9.321   0.941  0.00  0.00    +0.000 A 
ATOM     15  C   UNL     1     -17.847  10.039   0.244  0.00  0.00    +0.000 A 
ATOM     16  C   UNL     1     -18.412   5.432  -5.088  0.00  0.00    +0.000 A 
ATOM     17  C   UNL     1     -18.334   4.332  -4.247  0.00  0.00    +0.000 A 
ENDROOT
BRANCH  12  18
ATOM     18  O   UNL     1     -18.853  10.649  -1.850  0.00  0.00    +0.000 OA
ATOM     19  H   UNL     1     -19.547  10.855  -1.196  0.00  0.00    +0.000 HD
ENDBRANCH  12  18
BRANCH  13  20
ATOM     20  O   UNL     1     -17.568   3.182  -2.363  0.00  0.00    +0.000 OA
ATOM     21  C   UNL     1     -18.421   3.228  -1.221  0.00  0.00    +0.000 C 
ENDBRANCH  13  20
BRANCH  15  22
ATOM     22  O   UNL     1     -18.798  10.854   0.809  0.00  0.00    +0.000 OA
ATOM     23  C   UNL     1     -19.882  10.210   1.469  0.00  0.00    +0.000 C 
ENDBRANCH  15  22
BRANCH  17  24
ATOM     24  O   UNL     1     -19.073   3.223  -4.560  0.00  0.00    +0.000 OA
ATOM     25  H   UNL     1     -19.894   3.315  -4.040  0.00  0.00    +0.000 HD
ENDBRANCH  17  24
TORSDOF 4
ENDMDL
MODEL 7
REMARK VINA RESULT:      -4.9     25.110     27.123
REMARK  Name = 
REMARK  6 active torsions:
REMARK  status: ('A' for Active; 'I' for Inactive)
REMARK    1  A    between atoms: O_3  and  C_16
REMARK    2  A    between atoms: O_4  and  C_17
REMARK    3  A    between atoms: O_4  and  C_22
REMARK    4  A    between atoms: O_5  and  C_19
REMARK    5  A    between atoms: O_5  and  C_23
REMARK    6  A    between atoms: O_6  and  C_21
REMARK                            x       y       z     vdW  Elec       q    Type
REMARK                         _______ _______ _______ _____ _____    ______ ____
ROOT
ATOM      1  O   UNL     1     -14.461  17.397  25.151  0.00  0.00    +0.000 OA
ATOM      2  O   UNL     1     -13.205  20.664  23.323  0.00  0.00    +0.000 OA
ATOM      3  C   UNL     1     -13.230  19.454  25.461  0.00  0.00    +0.000 C 
ATOM      4  C   UNL     1     -14.591  18.841  25.118  0.00  0.00    +0.000 C 
ATOM      5  C   UNL     1     -12.343  18.315  25.093  0.00  0.00    +0.000 A 
ATOM      6  C   UNL     1     -13.019  20.766  24.734  0.00  0.00    +0.000 C 
ATOM      7  C   UNL     1     -15.139  19.276  23.775  0.00  0.00    +0.000 A 
ATOM      8  C   UNL     1     -13.118  17.171  24.968  0.00  0.00    +0.000 A 
ATOM      9  C   UNL     1     -14.415  20.146  22.942  0.00  0.00    +0.000 A 
ATOM     10  C   UNL     1     -10.968  18.260  24.943  0.00  0.00    +0.000 A 
ATOM     11  C   UNL     1     -16.391  18.793  23.354  0.00  0.00    +0.000 A 
ATOM     12  C   UNL     1     -12.544  15.946  24.696  0.00  0.00    +0.000 A 
ATOM     13  C   UNL     1     -14.923  20.486  21.680  0.00  0.00    +0.000 A 
ATOM     14  C   UNL     1     -10.373  17.023  24.652  0.00  0.00    +0.000 A 
ATOM     15  C   UNL     1     -11.156  15.863  24.528  0.00  0.00    +0.000 A 
ATOM     16  C   UNL     1     -16.921  19.173  22.124  0.00  0.00    +0.000 A 
ATOM     17  C   UNL     1     -16.187  20.018  21.305  0.00  0.00    +0.000 A 
ENDROOT
BRANCH  12  18
ATOM     18  O   UNL     1     -13.321  14.827  24.585  0.00  0.00    +0.000 OA
ATOM     19  H   UNL     1     -13.062  14.263  25.337  0.00  0.00    +0.000 HD
ENDBRANCH  12  18
BRANCH  13  20
ATOM     20  O   UNL     1     -14.320  21.311  20.760  0.00  0.00    +0.000 OA
ATOM     21  C   UNL     1     -13.093  20.809  20.233  0.00  0.00    +0.000 C 
ENDBRANCH  13  20
BRANCH  15  22
ATOM     22  O   UNL     1     -10.685  14.602  24.254  0.00  0.00    +0.000 OA
ATOM     23  C   UNL     1      -9.345  14.321  24.642  0.00  0.00    +0.000 C 
ENDBRANCH  15  22
BRANCH  17  24
ATOM     24  O   UNL     1     -16.726  20.380  20.099  0.00  0.00    +0.000 OA
ATOM     25  H   UNL     1     -16.217  21.165  19.824  0.00  0.00    +0.000 HD
ENDBRANCH  17  24
TORSDOF 4
ENDMDL
MODEL 8
REMARK VINA RESULT:      -4.8     10.774     12.461
REMARK  Name = 
REMARK  6 active torsions:
REMARK  status: ('A' for Active; 'I' for Inactive)
REMARK    1  A    between atoms: O_3  and  C_16
REMARK    2  A    between atoms: O_4  and  C_17
REMARK    3  A    between atoms: O_4  and  C_22
REMARK    4  A    between atoms: O_5  and  C_19
REMARK    5  A    between atoms: O_5  and  C_23
REMARK    6  A    between atoms: O_6  and  C_21
REMARK                            x       y       z     vdW  Elec       q    Type
REMARK                         _______ _______ _______ _____ _____    ______ ____
ROOT
ATOM      1  O   UNL     1     -25.044   8.594   4.848  0.00  0.00    +0.000 OA
ATOM      2  O   UNL     1     -24.787  12.505   5.317  0.00  0.00    +0.000 OA
ATOM      3  C   UNL     1     -25.020  10.702   3.665  0.00  0.00    +0.000 C 
ATOM      4  C   UNL     1     -24.220   9.753   4.564  0.00  0.00    +0.000 C 
ATOM      5  C   UNL     1     -26.401  10.257   4.001  0.00  0.00    +0.000 A 
ATOM      6  C   UNL     1     -24.666  12.148   3.941  0.00  0.00    +0.000 C 
ATOM      7  C   UNL     1     -23.756  10.382   5.860  0.00  0.00    +0.000 A 
ATOM      8  C   UNL     1     -26.330   9.030   4.643  0.00  0.00    +0.000 A 
ATOM      9  C   UNL     1     -24.075  11.713   6.178  0.00  0.00    +0.000 A 
ATOM     10  C   UNL     1     -27.626  10.837   3.714  0.00  0.00    +0.000 A 
ATOM     11  C   UNL     1     -22.996   9.615   6.763  0.00  0.00    +0.000 A 
ATOM     12  C   UNL     1     -27.472   8.349   5.012  0.00  0.00    +0.000 A 
ATOM     13  C   UNL     1     -23.679  12.249   7.411  0.00  0.00    +0.000 A 
ATOM     14  C   UNL     1     -28.794  10.163   4.096  0.00  0.00    +0.000 A 
ATOM     15  C   UNL     1     -28.725   8.918   4.744  0.00  0.00    +0.000 A 
ATOM     16  C   UNL     1     -22.556  10.164   7.964  0.00  0.00    +0.000 A 
ATOM     17  C   UNL     1     -22.894  11.473   8.272  0.00  0.00    +0.000 A 
ENDROOT
BRANCH  12  18
ATOM     18  O   UNL     1     -27.384   7.136   5.636  0.00  0.00    +0.000 OA
ATOM     19  H   UNL     1     -27.238   6.492   4.919  0.00  0.00    +0.000 HD
ENDBRANCH  12  18
BRANCH  13  20
ATOM     20  O   UNL     1     -23.932  13.524   7.859  0.00  0.00    +0.000 OA
ATOM     21  C   UNL     1     -25.201  13.687   8.489  0.00  0.00    +0.000 C 
ENDBRANCH  13  20
BRANCH  15  22
ATOM     22  O   UNL     1     -29.797   8.165   5.156  0.00  0.00    +0.000 OA
ATOM     23  C   UNL     1     -30.491   8.619   6.313  0.00  0.00    +0.000 C 
ENDBRANCH  15  22
BRANCH  17  24
ATOM     24  O   UNL     1     -22.451  11.994   9.459  0.00  0.00    +0.000 OA
ATOM     25  H   UNL     1     -22.560  12.959   9.363  0.00  0.00    +0.000 HD
ENDBRANCH  17  24
TORSDOF 4
ENDMDL
MODEL 9
REMARK VINA RESULT:      -4.5     23.939     25.807
REMARK  Name = 
REMARK  6 active torsions:
REMARK  status: ('A' for Active; 'I' for Inactive)
REMARK    1  A    between atoms: O_3  and  C_16
REMARK    2  A    between atoms: O_4  and  C_17
REMARK    3  A    between atoms: O_4  and  C_22
REMARK    4  A    between atoms: O_5  and  C_19
REMARK    5  A    between atoms: O_5  and  C_23
REMARK    6  A    between atoms: O_6  and  C_21
REMARK                            x       y       z     vdW  Elec       q    Type
REMARK                         _______ _______ _______ _____ _____    ______ ____
ROOT
ATOM      1  O   UNL     1     -14.534   5.621  24.171  0.00  0.00    +0.000 OA
ATOM      2  O   UNL     1     -13.568   2.025  22.859  0.00  0.00    +0.000 OA
ATOM      3  C   UNL     1     -13.946   3.383  24.871  0.00  0.00    +0.000 C 
ATOM      4  C   UNL     1     -13.468   4.639  24.133  0.00  0.00    +0.000 C 
ATOM      5  C   UNL     1     -15.419   3.570  24.751  0.00  0.00    +0.000 A 
ATOM      6  C   UNL     1     -13.350   2.130  24.265  0.00  0.00    +0.000 C 
ATOM      7  C   UNL     1     -13.053   4.387  22.699  0.00  0.00    +0.000 A 
ATOM      8  C   UNL     1     -15.672   4.883  24.382  0.00  0.00    +0.000 A 
ATOM      9  C   UNL     1     -13.140   3.105  22.132  0.00  0.00    +0.000 A 
ATOM     10  C   UNL     1     -16.459   2.692  25.006  0.00  0.00    +0.000 A 
ATOM     11  C   UNL     1     -12.580   5.460  21.922  0.00  0.00    +0.000 A 
ATOM     12  C   UNL     1     -16.964   5.354  24.261  0.00  0.00    +0.000 A 
ATOM     13  C   UNL     1     -12.802   2.914  20.785  0.00  0.00    +0.000 A 
ATOM     14  C   UNL     1     -17.776   3.154  24.873  0.00  0.00    +0.000 A 
ATOM     15  C   UNL     1     -18.035   4.484  24.502  0.00  0.00    +0.000 A 
ATOM     16  C   UNL     1     -12.192   5.261  20.600  0.00  0.00    +0.000 A 
ATOM     17  C   UNL     1     -12.300   3.994  20.048  0.00  0.00    +0.000 A 
ENDROOT
BRANCH  12  18
ATOM     18  O   UNL     1     -17.196   6.653  23.905  0.00  0.00    +0.000 OA
ATOM     19  H   UNL     1     -18.146   6.795  24.070  0.00  0.00    +0.000 HD
ENDBRANCH  12  18
BRANCH  13  20
ATOM     20  O   UNL     1     -12.851   1.724  20.097  0.00  0.00    +0.000 OA
ATOM     21  C   UNL     1     -11.723   0.877  20.304  0.00  0.00    +0.000 C 
ENDBRANCH  13  20
BRANCH  15  22
ATOM     22  O   UNL     1     -19.279   5.047  24.349  0.00  0.00    +0.000 OA
ATOM     23  C   UNL     1     -20.013   4.671  23.189  0.00  0.00    +0.000 C 
ENDBRANCH  15  22
BRANCH  17  24
ATOM     24  O   UNL     1     -11.914   3.819  18.746  0.00  0.00    +0.000 OA
ATOM     25  H   UNL     1     -11.084   4.326  18.662  0.00  0.00    +0.000 HD
ENDBRANCH  17  24
TORSDOF 4
ENDMDL
