MODEL 1
REMARK VINA RESULT:      -6.0      0.000      0.000
REMARK  Name = IPA3.pdbqt.pdb
REMARK  5 active torsions:
REMARK  status: ('A' for Active; 'I' for Inactive)
REMARK    1  A    between atoms: S_1  and  S_2
REMARK    2  A    between atoms: S_1  and  C_15
REMARK    3  A    between atoms: S_2  and  C_3
REMARK    4  A    between atoms: C_10  and  O_13
REMARK    5  A    between atoms: C_22  and  O_25
REMARK                            x       y       z     vdW  Elec       q    Type
REMARK                         _______ _______ _______ _____ _____    ______ ____
ROOT
ATOM      1  S   UNL     1     -25.316   8.845  16.262  0.00  0.00    +0.000 S 
ENDROOT
BRANCH   1   2
ATOM      2  C   UNL     1     -23.649   8.408  16.777  0.00  0.00    +0.000 A 
ATOM      3  C   UNL     1     -23.110   7.128  16.502  0.00  0.00    +0.000 A 
ATOM      4  C   UNL     1     -21.784   6.842  16.903  0.00  0.00    +0.000 A 
ATOM      5  C   UNL     1     -23.818   6.114  15.833  0.00  0.00    +0.000 A 
ATOM      6  C   UNL     1     -21.026   7.799  17.575  0.00  0.00    +0.000 A 
ATOM      7  C   UNL     1     -21.211   5.601  16.628  0.00  0.00    +0.000 A 
ATOM      8  C   UNL     1     -21.563   9.049  17.858  0.00  0.00    +0.000 A 
ATOM      9  C   UNL     1     -22.862   9.349  17.461  0.00  0.00    +0.000 A 
ATOM     10  C   UNL     1     -21.936   4.621  15.956  0.00  0.00    +0.000 A 
ATOM     11  C   UNL     1     -23.241   4.876  15.558  0.00  0.00    +0.000 A 
BRANCH   9  12
ATOM     12  O   UNL     1     -23.319  10.603  17.766  0.00  0.00    +0.000 OA
ATOM     13  H   UNL     1     -22.548  11.197  17.813  0.00  0.00    +0.000 HD
ENDBRANCH   9  12
ENDBRANCH   1   2
BRANCH   1  14
ATOM     14  S   UNL     1     -26.369   8.614  18.018  0.00  0.00    +0.000 S 
BRANCH  14  15
ATOM     15  C   UNL     1     -26.973  10.284  18.302  0.00  0.00    +0.000 A 
ATOM     16  C   UNL     1     -28.091  10.787  17.596  0.00  0.00    +0.000 A 
ATOM     17  C   UNL     1     -28.546  12.097  17.875  0.00  0.00    +0.000 A 
ATOM     18  C   UNL     1     -28.796  10.049  16.627  0.00  0.00    +0.000 A 
ATOM     19  C   UNL     1     -27.892  12.886  18.818  0.00  0.00    +0.000 A 
ATOM     20  C   UNL     1     -29.658  12.619  17.215  0.00  0.00    +0.000 A 
ATOM     21  C   UNL     1     -26.785  12.396  19.500  0.00  0.00    +0.000 A 
ATOM     22  C   UNL     1     -26.333  11.106  19.244  0.00  0.00    +0.000 A 
ATOM     23  C   UNL     1     -30.340  11.858  16.269  0.00  0.00    +0.000 A 
ATOM     24  C   UNL     1     -29.908  10.572  15.972  0.00  0.00    +0.000 A 
BRANCH  22  25
ATOM     25  O   UNL     1     -25.242  10.689  19.961  0.00  0.00    +0.000 OA
ATOM     26  H   UNL     1     -24.732  11.482  20.210  0.00  0.00    +0.000 HD
ENDBRANCH  22  25
ENDBRANCH  14  15
ENDBRANCH   1  14
TORSDOF 5
ENDMDL
MODEL 2
REMARK VINA RESULT:      -5.9     10.569     12.450
REMARK  Name = IPA3.pdbqt.pdb
REMARK  5 active torsions:
REMARK  status: ('A' for Active; 'I' for Inactive)
REMARK    1  A    between atoms: S_1  and  S_2
REMARK    2  A    between atoms: S_1  and  C_15
REMARK    3  A    between atoms: S_2  and  C_3
REMARK    4  A    between atoms: C_10  and  O_13
REMARK    5  A    between atoms: C_22  and  O_25
REMARK                            x       y       z     vdW  Elec       q    Type
REMARK                         _______ _______ _______ _____ _____    ______ ____
ROOT
ATOM      1  S   UNL     1     -25.446  14.855   6.823  0.00  0.00    +0.000 S 
ENDROOT
BRANCH   1   2
ATOM      2  C   UNL     1     -24.932  15.370   8.468  0.00  0.00    +0.000 A 
ATOM      3  C   UNL     1     -24.348  16.642   8.687  0.00  0.00    +0.000 A 
ATOM      4  C   UNL     1     -23.987  17.011  10.004  0.00  0.00    +0.000 A 
ATOM      5  C   UNL     1     -24.116  17.577   7.664  0.00  0.00    +0.000 A 
ATOM      6  C   UNL     1     -24.185  16.131  11.065  0.00  0.00    +0.000 A 
ATOM      7  C   UNL     1     -23.432  18.264  10.262  0.00  0.00    +0.000 A 
ATOM      8  C   UNL     1     -24.742  14.878  10.845  0.00  0.00    +0.000 A 
ATOM      9  C   UNL     1     -25.113  14.504   9.557  0.00  0.00    +0.000 A 
ATOM     10  C   UNL     1     -23.222  19.172   9.227  0.00  0.00    +0.000 A 
ATOM     11  C   UNL     1     -23.563  18.828   7.926  0.00  0.00    +0.000 A 
BRANCH   9  12
ATOM     12  O   UNL     1     -25.665  13.258   9.419  0.00  0.00    +0.000 OA
ATOM     13  H   UNL     1     -25.378  12.720  10.180  0.00  0.00    +0.000 HD
ENDBRANCH   9  12
ENDBRANCH   1   2
BRANCH   1  14
ATOM     14  S   UNL     1     -23.640  14.377   5.953  0.00  0.00    +0.000 S 
BRANCH  14  15
ATOM     15  C   UNL     1     -23.254  12.812   6.752  0.00  0.00    +0.000 A 
ATOM     16  C   UNL     1     -23.762  11.590   6.250  0.00  0.00    +0.000 A 
ATOM     17  C   UNL     1     -23.407  10.383   6.897  0.00  0.00    +0.000 A 
ATOM     18  C   UNL     1     -24.599  11.500   5.123  0.00  0.00    +0.000 A 
ATOM     19  C   UNL     1     -22.585  10.399   8.021  0.00  0.00    +0.000 A 
ATOM     20  C   UNL     1     -23.869   9.158   6.418  0.00  0.00    +0.000 A 
ATOM     21  C   UNL     1     -22.100  11.602   8.522  0.00  0.00    +0.000 A 
ATOM     22  C   UNL     1     -22.432  12.795   7.890  0.00  0.00    +0.000 A 
ATOM     23  C   UNL     1     -24.689   9.102   5.294  0.00  0.00    +0.000 A 
ATOM     24  C   UNL     1     -25.057  10.275   4.646  0.00  0.00    +0.000 A 
BRANCH  22  25
ATOM     25  O   UNL     1     -21.909  13.938   8.435  0.00  0.00    +0.000 OA
ATOM     26  H   UNL     1     -21.350  13.677   9.190  0.00  0.00    +0.000 HD
ENDBRANCH  22  25
ENDBRANCH  14  15
ENDBRANCH   1  14
TORSDOF 5
ENDMDL
MODEL 3
REMARK VINA RESULT:      -5.8     16.393     18.824
REMARK  Name = IPA3.pdbqt.pdb
REMARK  5 active torsions:
REMARK  status: ('A' for Active; 'I' for Inactive)
REMARK    1  A    between atoms: S_1  and  S_2
REMARK    2  A    between atoms: S_1  and  C_15
REMARK    3  A    between atoms: S_2  and  C_3
REMARK    4  A    between atoms: C_10  and  O_13
REMARK    5  A    between atoms: C_22  and  O_25
REMARK                            x       y       z     vdW  Elec       q    Type
REMARK                         _______ _______ _______ _____ _____    ______ ____
ROOT
ATOM      1  S   UNL     1      -6.108   4.106  20.075  0.00  0.00    +0.000 S 
ENDROOT
BRANCH   1   2
ATOM      2  C   UNL     1      -7.321   5.420  19.872  0.00  0.00    +0.000 A 
ATOM      3  C   UNL     1      -7.146   6.432  18.897  0.00  0.00    +0.000 A 
ATOM      4  C   UNL     1      -8.142   7.427  18.757  0.00  0.00    +0.000 A 
ATOM      5  C   UNL     1      -6.034   6.501  18.039  0.00  0.00    +0.000 A 
ATOM      6  C   UNL     1      -9.268   7.421  19.577  0.00  0.00    +0.000 A 
ATOM      7  C   UNL     1      -8.016   8.425  17.792  0.00  0.00    +0.000 A 
ATOM      8  C   UNL     1      -9.429   6.436  20.543  0.00  0.00    +0.000 A 
ATOM      9  C   UNL     1      -8.464   5.445  20.686  0.00  0.00    +0.000 A 
ATOM     10  C   UNL     1      -6.907   8.462  16.952  0.00  0.00    +0.000 A 
ATOM     11  C   UNL     1      -5.913   7.500  17.075  0.00  0.00    +0.000 A 
BRANCH   9  12
ATOM     12  O   UNL     1      -8.696   4.502  21.653  0.00  0.00    +0.000 OA
ATOM     13  H   UNL     1      -9.549   4.076  21.454  0.00  0.00    +0.000 HD
ENDBRANCH   9  12
ENDBRANCH   1   2
BRANCH   1  14
ATOM     14  S   UNL     1      -6.958   2.582  18.981  0.00  0.00    +0.000 S 
BRANCH  14  15
ATOM     15  C   UNL     1      -7.079   3.328  17.349  0.00  0.00    +0.000 A 
ATOM     16  C   UNL     1      -8.289   3.905  16.896  0.00  0.00    +0.000 A 
ATOM     17  C   UNL     1      -8.326   4.505  15.616  0.00  0.00    +0.000 A 
ATOM     18  C   UNL     1      -9.472   3.931  17.658  0.00  0.00    +0.000 A 
ATOM     19  C   UNL     1      -7.193   4.512  14.806  0.00  0.00    +0.000 A 
ATOM     20  C   UNL     1      -9.494   5.104  15.145  0.00  0.00    +0.000 A 
ATOM     21  C   UNL     1      -6.010   3.931  15.246  0.00  0.00    +0.000 A 
ATOM     22  C   UNL     1      -5.956   3.346  16.506  0.00  0.00    +0.000 A 
ATOM     23  C   UNL     1     -10.646   5.121  15.928  0.00  0.00    +0.000 A 
ATOM     24  C   UNL     1     -10.636   4.531  17.186  0.00  0.00    +0.000 A 
BRANCH  22  25
ATOM     25  O   UNL     1      -4.753   2.803  16.874  0.00  0.00    +0.000 OA
ATOM     26  H   UNL     1      -4.554   3.111  17.778  0.00  0.00    +0.000 HD
ENDBRANCH  22  25
ENDBRANCH  14  15
ENDBRANCH   1  14
TORSDOF 5
ENDMDL
MODEL 4
REMARK VINA RESULT:      -5.6     15.969     18.595
REMARK  Name = IPA3.pdbqt.pdb
REMARK  5 active torsions:
REMARK  status: ('A' for Active; 'I' for Inactive)
REMARK    1  A    between atoms: S_1  and  S_2
REMARK    2  A    between atoms: S_1  and  C_15
REMARK    3  A    between atoms: S_2  and  C_3
REMARK    4  A    between atoms: C_10  and  O_13
REMARK    5  A    between atoms: C_22  and  O_25
REMARK                            x       y       z     vdW  Elec       q    Type
REMARK                         _______ _______ _______ _____ _____    ______ ____
ROOT
ATOM      1  S   UNL     1      -7.563   2.957  19.593  0.00  0.00    +0.000 S 
ENDROOT
BRANCH   1   2
ATOM      2  C   UNL     1      -6.268   4.006  18.914  0.00  0.00    +0.000 A 
ATOM      3  C   UNL     1      -6.153   4.215  17.518  0.00  0.00    +0.000 A 
ATOM      4  C   UNL     1      -5.135   5.072  17.037  0.00  0.00    +0.000 A 
ATOM      5  C   UNL     1      -7.008   3.627  16.571  0.00  0.00    +0.000 A 
ATOM      6  C   UNL     1      -4.249   5.685  17.920  0.00  0.00    +0.000 A 
ATOM      7  C   UNL     1      -5.005   5.321  15.671  0.00  0.00    +0.000 A 
ATOM      8  C   UNL     1      -4.355   5.464  19.287  0.00  0.00    +0.000 A 
ATOM      9  C   UNL     1      -5.357   4.634  19.778  0.00  0.00    +0.000 A 
ATOM     10  C   UNL     1      -5.874   4.729  14.758  0.00  0.00    +0.000 A 
ATOM     11  C   UNL     1      -6.876   3.880  15.207  0.00  0.00    +0.000 A 
BRANCH   9  12
ATOM     12  O   UNL     1      -5.404   4.472  21.137  0.00  0.00    +0.000 OA
ATOM     13  H   UNL     1      -4.494   4.544  21.477  0.00  0.00    +0.000 HD
ENDBRANCH   9  12
ENDBRANCH   1   2
BRANCH   1  14
ATOM     14  S   UNL     1      -9.001   4.344  20.096  0.00  0.00    +0.000 S 
BRANCH  14  15
ATOM     15  C   UNL     1      -9.479   4.976  18.482  0.00  0.00    +0.000 A 
ATOM     16  C   UNL     1      -8.914   6.167  17.966  0.00  0.00    +0.000 A 
ATOM     17  C   UNL     1      -9.302   6.608  16.679  0.00  0.00    +0.000 A 
ATOM     18  C   UNL     1      -7.968   6.943  18.660  0.00  0.00    +0.000 A 
ATOM     19  C   UNL     1     -10.237   5.891  15.939  0.00  0.00    +0.000 A 
ATOM     20  C   UNL     1      -8.750   7.764  16.129  0.00  0.00    +0.000 A 
ATOM     21  C   UNL     1     -10.803   4.730  16.453  0.00  0.00    +0.000 A 
ATOM     22  C   UNL     1     -10.424   4.278  17.712  0.00  0.00    +0.000 A 
ATOM     23  C   UNL     1      -7.808   8.506  16.838  0.00  0.00    +0.000 A 
ATOM     24  C   UNL     1      -7.418   8.096  18.107  0.00  0.00    +0.000 A 
BRANCH  22  25
ATOM     25  O   UNL     1     -11.016   3.122  18.148  0.00  0.00    +0.000 OA
ATOM     26  H   UNL     1     -10.997   2.484  17.411  0.00  0.00    +0.000 HD
ENDBRANCH  22  25
ENDBRANCH  14  15
ENDBRANCH   1  14
TORSDOF 5
ENDMDL
MODEL 5
REMARK VINA RESULT:      -5.4     16.464     18.729
REMARK  Name = IPA3.pdbqt.pdb
REMARK  5 active torsions:
REMARK  status: ('A' for Active; 'I' for Inactive)
REMARK    1  A    between atoms: S_1  and  S_2
REMARK    2  A    between atoms: S_1  and  C_15
REMARK    3  A    between atoms: S_2  and  C_3
REMARK    4  A    between atoms: C_10  and  O_13
REMARK    5  A    between atoms: C_22  and  O_25
REMARK                            x       y       z     vdW  Elec       q    Type
REMARK                         _______ _______ _______ _____ _____    ______ ____
ROOT
ATOM      1  S   UNL     1      -6.807   4.067  19.905  0.00  0.00    +0.000 S 
ENDROOT
BRANCH   1   2
ATOM      2  C   UNL     1      -6.720   3.272  18.294  0.00  0.00    +0.000 A 
ATOM      3  C   UNL     1      -6.132   3.927  17.185  0.00  0.00    +0.000 A 
ATOM      4  C   UNL     1      -6.062   3.247  15.946  0.00  0.00    +0.000 A 
ATOM      5  C   UNL     1      -5.593   5.224  17.245  0.00  0.00    +0.000 A 
ATOM      6  C   UNL     1      -6.581   1.961  15.815  0.00  0.00    +0.000 A 
ATOM      7  C   UNL     1      -5.468   3.852  14.839  0.00  0.00    +0.000 A 
ATOM      8  C   UNL     1      -7.172   1.327  16.900  0.00  0.00    +0.000 A 
ATOM      9  C   UNL     1      -7.239   1.978  18.128  0.00  0.00    +0.000 A 
ATOM     10  C   UNL     1      -4.936   5.134  14.933  0.00  0.00    +0.000 A 
ATOM     11  C   UNL     1      -4.999   5.823  16.137  0.00  0.00    +0.000 A 
BRANCH   9  12
ATOM     12  O   UNL     1      -7.827   1.286  19.153  0.00  0.00    +0.000 OA
ATOM     13  H   UNL     1      -8.146   1.936  19.805  0.00  0.00    +0.000 HD
ENDBRANCH   9  12
ENDBRANCH   1   2
BRANCH   1  14
ATOM     14  S   UNL     1      -8.805   4.558  20.020  0.00  0.00    +0.000 S 
BRANCH  14  15
ATOM     15  C   UNL     1      -9.097   5.276  18.397  0.00  0.00    +0.000 A 
ATOM     16  C   UNL     1      -8.540   6.527  18.040  0.00  0.00    +0.000 A 
ATOM     17  C   UNL     1      -8.776   7.036  16.741  0.00  0.00    +0.000 A 
ATOM     18  C   UNL     1      -7.744   7.300  18.905  0.00  0.00    +0.000 A 
ATOM     19  C   UNL     1      -9.559   6.327  15.835  0.00  0.00    +0.000 A 
ATOM     20  C   UNL     1      -8.224   8.255  16.346  0.00  0.00    +0.000 A 
ATOM     21  C   UNL     1     -10.118   5.106  16.193  0.00  0.00    +0.000 A 
ATOM     22  C   UNL     1      -9.887   4.587  17.462  0.00  0.00    +0.000 A 
ATOM     23  C   UNL     1      -7.432   8.991  17.223  0.00  0.00    +0.000 A 
ATOM     24  C   UNL     1      -7.193   8.514  18.506  0.00  0.00    +0.000 A 
BRANCH  22  25
ATOM     25  O   UNL     1     -10.463   3.375  17.739  0.00  0.00    +0.000 OA
ATOM     26  H   UNL     1     -11.404   3.432  17.492  0.00  0.00    +0.000 HD
ENDBRANCH  22  25
ENDBRANCH  14  15
ENDBRANCH   1  14
TORSDOF 5
ENDMDL
MODEL 6
REMARK VINA RESULT:      -5.4     15.741     18.453
REMARK  Name = IPA3.pdbqt.pdb
REMARK  5 active torsions:
REMARK  status: ('A' for Active; 'I' for Inactive)
REMARK    1  A    between atoms: S_1  and  S_2
REMARK    2  A    between atoms: S_1  and  C_15
REMARK    3  A    between atoms: S_2  and  C_3
REMARK    4  A    between atoms: C_10  and  O_13
REMARK    5  A    between atoms: C_22  and  O_25
REMARK                            x       y       z     vdW  Elec       q    Type
REMARK                         _______ _______ _______ _____ _____    ______ ____
ROOT
ATOM      1  S   UNL     1      -6.151   4.200  19.501  0.00  0.00    +0.000 S 
ENDROOT
BRANCH   1   2
ATOM      2  C   UNL     1      -5.928   5.493  18.271  0.00  0.00    +0.000 A 
ATOM      3  C   UNL     1      -6.527   6.766  18.431  0.00  0.00    +0.000 A 
ATOM      4  C   UNL     1      -6.297   7.759  17.449  0.00  0.00    +0.000 A 
ATOM      5  C   UNL     1      -7.335   7.112  19.528  0.00  0.00    +0.000 A 
ATOM      6  C   UNL     1      -5.510   7.483  16.334  0.00  0.00    +0.000 A 
ATOM      7  C   UNL     1      -6.851   9.031  17.585  0.00  0.00    +0.000 A 
ATOM      8  C   UNL     1      -4.937   6.228  16.172  0.00  0.00    +0.000 A 
ATOM      9  C   UNL     1      -5.143   5.244  17.133  0.00  0.00    +0.000 A 
ATOM     10  C   UNL     1      -7.641   9.346  18.688  0.00  0.00    +0.000 A 
ATOM     11  C   UNL     1      -7.885   8.385  19.660  0.00  0.00    +0.000 A 
BRANCH   9  12
ATOM     12  O   UNL     1      -4.539   4.036  16.909  0.00  0.00    +0.000 OA
ATOM     13  H   UNL     1      -4.932   3.389  17.523  0.00  0.00    +0.000 HD
ENDBRANCH   9  12
ENDBRANCH   1   2
BRANCH   1  14
ATOM     14  S   UNL     1      -7.468   2.937  18.543  0.00  0.00    +0.000 S 
BRANCH  14  15
ATOM     15  C   UNL     1      -8.437   4.096  17.567  0.00  0.00    +0.000 A 
ATOM     16  C   UNL     1      -9.431   4.906  18.167  0.00  0.00    +0.000 A 
ATOM     17  C   UNL     1     -10.147   5.822  17.361  0.00  0.00    +0.000 A 
ATOM     18  C   UNL     1      -9.745   4.864  19.537  0.00  0.00    +0.000 A 
ATOM     19  C   UNL     1      -9.891   5.912  15.996  0.00  0.00    +0.000 A 
ATOM     20  C   UNL     1     -11.117   6.652  17.921  0.00  0.00    +0.000 A 
ATOM     21  C   UNL     1      -8.926   5.105  15.405  0.00  0.00    +0.000 A 
ATOM     22  C   UNL     1      -8.207   4.207  16.186  0.00  0.00    +0.000 A 
ATOM     23  C   UNL     1     -11.398   6.593  19.284  0.00  0.00    +0.000 A 
ATOM     24  C   UNL     1     -10.713   5.696  20.094  0.00  0.00    +0.000 A 
BRANCH  22  25
ATOM     25  O   UNL     1      -7.266   3.452  15.536  0.00  0.00    +0.000 OA
ATOM     26  H   UNL     1      -7.734   2.741  15.061  0.00  0.00    +0.000 HD
ENDBRANCH  22  25
ENDBRANCH  14  15
ENDBRANCH   1  14
TORSDOF 5
ENDMDL
MODEL 7
REMARK VINA RESULT:      -5.3     15.655     17.985
REMARK  Name = IPA3.pdbqt.pdb
REMARK  5 active torsions:
REMARK  status: ('A' for Active; 'I' for Inactive)
REMARK    1  A    between atoms: S_1  and  S_2
REMARK    2  A    between atoms: S_1  and  C_15
REMARK    3  A    between atoms: S_2  and  C_3
REMARK    4  A    between atoms: C_10  and  O_13
REMARK    5  A    between atoms: C_22  and  O_25
REMARK                            x       y       z     vdW  Elec       q    Type
REMARK                         _______ _______ _______ _____ _____    ______ ____
ROOT
ATOM      1  S   UNL     1     -10.542  19.715  20.226  0.00  0.00    +0.000 S 
ENDROOT
BRANCH   1   2
ATOM      2  C   UNL     1     -11.582  21.158  20.497  0.00  0.00    +0.000 A 
ATOM      3  C   UNL     1     -11.750  21.706  21.792  0.00  0.00    +0.000 A 
ATOM      4  C   UNL     1     -12.556  22.858  21.948  0.00  0.00    +0.000 A 
ATOM      5  C   UNL     1     -11.146  21.175  22.945  0.00  0.00    +0.000 A 
ATOM      6  C   UNL     1     -13.188  23.434  20.849  0.00  0.00    +0.000 A 
ATOM      7  C   UNL     1     -12.725  23.440  23.205  0.00  0.00    +0.000 A 
ATOM      8  C   UNL     1     -13.034  22.885  19.583  0.00  0.00    +0.000 A 
ATOM      9  C   UNL     1     -12.237  21.758  19.410  0.00  0.00    +0.000 A 
ATOM     10  C   UNL     1     -12.107  22.894  24.326  0.00  0.00    +0.000 A 
ATOM     11  C   UNL     1     -11.317  21.760  24.198  0.00  0.00    +0.000 A 
BRANCH   9  12
ATOM     12  O   UNL     1     -12.125  21.280  18.132  0.00  0.00    +0.000 OA
ATOM     13  H   UNL     1     -12.510  21.944  17.532  0.00  0.00    +0.000 HD
ENDBRANCH   9  12
ENDBRANCH   1   2
BRANCH   1  14
ATOM     14  S   UNL     1     -11.946  18.218  20.047  0.00  0.00    +0.000 S 
BRANCH  14  15
ATOM     15  C   UNL     1     -12.614  18.143  21.715  0.00  0.00    +0.000 A 
ATOM     16  C   UNL     1     -13.853  18.748  22.034  0.00  0.00    +0.000 A 
ATOM     17  C   UNL     1     -14.349  18.637  23.354  0.00  0.00    +0.000 A 
ATOM     18  C   UNL     1     -14.638  19.451  21.103  0.00  0.00    +0.000 A 
ATOM     19  C   UNL     1     -13.622  17.960  24.328  0.00  0.00    +0.000 A 
ATOM     20  C   UNL     1     -15.577  19.201  23.700  0.00  0.00    +0.000 A 
ATOM     21  C   UNL     1     -12.398  17.380  24.017  0.00  0.00    +0.000 A 
ATOM     22  C   UNL     1     -11.902  17.471  22.721  0.00  0.00    +0.000 A 
ATOM     23  C   UNL     1     -16.336  19.883  22.752  0.00  0.00    +0.000 A 
ATOM     24  C   UNL     1     -15.865  20.011  21.451  0.00  0.00    +0.000 A 
BRANCH  22  25
ATOM     25  O   UNL     1     -10.694  16.867  22.487  0.00  0.00    +0.000 OA
ATOM     26  H   UNL     1     -10.611  16.736  21.525  0.00  0.00    +0.000 HD
ENDBRANCH  22  25
ENDBRANCH  14  15
ENDBRANCH   1  14
TORSDOF 5
ENDMDL
MODEL 8
REMARK VINA RESULT:      -5.1      4.424      5.767
REMARK  Name = IPA3.pdbqt.pdb
REMARK  5 active torsions:
REMARK  status: ('A' for Active; 'I' for Inactive)
REMARK    1  A    between atoms: S_1  and  S_2
REMARK    2  A    between atoms: S_1  and  C_15
REMARK    3  A    between atoms: S_2  and  C_3
REMARK    4  A    between atoms: C_10  and  O_13
REMARK    5  A    between atoms: C_22  and  O_25
REMARK                            x       y       z     vdW  Elec       q    Type
REMARK                         _______ _______ _______ _____ _____    ______ ____
ROOT
ATOM      1  S   UNL     1     -22.993   2.542  17.186  0.00  0.00    +0.000 S 
ENDROOT
BRANCH   1   2
ATOM      2  C   UNL     1     -21.855   3.908  17.460  0.00  0.00    +0.000 A 
ATOM      3  C   UNL     1     -21.229   4.099  18.716  0.00  0.00    +0.000 A 
ATOM      4  C   UNL     1     -20.320   5.172  18.872  0.00  0.00    +0.000 A 
ATOM      5  C   UNL     1     -21.449   3.267  19.828  0.00  0.00    +0.000 A 
ATOM      6  C   UNL     1     -20.058   6.037  17.813  0.00  0.00    +0.000 A 
ATOM      7  C   UNL     1     -19.667   5.376  20.087  0.00  0.00    +0.000 A 
ATOM      8  C   UNL     1     -20.686   5.857  16.587  0.00  0.00    +0.000 A 
ATOM      9  C   UNL     1     -21.575   4.801  16.413  0.00  0.00    +0.000 A 
ATOM     10  C   UNL     1     -19.900   4.530  21.167  0.00  0.00    +0.000 A 
ATOM     11  C   UNL     1     -20.793   3.474  21.039  0.00  0.00    +0.000 A 
BRANCH   9  12
ATOM     12  O   UNL     1     -22.147   4.682  15.175  0.00  0.00    +0.000 OA
ATOM     13  H   UNL     1     -22.684   5.480  15.018  0.00  0.00    +0.000 HD
ENDBRANCH   9  12
ENDBRANCH   1   2
BRANCH   1  14
ATOM     14  S   UNL     1     -24.682   3.206  18.163  0.00  0.00    +0.000 S 
BRANCH  14  15
ATOM     15  C   UNL     1     -24.830   4.884  17.534  0.00  0.00    +0.000 A 
ATOM     16  C   UNL     1     -25.288   5.134  16.218  0.00  0.00    +0.000 A 
ATOM     17  C   UNL     1     -25.414   6.473  15.780  0.00  0.00    +0.000 A 
ATOM     18  C   UNL     1     -25.641   4.119  15.311  0.00  0.00    +0.000 A 
ATOM     19  C   UNL     1     -25.077   7.528  16.623  0.00  0.00    +0.000 A 
ATOM     20  C   UNL     1     -25.883   6.759  14.498  0.00  0.00    +0.000 A 
ATOM     21  C   UNL     1     -24.613   7.280  17.910  0.00  0.00    +0.000 A 
ATOM     22  C   UNL     1     -24.493   5.970  18.359  0.00  0.00    +0.000 A 
ATOM     23  C   UNL     1     -26.234   5.731  13.627  0.00  0.00    +0.000 A 
ATOM     24  C   UNL     1     -26.111   4.408  14.033  0.00  0.00    +0.000 A 
BRANCH  22  25
ATOM     25  O   UNL     1     -24.039   5.804  19.641  0.00  0.00    +0.000 OA
ATOM     26  H   UNL     1     -24.130   4.860  19.867  0.00  0.00    +0.000 HD
ENDBRANCH  22  25
ENDBRANCH  14  15
ENDBRANCH   1  14
TORSDOF 5
ENDMDL
MODEL 9
REMARK VINA RESULT:      -5.1     22.796     24.737
REMARK  Name = IPA3.pdbqt.pdb
REMARK  5 active torsions:
REMARK  status: ('A' for Active; 'I' for Inactive)
REMARK    1  A    between atoms: S_1  and  S_2
REMARK    2  A    between atoms: S_1  and  C_15
REMARK    3  A    between atoms: S_2  and  C_3
REMARK    4  A    between atoms: C_10  and  O_13
REMARK    5  A    between atoms: C_22  and  O_25
REMARK                            x       y       z     vdW  Elec       q    Type
REMARK                         _______ _______ _______ _____ _____    ______ ____
ROOT
ATOM      1  S   UNL     1      -9.335  -0.925   0.359  0.00  0.00    +0.000 S 
ENDROOT
BRANCH   1   2
ATOM      2  C   UNL     1     -10.748  -1.535   1.291  0.00  0.00    +0.000 A 
ATOM      3  C   UNL     1     -12.051  -1.522   0.737  0.00  0.00    +0.000 A 
ATOM      4  C   UNL     1     -13.124  -2.039   1.499  0.00  0.00    +0.000 A 
ATOM      5  C   UNL     1     -12.344  -1.033  -0.549  0.00  0.00    +0.000 A 
ATOM      6  C   UNL     1     -12.906  -2.536   2.782  0.00  0.00    +0.000 A 
ATOM      7  C   UNL     1     -14.417  -2.066   0.977  0.00  0.00    +0.000 A 
ATOM      8  C   UNL     1     -11.630  -2.532   3.330  0.00  0.00    +0.000 A 
ATOM      9  C   UNL     1     -10.561  -2.037   2.589  0.00  0.00    +0.000 A 
ATOM     10  C   UNL     1     -14.673  -1.582  -0.303  0.00  0.00    +0.000 A 
ATOM     11  C   UNL     1     -13.636  -1.063  -1.067  0.00  0.00    +0.000 A 
BRANCH   9  12
ATOM     12  O   UNL     1      -9.332  -2.074   3.191  0.00  0.00    +0.000 OA
ATOM     13  H   UNL     1      -9.232  -1.258   3.713  0.00  0.00    +0.000 HD
ENDBRANCH   9  12
ENDBRANCH   1   2
BRANCH   1  14
ATOM     14  S   UNL     1      -9.432   1.099   0.733  0.00  0.00    +0.000 S 
BRANCH  14  15
ATOM     15  C   UNL     1      -8.450   1.241   2.232  0.00  0.00    +0.000 A 
ATOM     16  C   UNL     1      -7.035   1.221   2.184  0.00  0.00    +0.000 A 
ATOM     17  C   UNL     1      -6.307   1.363   3.389  0.00  0.00    +0.000 A 
ATOM     18  C   UNL     1      -6.299   1.079   0.994  0.00  0.00    +0.000 A 
ATOM     19  C   UNL     1      -6.971   1.503   4.604  0.00  0.00    +0.000 A 
ATOM     20  C   UNL     1      -4.912   1.371   3.378  0.00  0.00    +0.000 A 
ATOM     21  C   UNL     1      -8.360   1.507   4.651  0.00  0.00    +0.000 A 
ATOM     22  C   UNL     1      -9.090   1.378   3.475  0.00  0.00    +0.000 A 
ATOM     23  C   UNL     1      -4.213   1.238   2.181  0.00  0.00    +0.000 A 
ATOM     24  C   UNL     1      -4.907   1.089   0.987  0.00  0.00    +0.000 A 
BRANCH  22  25
ATOM     25  O   UNL     1     -10.454   1.400   3.599  0.00  0.00    +0.000 OA
ATOM     26  H   UNL     1     -10.829   1.560   2.713  0.00  0.00    +0.000 HD
ENDBRANCH  22  25
ENDBRANCH  14  15
ENDBRANCH   1  14
TORSDOF 5
ENDMDL
