MODEL 1
REMARK VINA RESULT:      -7.4      0.000      0.000
REMARK  Name = 
REMARK  8 active torsions:
REMARK  status: ('A' for Active; 'I' for Inactive)
REMARK    1  A    between atoms: O_1  and  C_21
REMARK    2  A    between atoms: O_1  and  C_38
REMARK    3  A    between atoms: O_4  and  C_26
REMARK    4  A    between atoms: N_7  and  C_11
REMARK    5  A    between atoms: C_26  and  C_33
REMARK    6  A    between atoms: C_29  and  C_37
REMARK    7  A    between atoms: C_33  and  C_42
REMARK    8  A    between atoms: C_37  and  C_43
REMARK                            x       y       z     vdW  Elec       q    Type
REMARK                         _______ _______ _______ _____ _____    ______ ____
ROOT
ATOM      1  O   UNL     1      -7.255  -1.039   2.436  0.00  0.00    +0.000 OA
ATOM      2  O   UNL     1      -7.021  -0.239  -1.694  0.00  0.00    +0.000 OA
ATOM      3  O   UNL     1      -8.044  -0.127   4.332  0.00  0.00    +0.000 OA
ATOM      4  N   UNL     1      -8.957   0.993  -1.649  0.00  0.00    +0.000 N 
ATOM      5  N   UNL     1     -12.006   2.883  -1.618  0.00  0.00    +0.000 NA
ATOM      6  C   UNL     1     -10.066   1.462  -0.975  0.00  0.00    +0.000 A 
ATOM      7  C   UNL     1     -10.199   2.278  -3.126  0.00  0.00    +0.000 A 
ATOM      8  C   UNL     1      -8.943   1.460  -3.038  0.00  0.00    +0.000 C 
ATOM      9  C   UNL     1      -9.311   0.314   1.005  0.00  0.00    +0.000 A 
ATOM     10  C   UNL     1      -9.551  -0.081   2.440  0.00  0.00    +0.000 C 
ATOM     11  C   UNL     1     -10.854   2.269  -1.900  0.00  0.00    +0.000 A 
ATOM     12  C   UNL     1      -8.226  -0.147   0.353  0.00  0.00    +0.000 A 
ATOM     13  C   UNL     1     -10.754   2.981  -4.186  0.00  0.00    +0.000 A 
ATOM     14  C   UNL     1     -10.278   1.156   0.309  0.00  0.00    +0.000 A 
ATOM     15  C   UNL     1      -7.997   0.192  -1.088  0.00  0.00    +0.000 A 
ATOM     16  C   UNL     1     -11.992   3.643  -3.943  0.00  0.00    +0.000 A 
ATOM     17  C   UNL     1      -7.207  -1.022   0.994  0.00  0.00    +0.000 C 
ATOM     18  C   UNL     1     -12.567   3.559  -2.633  0.00  0.00    +0.000 A 
ATOM     19  C   UNL     1      -8.210  -0.396   3.141  0.00  0.00    +0.000 C 
ATOM     20  C   UNL     1     -13.901   4.993  -4.631  0.00  0.00    +0.000 A 
ATOM     21  C   UNL     1     -12.686   4.378  -4.929  0.00  0.00    +0.000 A 
ATOM     22  C   UNL     1     -13.769   4.206  -2.377  0.00  0.00    +0.000 A 
ATOM     23  C   UNL     1     -14.444   4.931  -3.359  0.00  0.00    +0.000 A 
ENDROOT
BRANCH  10  24
ATOM     24  O   UNL     1     -10.171   1.017   3.123  0.00  0.00    +0.000 OA
ATOM     25  H   UNL     1      -9.554   1.279   3.835  0.00  0.00    +0.000 HD
ENDBRANCH  10  24
BRANCH  10  26
ATOM     26  C   UNL     1     -10.485  -1.308   2.514  0.00  0.00    +0.000 C 
ATOM     27  C   UNL     1     -11.954  -0.972   2.758  0.00  0.00    +0.000 C 
ENDBRANCH  10  26
BRANCH  13  28
ATOM     28  C   UNL     1     -10.061   2.988  -5.527  0.00  0.00    +0.000 C 
ATOM     29  C   UNL     1     -10.467   1.802  -6.389  0.00  0.00    +0.000 C 
ENDBRANCH  13  28
BRANCH  20  30
ATOM     30  O   UNL     1     -14.540   5.748  -5.615  0.00  0.00    +0.000 OA
BRANCH  30  38
ATOM     31  O   UNL     1     -13.203   7.566  -6.138  0.00  0.00    +0.000 OA
ATOM     32  N   UNL     1     -15.113   7.865  -4.887  0.00  0.00    +0.000 N 
ATOM     33  C   UNL     1     -16.335   9.322  -2.663  0.00  0.00    +0.000 C 
ATOM     34  C   UNL     1     -16.452   7.786  -2.830  0.00  0.00    +0.000 C 
ATOM     35  C   UNL     1     -15.037   9.791  -3.368  0.00  0.00    +0.000 C 
ATOM     36  C   UNL     1     -16.328   7.343  -4.285  0.00  0.00    +0.000 C 
ATOM     37  C   UNL     1     -14.947   9.304  -4.810  0.00  0.00    +0.000 C 
ATOM     38  C   UNL     1     -14.201   7.098  -5.596  0.00  0.00    +0.000 C 
BRANCH  33  39
ATOM     39  N   UNL     1     -16.368   9.735  -1.225  0.00  0.00    +0.000 NA
ATOM     40  C   UNL     1     -17.599   9.279  -0.544  0.00  0.00    +0.000 C 
ATOM     41  C   UNL     1     -15.180   9.266  -0.481  0.00  0.00    +0.000 C 
ATOM     42  C   UNL     1     -17.666   9.719   0.920  0.00  0.00    +0.000 C 
ATOM     43  C   UNL     1     -15.186   9.704   0.986  0.00  0.00    +0.000 C 
ATOM     44  C   UNL     1     -16.448   9.250   1.698  0.00  0.00    +0.000 C 
ENDBRANCH  33  39
ENDBRANCH  30  38
ENDBRANCH  20  30
TORSDOF 6
ENDMDL
MODEL 2
REMARK VINA RESULT:      -7.3      5.298      9.446
REMARK  Name = 
REMARK  8 active torsions:
REMARK  status: ('A' for Active; 'I' for Inactive)
REMARK    1  A    between atoms: O_1  and  C_21
REMARK    2  A    between atoms: O_1  and  C_38
REMARK    3  A    between atoms: O_4  and  C_26
REMARK    4  A    between atoms: N_7  and  C_11
REMARK    5  A    between atoms: C_26  and  C_33
REMARK    6  A    between atoms: C_29  and  C_37
REMARK    7  A    between atoms: C_33  and  C_42
REMARK    8  A    between atoms: C_37  and  C_43
REMARK                            x       y       z     vdW  Elec       q    Type
REMARK                         _______ _______ _______ _____ _____    ______ ____
ROOT
ATOM      1  O   UNL     1       0.726   5.274   1.381  0.00  0.00    +0.000 OA
ATOM      2  O   UNL     1      -1.236   2.154  -0.660  0.00  0.00    +0.000 OA
ATOM      3  O   UNL     1       0.264   7.065   2.656  0.00  0.00    +0.000 OA
ATOM      4  N   UNL     1      -2.988   2.175   0.821  0.00  0.00    +0.000 N 
ATOM      5  N   UNL     1      -5.716   2.151   3.150  0.00  0.00    +0.000 NA
ATOM      6  C   UNL     1      -3.573   2.638   1.982  0.00  0.00    +0.000 A 
ATOM      7  C   UNL     1      -5.035   1.114   1.061  0.00  0.00    +0.000 A 
ATOM      8  C   UNL     1      -3.844   1.192   0.151  0.00  0.00    +0.000 C 
ATOM      9  C   UNL     1      -1.655   4.050   2.350  0.00  0.00    +0.000 A 
ATOM     10  C   UNL     1      -0.927   5.038   3.226  0.00  0.00    +0.000 C 
ATOM     11  C   UNL     1      -4.861   1.972   2.140  0.00  0.00    +0.000 A 
ATOM     12  C   UNL     1      -1.078   3.601   1.217  0.00  0.00    +0.000 A 
ATOM     13  C   UNL     1      -6.193   0.353   0.980  0.00  0.00    +0.000 A 
ATOM     14  C   UNL     1      -2.963   3.544   2.753  0.00  0.00    +0.000 A 
ATOM     15  C   UNL     1      -1.763   2.581   0.362  0.00  0.00    +0.000 A 
ATOM     16  C   UNL     1      -7.134   0.495   2.041  0.00  0.00    +0.000 A 
ATOM     17  C   UNL     1       0.259   4.062   0.754  0.00  0.00    +0.000 C 
ATOM     18  C   UNL     1      -6.837   1.416   3.098  0.00  0.00    +0.000 A 
ATOM     19  C   UNL     1       0.053   5.883   2.381  0.00  0.00    +0.000 C 
ATOM     20  C   UNL     1      -9.218  -0.053   3.179  0.00  0.00    +0.000 A 
ATOM     21  C   UNL     1      -8.345  -0.227   2.106  0.00  0.00    +0.000 A 
ATOM     22  C   UNL     1      -7.748   1.573   4.136  0.00  0.00    +0.000 A 
ATOM     23  C   UNL     1      -8.942   0.854   4.188  0.00  0.00    +0.000 A 
ENDROOT
BRANCH  10  24
ATOM     24  O   UNL     1      -1.887   5.921   3.822  0.00  0.00    +0.000 OA
ATOM     25  H   UNL     1      -2.307   6.406   3.083  0.00  0.00    +0.000 HD
ENDBRANCH  10  24
BRANCH  10  26
ATOM     26  C   UNL     1      -0.158   4.304   4.346  0.00  0.00    +0.000 C 
ATOM     27  C   UNL     1       0.118   2.830   4.062  0.00  0.00    +0.000 C 
ENDBRANCH  10  26
BRANCH  13  28
ATOM     28  C   UNL     1      -6.390  -0.593  -0.179  0.00  0.00    +0.000 C 
ATOM     29  C   UNL     1      -7.130   0.062  -1.336  0.00  0.00    +0.000 C 
ENDBRANCH  13  28
BRANCH  20  30
ATOM     30  O   UNL     1     -10.427  -0.749   3.192  0.00  0.00    +0.000 OA
BRANCH  30  38
ATOM     31  O   UNL     1     -10.201  -2.648   1.884  0.00  0.00    +0.000 OA
ATOM     32  N   UNL     1     -11.424  -0.856   1.110  0.00  0.00    +0.000 N 
ATOM     33  C   UNL     1     -12.125   0.752  -1.232  0.00  0.00    +0.000 C 
ATOM     34  C   UNL     1     -11.706   1.375   0.123  0.00  0.00    +0.000 C 
ATOM     35  C   UNL     1     -11.492  -0.659  -1.336  0.00  0.00    +0.000 C 
ATOM     36  C   UNL     1     -12.006   0.460   1.307  0.00  0.00    +0.000 C 
ATOM     37  C   UNL     1     -11.799  -1.527  -0.120  0.00  0.00    +0.000 C 
ATOM     38  C   UNL     1     -10.647  -1.515   2.051  0.00  0.00    +0.000 C 
BRANCH  33  39
ATOM     39  N   UNL     1     -11.743   1.619  -2.391  0.00  0.00    +0.000 NA
ATOM     40  C   UNL     1     -12.132   3.030  -2.181  0.00  0.00    +0.000 C 
ATOM     41  C   UNL     1     -10.300   1.537  -2.700  0.00  0.00    +0.000 C 
ATOM     42  C   UNL     1     -11.778   3.928  -3.369  0.00  0.00    +0.000 C 
ATOM     43  C   UNL     1      -9.899   2.398  -3.900  0.00  0.00    +0.000 C 
ATOM     44  C   UNL     1     -10.299   3.850  -3.703  0.00  0.00    +0.000 C 
ENDBRANCH  33  39
ENDBRANCH  30  38
ENDBRANCH  20  30
TORSDOF 6
ENDMDL
MODEL 3
REMARK VINA RESULT:      -7.0     18.842     22.762
REMARK  Name = 
REMARK  8 active torsions:
REMARK  status: ('A' for Active; 'I' for Inactive)
REMARK    1  A    between atoms: O_1  and  C_21
REMARK    2  A    between atoms: O_1  and  C_38
REMARK    3  A    between atoms: O_4  and  C_26
REMARK    4  A    between atoms: N_7  and  C_11
REMARK    5  A    between atoms: C_26  and  C_33
REMARK    6  A    between atoms: C_29  and  C_37
REMARK    7  A    between atoms: C_33  and  C_42
REMARK    8  A    between atoms: C_37  and  C_43
REMARK                            x       y       z     vdW  Elec       q    Type
REMARK                         _______ _______ _______ _____ _____    ______ ____
ROOT
ATOM      1  O   UNL     1      -3.757   2.511  15.145  0.00  0.00    +0.000 OA
ATOM      2  O   UNL     1      -6.262   5.784  16.018  0.00  0.00    +0.000 OA
ATOM      3  O   UNL     1      -3.217   0.484  15.950  0.00  0.00    +0.000 OA
ATOM      4  N   UNL     1      -7.803   4.435  17.055  0.00  0.00    +0.000 N 
ATOM      5  N   UNL     1     -10.250   2.345  18.639  0.00  0.00    +0.000 NA
ATOM      6  C   UNL     1      -8.257   3.180  17.404  0.00  0.00    +0.000 A 
ATOM      7  C   UNL     1      -9.783   4.695  18.232  0.00  0.00    +0.000 A 
ATOM      8  C   UNL     1      -8.708   5.481  17.539  0.00  0.00    +0.000 C 
ATOM      9  C   UNL     1      -6.339   2.215  16.310  0.00  0.00    +0.000 A 
ATOM     10  C   UNL     1      -5.583   0.985  15.874  0.00  0.00    +0.000 C 
ATOM     11  C   UNL     1      -9.504   3.336  18.144  0.00  0.00    +0.000 A 
ATOM     12  C   UNL     1      -5.890   3.438  15.966  0.00  0.00    +0.000 A 
ATOM     13  C   UNL     1     -10.931   5.109  18.892  0.00  0.00    +0.000 A 
ATOM     14  C   UNL     1      -7.581   2.078  17.063  0.00  0.00    +0.000 A 
ATOM     15  C   UNL     1      -6.655   4.669  16.344  0.00  0.00    +0.000 A 
ATOM     16  C   UNL     1     -11.771   4.090  19.426  0.00  0.00    +0.000 A 
ATOM     17  C   UNL     1      -4.641   3.651  15.185  0.00  0.00    +0.000 C 
ATOM     18  C   UNL     1     -11.373   2.723  19.269  0.00  0.00    +0.000 A 
ATOM     19  C   UNL     1      -4.085   1.316  15.682  0.00  0.00    +0.000 C 
ATOM     20  C   UNL     1     -13.766   3.315  20.593  0.00  0.00    +0.000 A 
ATOM     21  C   UNL     1     -12.981   4.358  20.104  0.00  0.00    +0.000 A 
ATOM     22  C   UNL     1     -12.176   1.718  19.793  0.00  0.00    +0.000 A 
ATOM     23  C   UNL     1     -13.368   1.995  20.462  0.00  0.00    +0.000 A 
ENDROOT
BRANCH  10  24
ATOM     24  O   UNL     1      -5.697  -0.013  16.897  0.00  0.00    +0.000 OA
ATOM     25  H   UNL     1      -5.895   0.467  17.726  0.00  0.00    +0.000 HD
ENDBRANCH  10  24
BRANCH  10  26
ATOM     26  C   UNL     1      -6.171   0.426  14.561  0.00  0.00    +0.000 C 
ATOM     27  C   UNL     1      -6.367  -1.088  14.549  0.00  0.00    +0.000 C 
ENDBRANCH  10  26
BRANCH  13  28
ATOM     28  C   UNL     1     -11.253   6.581  18.984  0.00  0.00    +0.000 C 
ATOM     29  C   UNL     1     -10.705   7.210  20.256  0.00  0.00    +0.000 C 
ENDBRANCH  13  28
BRANCH  20  30
ATOM     30  O   UNL     1     -14.933   3.614  21.296  0.00  0.00    +0.000 OA
BRANCH  30  38
ATOM     31  O   UNL     1     -13.634   3.934  23.187  0.00  0.00    +0.000 OA
ATOM     32  N   UNL     1     -15.845   4.578  23.187  0.00  0.00    +0.000 N 
ATOM     33  C   UNL     1     -18.302   4.762  24.766  0.00  0.00    +0.000 C 
ATOM     34  C   UNL     1     -18.267   4.195  23.324  0.00  0.00    +0.000 C 
ATOM     35  C   UNL     1     -16.903   4.562  25.402  0.00  0.00    +0.000 C 
ATOM     36  C   UNL     1     -17.113   4.758  22.500  0.00  0.00    +0.000 C 
ATOM     37  C   UNL     1     -15.781   5.119  24.532  0.00  0.00    +0.000 C 
ATOM     38  C   UNL     1     -14.710   4.035  22.604  0.00  0.00    +0.000 C 
BRANCH  33  39
ATOM     39  N   UNL     1     -19.383   4.134  25.590  0.00  0.00    +0.000 NA
ATOM     40  C   UNL     1     -19.085   4.198  27.037  0.00  0.00    +0.000 C 
ATOM     41  C   UNL     1     -20.708   4.731  25.323  0.00  0.00    +0.000 C 
ATOM     42  C   UNL     1     -20.164   3.534  27.896  0.00  0.00    +0.000 C 
ATOM     43  C   UNL     1     -21.828   4.082  26.140  0.00  0.00    +0.000 C 
ATOM     44  C   UNL     1     -21.534   4.132  27.628  0.00  0.00    +0.000 C 
ENDBRANCH  33  39
ENDBRANCH  30  38
ENDBRANCH  20  30
TORSDOF 6
ENDMDL
MODEL 4
REMARK VINA RESULT:      -6.4      5.860     11.550
REMARK  Name = 
REMARK  8 active torsions:
REMARK  status: ('A' for Active; 'I' for Inactive)
REMARK    1  A    between atoms: O_1  and  C_21
REMARK    2  A    between atoms: O_1  and  C_38
REMARK    3  A    between atoms: O_4  and  C_26
REMARK    4  A    between atoms: N_7  and  C_11
REMARK    5  A    between atoms: C_26  and  C_33
REMARK    6  A    between atoms: C_29  and  C_37
REMARK    7  A    between atoms: C_33  and  C_42
REMARK    8  A    between atoms: C_37  and  C_43
REMARK                            x       y       z     vdW  Elec       q    Type
REMARK                         _______ _______ _______ _____ _____    ______ ____
ROOT
ATOM      1  O   UNL     1     -13.378  14.356  -6.642  0.00  0.00    +0.000 OA
ATOM      2  O   UNL     1     -12.838  10.222  -7.255  0.00  0.00    +0.000 OA
ATOM      3  O   UNL     1     -14.854  15.792  -5.744  0.00  0.00    +0.000 OA
ATOM      4  N   UNL     1     -14.063   9.701  -5.385  0.00  0.00    +0.000 N 
ATOM      5  N   UNL     1     -15.930   8.857  -2.441  0.00  0.00    +0.000 NA
ATOM      6  C   UNL     1     -14.742  10.089  -4.248  0.00  0.00    +0.000 A 
ATOM      7  C   UNL     1     -14.845   7.789  -4.334  0.00  0.00    +0.000 A 
ATOM      8  C   UNL     1     -14.070   8.243  -5.537  0.00  0.00    +0.000 C 
ATOM      9  C   UNL     1     -14.257  12.389  -4.780  0.00  0.00    +0.000 A 
ATOM     10  C   UNL     1     -14.336  13.847  -4.403  0.00  0.00    +0.000 C 
ATOM     11  C   UNL     1     -15.235   8.889  -3.581  0.00  0.00    +0.000 A 
ATOM     12  C   UNL     1     -13.592  12.017  -5.892  0.00  0.00    +0.000 A 
ATOM     13  C   UNL     1     -15.192   6.516  -3.904  0.00  0.00    +0.000 A 
ATOM     14  C   UNL     1     -14.858  11.378  -3.916  0.00  0.00    +0.000 A 
ATOM     15  C   UNL     1     -13.458  10.570  -6.255  0.00  0.00    +0.000 A 
ATOM     16  C   UNL     1     -15.923   6.424  -2.684  0.00  0.00    +0.000 A 
ATOM     17  C   UNL     1     -12.941  12.991  -6.809  0.00  0.00    +0.000 C 
ATOM     18  C   UNL     1     -16.265   7.635  -2.000  0.00  0.00    +0.000 A 
ATOM     19  C   UNL     1     -14.229  14.733  -5.664  0.00  0.00    +0.000 C 
ATOM     20  C   UNL     1     -17.028   5.175  -0.907  0.00  0.00    +0.000 A 
ATOM     21  C   UNL     1     -16.327   5.198  -2.111  0.00  0.00    +0.000 A 
ATOM     22  C   UNL     1     -16.985   7.565  -0.814  0.00  0.00    +0.000 A 
ATOM     23  C   UNL     1     -17.380   6.347  -0.259  0.00  0.00    +0.000 A 
ENDROOT
BRANCH  10  24
ATOM     24  O   UNL     1     -15.606  14.094  -3.783  0.00  0.00    +0.000 OA
ATOM     25  H   UNL     1     -15.694  13.433  -3.067  0.00  0.00    +0.000 HD
ENDBRANCH  10  24
BRANCH  10  26
ATOM     26  C   UNL     1     -13.213  14.209  -3.407  0.00  0.00    +0.000 C 
ATOM     27  C   UNL     1     -13.557  13.947  -1.943  0.00  0.00    +0.000 C 
ENDBRANCH  10  26
BRANCH  13  28
ATOM     28  C   UNL     1     -14.764   5.310  -4.705  0.00  0.00    +0.000 C 
ATOM     29  C   UNL     1     -13.367   4.839  -4.331  0.00  0.00    +0.000 C 
ENDBRANCH  13  28
BRANCH  20  30
ATOM     30  O   UNL     1     -17.451   3.950  -0.390  0.00  0.00    +0.000 OA
BRANCH  30  38
ATOM     31  O   UNL     1     -19.654   4.081  -1.093  0.00  0.00    +0.000 OA
ATOM     32  N   UNL     1     -18.441   2.158  -1.461  0.00  0.00    +0.000 N 
ATOM     33  C   UNL     1     -18.523  -0.766  -1.538  0.00  0.00    +0.000 C 
ATOM     34  C   UNL     1     -17.411   0.027  -0.807  0.00  0.00    +0.000 C 
ATOM     35  C   UNL     1     -19.797   0.116  -1.589  0.00  0.00    +0.000 C 
ATOM     36  C   UNL     1     -17.193   1.416  -1.401  0.00  0.00    +0.000 C 
ATOM     37  C   UNL     1     -19.525   1.501  -2.166  0.00  0.00    +0.000 C 
ATOM     38  C   UNL     1     -18.604   3.453  -0.991  0.00  0.00    +0.000 C 
BRANCH  33  39
ATOM     39  N   UNL     1     -18.788  -2.089  -0.890  0.00  0.00    +0.000 NA
ATOM     40  C   UNL     1     -18.677  -3.209  -1.849  0.00  0.00    +0.000 C 
ATOM     41  C   UNL     1     -17.904  -2.331   0.269  0.00  0.00    +0.000 C 
ATOM     42  C   UNL     1     -18.975  -4.569  -1.213  0.00  0.00    +0.000 C 
ATOM     43  C   UNL     1     -18.181  -3.670   0.959  0.00  0.00    +0.000 C 
ATOM     44  C   UNL     1     -18.078  -4.830  -0.015  0.00  0.00    +0.000 C 
ENDBRANCH  33  39
ENDBRANCH  30  38
ENDBRANCH  20  30
TORSDOF 6
ENDMDL
MODEL 5
REMARK VINA RESULT:      -6.2     20.811     22.820
REMARK  Name = 
REMARK  8 active torsions:
REMARK  status: ('A' for Active; 'I' for Inactive)
REMARK    1  A    between atoms: O_1  and  C_21
REMARK    2  A    between atoms: O_1  and  C_38
REMARK    3  A    between atoms: O_4  and  C_26
REMARK    4  A    between atoms: N_7  and  C_11
REMARK    5  A    between atoms: C_26  and  C_33
REMARK    6  A    between atoms: C_29  and  C_37
REMARK    7  A    between atoms: C_33  and  C_42
REMARK    8  A    between atoms: C_37  and  C_43
REMARK                            x       y       z     vdW  Elec       q    Type
REMARK                         _______ _______ _______ _____ _____    ______ ____
ROOT
ATOM      1  O   UNL     1     -13.871   4.315  22.094  0.00  0.00    +0.000 OA
ATOM      2  O   UNL     1     -11.716   7.781  23.141  0.00  0.00    +0.000 OA
ATOM      3  O   UNL     1     -14.444   3.117  20.281  0.00  0.00    +0.000 OA
ATOM      4  N   UNL     1     -10.316   7.556  21.336  0.00  0.00    +0.000 N 
ATOM      5  N   UNL     1      -8.082   7.203  18.553  0.00  0.00    +0.000 NA
ATOM      6  C   UNL     1      -9.869   6.838  20.246  0.00  0.00    +0.000 A 
ATOM      7  C   UNL     1      -8.585   8.748  20.359  0.00  0.00    +0.000 A 
ATOM      8  C   UNL     1      -9.560   8.801  21.499  0.00  0.00    +0.000 C 
ATOM      9  C   UNL     1     -11.519   5.147  20.720  0.00  0.00    +0.000 A 
ATOM     10  C   UNL     1     -12.128   3.807  20.392  0.00  0.00    +0.000 C 
ATOM     11  C   UNL     1      -8.778   7.582  19.627  0.00  0.00    +0.000 A 
ATOM     12  C   UNL     1     -11.960   5.843  21.787  0.00  0.00    +0.000 A 
ATOM     13  C   UNL     1      -7.590   9.634  19.971  0.00  0.00    +0.000 A 
ATOM     14  C   UNL     1     -10.422   5.668  19.913  0.00  0.00    +0.000 A 
ATOM     15  C   UNL     1     -11.333   7.151  22.161  0.00  0.00    +0.000 A 
ATOM     16  C   UNL     1      -6.807   9.270  18.838  0.00  0.00    +0.000 A 
ATOM     17  C   UNL     1     -13.064   5.366  22.664  0.00  0.00    +0.000 C 
ATOM     18  C   UNL     1      -7.106   8.039  18.168  0.00  0.00    +0.000 A 
ATOM     19  C   UNL     1     -13.584   3.739  20.907  0.00  0.00    +0.000 C 
ATOM     20  C   UNL     1      -5.010   9.640  17.234  0.00  0.00    +0.000 A 
ATOM     21  C   UNL     1      -5.747  10.059  18.340  0.00  0.00    +0.000 A 
ATOM     22  C   UNL     1      -6.358   7.673  17.056  0.00  0.00    +0.000 A 
ATOM     23  C   UNL     1      -5.315   8.463  16.573  0.00  0.00    +0.000 A 
ENDROOT
BRANCH  10  24
ATOM     24  O   UNL     1     -12.145   3.646  18.966  0.00  0.00    +0.000 OA
ATOM     25  H   UNL     1     -11.521   2.920  18.766  0.00  0.00    +0.000 HD
ENDBRANCH  10  24
BRANCH  10  26
ATOM     26  C   UNL     1     -11.295   2.667  21.015  0.00  0.00    +0.000 C 
ATOM     27  C   UNL     1     -10.632   1.740  20.000  0.00  0.00    +0.000 C 
ENDBRANCH  10  26
BRANCH  13  28
ATOM     28  C   UNL     1      -7.360  10.898  20.765  0.00  0.00    +0.000 C 
ATOM     29  C   UNL     1      -8.034  12.105  20.130  0.00  0.00    +0.000 C 
ENDBRANCH  13  28
BRANCH  20  30
ATOM     30  O   UNL     1      -3.998  10.464  16.740  0.00  0.00    +0.000 OA
BRANCH  30  38
ATOM     31  O   UNL     1      -2.940  11.152  18.683  0.00  0.00    +0.000 OA
ATOM     32  N   UNL     1      -3.884  12.709  17.274  0.00  0.00    +0.000 N 
ATOM     33  C   UNL     1      -5.362  15.229  17.110  0.00  0.00    +0.000 C 
ATOM     34  C   UNL     1      -5.749  13.971  16.293  0.00  0.00    +0.000 C 
ATOM     35  C   UNL     1      -4.616  14.770  18.388  0.00  0.00    +0.000 C 
ATOM     36  C   UNL     1      -4.559  13.051  16.033  0.00  0.00    +0.000 C 
ATOM     37  C   UNL     1      -3.451  13.835  18.080  0.00  0.00    +0.000 C 
ATOM     38  C   UNL     1      -3.553  11.417  17.652  0.00  0.00    +0.000 C 
BRANCH  33  39
ATOM     39  N   UNL     1      -6.553  16.076  17.435  0.00  0.00    +0.000 NA
ATOM     40  C   UNL     1      -7.520  16.127  16.317  0.00  0.00    +0.000 C 
ATOM     41  C   UNL     1      -7.235  15.632  18.669  0.00  0.00    +0.000 C 
ATOM     42  C   UNL     1      -8.731  17.014  16.619  0.00  0.00    +0.000 C 
ATOM     43  C   UNL     1      -8.439  16.505  19.029  0.00  0.00    +0.000 C 
ATOM     44  C   UNL     1      -9.439  16.575  17.889  0.00  0.00    +0.000 C 
ENDBRANCH  33  39
ENDBRANCH  30  38
ENDBRANCH  20  30
TORSDOF 6
ENDMDL
MODEL 6
REMARK VINA RESULT:      -6.1     27.111     31.657
REMARK  Name = 
REMARK  8 active torsions:
REMARK  status: ('A' for Active; 'I' for Inactive)
REMARK    1  A    between atoms: O_1  and  C_21
REMARK    2  A    between atoms: O_1  and  C_38
REMARK    3  A    between atoms: O_4  and  C_26
REMARK    4  A    between atoms: N_7  and  C_11
REMARK    5  A    between atoms: C_26  and  C_33
REMARK    6  A    between atoms: C_29  and  C_37
REMARK    7  A    between atoms: C_33  and  C_42
REMARK    8  A    between atoms: C_37  and  C_43
REMARK                            x       y       z     vdW  Elec       q    Type
REMARK                         _______ _______ _______ _____ _____    ______ ____
ROOT
ATOM      1  O   UNL     1     -16.256  17.265  33.578  0.00  0.00    +0.000 OA
ATOM      2  O   UNL     1     -16.557  19.550  30.051  0.00  0.00    +0.000 OA
ATOM      3  O   UNL     1     -15.901  15.148  34.241  0.00  0.00    +0.000 OA
ATOM      4  N   UNL     1     -15.147  18.139  28.917  0.00  0.00    +0.000 N 
ATOM      5  N   UNL     1     -12.908  15.977  27.134  0.00  0.00    +0.000 NA
ATOM      6  C   UNL     1     -14.289  17.058  28.900  0.00  0.00    +0.000 A 
ATOM      7  C   UNL     1     -14.340  17.903  26.757  0.00  0.00    +0.000 A 
ATOM      8  C   UNL     1     -15.254  18.754  27.591  0.00  0.00    +0.000 C 
ATOM      9  C   UNL     1     -14.706  16.728  31.250  0.00  0.00    +0.000 A 
ATOM     10  C   UNL     1     -14.413  15.971  32.521  0.00  0.00    +0.000 C 
ATOM     11  C   UNL     1     -13.776  16.906  27.543  0.00  0.00    +0.000 A 
ATOM     12  C   UNL     1     -15.546  17.782  31.274  0.00  0.00    +0.000 A 
ATOM     13  C   UNL     1     -14.004  17.977  25.412  0.00  0.00    +0.000 A 
ATOM     14  C   UNL     1     -14.046  16.349  30.006  0.00  0.00    +0.000 A 
ATOM     15  C   UNL     1     -15.809  18.579  30.033  0.00  0.00    +0.000 A 
ATOM     16  C   UNL     1     -13.070  17.017  24.927  0.00  0.00    +0.000 A 
ATOM     17  C   UNL     1     -16.242  18.234  32.509  0.00  0.00    +0.000 C 
ATOM     18  C   UNL     1     -12.560  16.038  25.840  0.00  0.00    +0.000 A 
ATOM     19  C   UNL     1     -15.602  16.087  33.501  0.00  0.00    +0.000 C 
ATOM     20  C   UNL     1     -11.692  16.024  23.180  0.00  0.00    +0.000 A 
ATOM     21  C   UNL     1     -12.618  16.981  23.589  0.00  0.00    +0.000 A 
ATOM     22  C   UNL     1     -11.655  15.089  25.381  0.00  0.00    +0.000 A 
ATOM     23  C   UNL     1     -11.217  15.063  24.057  0.00  0.00    +0.000 A 
ENDROOT
BRANCH  10  24
ATOM     24  O   UNL     1     -14.226  14.585  32.199  0.00  0.00    +0.000 OA
ATOM     25  H   UNL     1     -13.421  14.540  31.644  0.00  0.00    +0.000 HD
ENDBRANCH  10  24
BRANCH  10  26
ATOM     26  C   UNL     1     -13.127  16.509  33.186  0.00  0.00    +0.000 C 
ATOM     27  C   UNL     1     -13.282  16.872  34.660  0.00  0.00    +0.000 C 
ENDBRANCH  10  26
BRANCH  13  28
ATOM     28  C   UNL     1     -14.599  19.063  24.549  0.00  0.00    +0.000 C 
ATOM     29  C   UNL     1     -15.879  18.613  23.861  0.00  0.00    +0.000 C 
ENDBRANCH  13  28
BRANCH  20  30
ATOM     30  O   UNL     1     -11.298  15.987  21.842  0.00  0.00    +0.000 OA
BRANCH  30  38
ATOM     31  O   UNL     1      -9.213  16.989  21.959  0.00  0.00    +0.000 OA
ATOM     32  N   UNL     1     -10.845  17.887  20.605  0.00  0.00    +0.000 N 
ATOM     33  C   UNL     1     -12.044  20.354  19.586  0.00  0.00    +0.000 C 
ATOM     34  C   UNL     1     -12.883  19.178  20.147  0.00  0.00    +0.000 C 
ATOM     35  C   UNL     1     -10.639  20.305  20.239  0.00  0.00    +0.000 C 
ATOM     36  C   UNL     1     -12.172  17.834  20.016  0.00  0.00    +0.000 C 
ATOM     37  C   UNL     1      -9.980  18.936  20.103  0.00  0.00    +0.000 C 
ATOM     38  C   UNL     1     -10.354  16.954  21.507  0.00  0.00    +0.000 C 
BRANCH  33  39
ATOM     39  N   UNL     1     -12.712  21.675  19.802  0.00  0.00    +0.000 NA
ATOM     40  C   UNL     1     -12.252  22.334  21.043  0.00  0.00    +0.000 C 
ATOM     41  C   UNL     1     -12.533  22.587  18.653  0.00  0.00    +0.000 C 
ATOM     42  C   UNL     1     -12.947  23.673  21.299  0.00  0.00    +0.000 C 
ATOM     43  C   UNL     1     -13.233  23.934  18.848  0.00  0.00    +0.000 C 
ATOM     44  C   UNL     1     -12.777  24.621  20.123  0.00  0.00    +0.000 C 
ENDBRANCH  33  39
ENDBRANCH  30  38
ENDBRANCH  20  30
TORSDOF 6
ENDMDL
MODEL 7
REMARK VINA RESULT:      -6.0     18.475     20.432
REMARK  Name = 
REMARK  8 active torsions:
REMARK  status: ('A' for Active; 'I' for Inactive)
REMARK    1  A    between atoms: O_1  and  C_21
REMARK    2  A    between atoms: O_1  and  C_38
REMARK    3  A    between atoms: O_4  and  C_26
REMARK    4  A    between atoms: N_7  and  C_11
REMARK    5  A    between atoms: C_26  and  C_33
REMARK    6  A    between atoms: C_29  and  C_37
REMARK    7  A    between atoms: C_33  and  C_42
REMARK    8  A    between atoms: C_37  and  C_43
REMARK                            x       y       z     vdW  Elec       q    Type
REMARK                         _______ _______ _______ _____ _____    ______ ____
ROOT
ATOM      1  O   UNL     1      -5.268  -6.234  16.580  0.00  0.00    +0.000 OA
ATOM      2  O   UNL     1      -7.345  -3.531  19.056  0.00  0.00    +0.000 OA
ATOM      3  O   UNL     1      -4.660  -6.494  14.433  0.00  0.00    +0.000 OA
ATOM      4  N   UNL     1      -6.781  -1.749  17.725  0.00  0.00    +0.000 N 
ATOM      5  N   UNL     1      -5.872   1.062  15.691  0.00  0.00    +0.000 NA
ATOM      6  C   UNL     1      -6.084  -1.222  16.657  0.00  0.00    +0.000 A 
ATOM      7  C   UNL     1      -7.246   0.520  17.620  0.00  0.00    +0.000 A 
ATOM      8  C   UNL     1      -7.561  -0.716  18.413  0.00  0.00    +0.000 C 
ATOM      9  C   UNL     1      -5.199  -3.414  16.191  0.00  0.00    +0.000 A 
ATOM     10  C   UNL     1      -4.292  -4.293  15.367  0.00  0.00    +0.000 C 
ATOM     11  C   UNL     1      -6.372   0.207  16.586  0.00  0.00    +0.000 A 
ATOM     12  C   UNL     1      -5.876  -3.935  17.233  0.00  0.00    +0.000 A 
ATOM     13  C   UNL     1      -7.673   1.832  17.773  0.00  0.00    +0.000 A 
ATOM     14  C   UNL     1      -5.306  -1.991  15.889  0.00  0.00    +0.000 A 
ATOM     15  C   UNL     1      -6.741  -3.067  18.095  0.00  0.00    +0.000 A 
ATOM     16  C   UNL     1      -7.158   2.789  16.852  0.00  0.00    +0.000 A 
ATOM     17  C   UNL     1      -5.802  -5.373  17.608  0.00  0.00    +0.000 C 
ATOM     18  C   UNL     1      -6.262   2.339  15.828  0.00  0.00    +0.000 A 
ATOM     19  C   UNL     1      -4.778  -5.759  15.415  0.00  0.00    +0.000 C 
ATOM     20  C   UNL     1      -6.936   5.051  15.972  0.00  0.00    +0.000 A 
ATOM     21  C   UNL     1      -7.484   4.162  16.896  0.00  0.00    +0.000 A 
ATOM     22  C   UNL     1      -5.757   3.258  14.916  0.00  0.00    +0.000 A 
ATOM     23  C   UNL     1      -6.089   4.612  14.969  0.00  0.00    +0.000 A 
ENDROOT
BRANCH  10  24
ATOM     24  O   UNL     1      -4.333  -3.848  14.004  0.00  0.00    +0.000 OA
ATOM     25  H   UNL     1      -4.562  -2.897  14.034  0.00  0.00    +0.000 HD
ENDBRANCH  10  24
BRANCH  10  26
ATOM     26  C   UNL     1      -2.839  -4.202  15.880  0.00  0.00    +0.000 C 
ATOM     27  C   UNL     1      -1.782  -4.627  14.865  0.00  0.00    +0.000 C 
ENDBRANCH  10  26
BRANCH  13  28
ATOM     28  C   UNL     1      -8.612   2.188  18.899  0.00  0.00    +0.000 C 
ATOM     29  C   UNL     1      -7.867   2.549  20.176  0.00  0.00    +0.000 C 
ENDBRANCH  13  28
BRANCH  20  30
ATOM     30  O   UNL     1      -7.313   6.394  16.016  0.00  0.00    +0.000 OA
BRANCH  30  38
ATOM     31  O   UNL     1      -6.309   7.199  17.941  0.00  0.00    +0.000 OA
ATOM     32  N   UNL     1      -8.605   7.138  17.780  0.00  0.00    +0.000 N 
ATOM     33  C   UNL     1     -11.110   6.652  19.213  0.00  0.00    +0.000 C 
ATOM     34  C   UNL     1     -10.803   6.043  17.821  0.00  0.00    +0.000 C 
ATOM     35  C   UNL     1      -9.765   6.924  19.933  0.00  0.00    +0.000 C 
ATOM     36  C   UNL     1      -9.815   6.884  17.018  0.00  0.00    +0.000 C 
ATOM     37  C   UNL     1      -8.803   7.747  19.082  0.00  0.00    +0.000 C 
ATOM     38  C   UNL     1      -7.321   6.935  17.298  0.00  0.00    +0.000 C 
BRANCH  33  39
ATOM     39  N   UNL     1     -12.008   5.772  20.025  0.00  0.00    +0.000 NA
ATOM     40  C   UNL     1     -11.774   4.337  19.754  0.00  0.00    +0.000 C 
ATOM     41  C   UNL     1     -11.887   6.036  21.474  0.00  0.00    +0.000 C 
ATOM     42  C   UNL     1     -12.704   3.422  20.553  0.00  0.00    +0.000 C 
ATOM     43  C   UNL     1     -12.819   5.162  22.317  0.00  0.00    +0.000 C 
ATOM     44  C   UNL     1     -12.596   3.685  22.045  0.00  0.00    +0.000 C 
ENDBRANCH  33  39
ENDBRANCH  30  38
ENDBRANCH  20  30
TORSDOF 6
ENDMDL
MODEL 8
REMARK VINA RESULT:      -5.9     18.620     21.920
REMARK  Name = 
REMARK  8 active torsions:
REMARK  status: ('A' for Active; 'I' for Inactive)
REMARK    1  A    between atoms: O_1  and  C_21
REMARK    2  A    between atoms: O_1  and  C_38
REMARK    3  A    between atoms: O_4  and  C_26
REMARK    4  A    between atoms: N_7  and  C_11
REMARK    5  A    between atoms: C_26  and  C_33
REMARK    6  A    between atoms: C_29  and  C_37
REMARK    7  A    between atoms: C_33  and  C_42
REMARK    8  A    between atoms: C_37  and  C_43
REMARK                            x       y       z     vdW  Elec       q    Type
REMARK                         _______ _______ _______ _____ _____    ______ ____
ROOT
ATOM      1  O   UNL     1     -12.456   4.411  20.869  0.00  0.00    +0.000 OA
ATOM      2  O   UNL     1     -10.334   1.632  18.518  0.00  0.00    +0.000 OA
ATOM      3  O   UNL     1     -12.087   6.141  22.255  0.00  0.00    +0.000 OA
ATOM      4  N   UNL     1      -8.600   3.100  18.199  0.00  0.00    +0.000 N 
ATOM      5  N   UNL     1      -5.897   5.391  17.642  0.00  0.00    +0.000 NA
ATOM      6  C   UNL     1      -8.048   4.356  18.346  0.00  0.00    +0.000 A 
ATOM      7  C   UNL     1      -6.509   3.083  17.197  0.00  0.00    +0.000 A 
ATOM      8  C   UNL     1      -7.694   2.203  17.476  0.00  0.00    +0.000 C 
ATOM      9  C   UNL     1     -10.031   5.057  19.522  0.00  0.00    +0.000 A 
ATOM     10  C   UNL     1     -10.812   6.155  20.199  0.00  0.00    +0.000 C 
ATOM     11  C   UNL     1      -6.733   4.353  17.715  0.00  0.00    +0.000 A 
ATOM     12  C   UNL     1     -10.576   3.832  19.381  0.00  0.00    +0.000 A 
ATOM     13  C   UNL     1      -5.317   2.820  16.536  0.00  0.00    +0.000 A 
ATOM     14  C   UNL     1      -8.706   5.333  18.978  0.00  0.00    +0.000 A 
ATOM     15  C   UNL     1      -9.837   2.743  18.666  0.00  0.00    +0.000 A 
ATOM     16  C   UNL     1      -4.395   3.900  16.417  0.00  0.00    +0.000 A 
ATOM     17  C   UNL     1     -11.928   3.484  19.897  0.00  0.00    +0.000 C 
ATOM     18  C   UNL     1      -4.743   5.164  16.996  0.00  0.00    +0.000 A 
ATOM     19  C   UNL     1     -11.821   5.554  21.204  0.00  0.00    +0.000 C 
ATOM     20  C   UNL     1      -2.300   4.888  15.661  0.00  0.00    +0.000 A 
ATOM     21  C   UNL     1      -3.153   3.790  15.755  0.00  0.00    +0.000 A 
ATOM     22  C   UNL     1      -3.851   6.224  16.897  0.00  0.00    +0.000 A 
ATOM     23  C   UNL     1      -2.626   6.102  16.241  0.00  0.00    +0.000 A 
ENDROOT
BRANCH  10  24
ATOM     24  O   UNL     1      -9.899   6.992  20.921  0.00  0.00    +0.000 OA
ATOM     25  H   UNL     1     -10.202   7.912  20.781  0.00  0.00    +0.000 HD
ENDBRANCH  10  24
BRANCH  10  26
ATOM     26  C   UNL     1     -11.558   7.011  19.153  0.00  0.00    +0.000 C 
ATOM     27  C   UNL     1     -10.956   6.964  17.751  0.00  0.00    +0.000 C 
ENDBRANCH  10  26
BRANCH  13  28
ATOM     28  C   UNL     1      -5.067   1.450  15.956  0.00  0.00    +0.000 C 
ATOM     29  C   UNL     1      -5.815   1.234  14.649  0.00  0.00    +0.000 C 
ENDBRANCH  13  28
BRANCH  20  30
ATOM     30  O   UNL     1      -1.061   4.735  15.038  0.00  0.00    +0.000 OA
BRANCH  30  38
ATOM     31  O   UNL     1      -1.835   5.901  13.192  0.00  0.00    +0.000 OA
ATOM     32  N   UNL     1       0.424   5.807  13.629  0.00  0.00    +0.000 N 
ATOM     33  C   UNL     1       3.099   5.606  12.460  0.00  0.00    +0.000 C 
ATOM     34  C   UNL     1       2.635   4.739  13.657  0.00  0.00    +0.000 C 
ATOM     35  C   UNL     1       1.849   6.015  11.641  0.00  0.00    +0.000 C 
ATOM     36  C   UNL     1       1.535   5.409  14.476  0.00  0.00    +0.000 C 
ATOM     37  C   UNL     1       0.769   6.658  12.506  0.00  0.00    +0.000 C 
ATOM     38  C   UNL     1      -0.905   5.515  13.896  0.00  0.00    +0.000 C 
BRANCH  33  39
ATOM     39  N   UNL     1       4.112   4.900  11.613  0.00  0.00    +0.000 NA
ATOM     40  C   UNL     1       5.287   4.467  12.399  0.00  0.00    +0.000 C 
ATOM     41  C   UNL     1       3.534   3.745  10.896  0.00  0.00    +0.000 C 
ATOM     42  C   UNL     1       6.349   3.770  11.545  0.00  0.00    +0.000 C 
ATOM     43  C   UNL     1       4.552   3.029  10.005  0.00  0.00    +0.000 C 
ATOM     44  C   UNL     1       5.769   2.584  10.796  0.00  0.00    +0.000 C 
ENDBRANCH  33  39
ENDBRANCH  30  38
ENDBRANCH  20  30
TORSDOF 6
ENDMDL
MODEL 9
REMARK VINA RESULT:      -5.9     19.304     24.416
REMARK  Name = 
REMARK  8 active torsions:
REMARK  status: ('A' for Active; 'I' for Inactive)
REMARK    1  A    between atoms: O_1  and  C_21
REMARK    2  A    between atoms: O_1  and  C_38
REMARK    3  A    between atoms: O_4  and  C_26
REMARK    4  A    between atoms: N_7  and  C_11
REMARK    5  A    between atoms: C_26  and  C_33
REMARK    6  A    between atoms: C_29  and  C_37
REMARK    7  A    between atoms: C_33  and  C_42
REMARK    8  A    between atoms: C_37  and  C_43
REMARK                            x       y       z     vdW  Elec       q    Type
REMARK                         _______ _______ _______ _____ _____    ______ ____
ROOT
ATOM      1  O   UNL     1     -34.984  14.213  11.063  0.00  0.00    +0.000 OA
ATOM      2  O   UNL     1     -32.110  17.024  12.324  0.00  0.00    +0.000 OA
ATOM      3  O   UNL     1     -35.460  12.896   9.305  0.00  0.00    +0.000 OA
ATOM      4  N   UNL     1     -30.468  16.035  11.063  0.00  0.00    +0.000 N 
ATOM      5  N   UNL     1     -27.869  14.480   9.140  0.00  0.00    +0.000 NA
ATOM      6  C   UNL     1     -30.036  15.011  10.244  0.00  0.00    +0.000 A 
ATOM      7  C   UNL     1     -28.248  16.437  10.529  0.00  0.00    +0.000 A 
ATOM      8  C   UNL     1     -29.398  17.006  11.308  0.00  0.00    +0.000 C 
ATOM      9  C   UNL     1     -32.226  14.016  10.381  0.00  0.00    +0.000 A 
ATOM     10  C   UNL     1     -33.153  12.879  10.033  0.00  0.00    +0.000 C 
ATOM     11  C   UNL     1     -28.638  15.258   9.906  0.00  0.00    +0.000 A 
ATOM     12  C   UNL     1     -32.655  15.013  11.181  0.00  0.00    +0.000 A 
ATOM     13  C   UNL     1     -26.947  16.892  10.365  0.00  0.00    +0.000 A 
ATOM     14  C   UNL     1     -30.853  14.014   9.890  0.00  0.00    +0.000 A 
ATOM     15  C   UNL     1     -31.733  16.124  11.581  0.00  0.00    +0.000 A 
ATOM     16  C   UNL     1     -26.080  16.090   9.568  0.00  0.00    +0.000 A 
ATOM     17  C   UNL     1     -34.037  15.072  11.731  0.00  0.00    +0.000 C 
ATOM     18  C   UNL     1     -26.603  14.894   8.979  0.00  0.00    +0.000 A 
ATOM     19  C   UNL     1     -34.624  13.350  10.089  0.00  0.00    +0.000 C 
ATOM     20  C   UNL     1     -23.925  15.580   8.551  0.00  0.00    +0.000 A 
ATOM     21  C   UNL     1     -24.726  16.413   9.330  0.00  0.00    +0.000 A 
ATOM     22  C   UNL     1     -25.773  14.106   8.192  0.00  0.00    +0.000 A 
ATOM     23  C   UNL     1     -24.438  14.436   7.962  0.00  0.00    +0.000 A 
ENDROOT
BRANCH  10  24
ATOM     24  O   UNL     1     -32.868  12.444   8.696  0.00  0.00    +0.000 OA
ATOM     25  H   UNL     1     -32.664  13.253   8.185  0.00  0.00    +0.000 HD
ENDBRANCH  10  24
BRANCH  10  26
ATOM     26  C   UNL     1     -32.942  11.695  11.001  0.00  0.00    +0.000 C 
ATOM     27  C   UNL     1     -31.646  10.920  10.780  0.00  0.00    +0.000 C 
ENDBRANCH  10  26
BRANCH  13  28
ATOM     28  C   UNL     1     -26.506  18.164  11.046  0.00  0.00    +0.000 C 
ATOM     29  C   UNL     1     -26.021  17.916  12.466  0.00  0.00    +0.000 C 
ENDBRANCH  13  28
BRANCH  20  30
ATOM     30  O   UNL     1     -22.603  15.949   8.299  0.00  0.00    +0.000 OA
BRANCH  30  38
ATOM     31  O   UNL     1     -21.409  14.363   9.491  0.00  0.00    +0.000 OA
ATOM     32  N   UNL     1     -21.184  16.597  10.003  0.00  0.00    +0.000 N 
ATOM     33  C   UNL     1     -20.852  18.557  12.151  0.00  0.00    +0.000 C 
ATOM     34  C   UNL     1     -21.889  18.723  11.012  0.00  0.00    +0.000 C 
ATOM     35  C   UNL     1     -20.572  17.044  12.338  0.00  0.00    +0.000 C 
ATOM     36  C   UNL     1     -21.479  17.994   9.735  0.00  0.00    +0.000 C 
ATOM     37  C   UNL     1     -20.190  16.355  11.031  0.00  0.00    +0.000 C 
ATOM     38  C   UNL     1     -21.706  15.536   9.279  0.00  0.00    +0.000 C 
BRANCH  33  39
ATOM     39  N   UNL     1     -21.308  19.200  13.424  0.00  0.00    +0.000 NA
ATOM     40  C   UNL     1     -20.774  20.570  13.576  0.00  0.00    +0.000 C 
ATOM     41  C   UNL     1     -22.780  19.218  13.545  0.00  0.00    +0.000 C 
ATOM     42  C   UNL     1     -21.204  21.233  14.887  0.00  0.00    +0.000 C 
ATOM     43  C   UNL     1     -23.262  19.848  14.854  0.00  0.00    +0.000 C 
ATOM     44  C   UNL     1     -22.716  21.254  15.030  0.00  0.00    +0.000 C 
ENDBRANCH  33  39
ENDBRANCH  30  38
ENDBRANCH  20  30
TORSDOF 6
ENDMDL
