MODEL 1
REMARK VINA RESULT:      -5.9      0.000      0.000
REMARK  Name = 
REMARK  4 active torsions:
REMARK  status: ('A' for Active; 'I' for Inactive)
REMARK    1  A    between atoms: C_1  and  C_6
REMARK    2  A    between atoms: C_1  and  C_7
REMARK    3  A    between atoms: C_9  and  C_14
REMARK    4  A    between atoms: C_11  and  C_15
REMARK                            x       y       z     vdW  Elec       q    Type
REMARK                         _______ _______ _______ _____ _____    ______ ____
ROOT
ATOM      1  C   UNL     1     -15.465  10.561  -3.173  0.00  0.00    +0.000 C 
ATOM      2  C   UNL     1     -14.833   9.583  -2.187  0.00  0.00    +0.000 C 
ATOM      3  C   UNL     1     -14.672   9.364  -3.670  0.00  0.00    +0.000 C 
ATOM      4  C   UNL     1     -15.679   8.734  -1.351  0.00  0.00    +0.000 C 
ATOM      5  C   UNL     1     -15.267   8.170  -4.347  0.00  0.00    +0.000 C 
ATOM      6  C   UNL     1     -16.962  10.611  -3.372  0.00  0.00    +0.000 C 
ATOM      7  C   UNL     1     -14.813  11.917  -3.306  0.00  0.00    +0.000 C 
ATOM      8  C   UNL     1     -16.019   7.436  -1.469  0.00  0.00    +0.000 C 
ATOM      9  C   UNL     1     -16.315   9.354  -0.121  0.00  0.00    +0.000 C 
ATOM     10  C   UNL     1     -14.768   6.884  -3.690  0.00  0.00    +0.000 C 
ATOM     11  C   UNL     1     -15.646   6.410  -2.515  0.00  0.00    +0.000 C 
ATOM     12  C   UNL     1     -16.959   7.028  -0.364  0.00  0.00    +0.000 C 
ATOM     13  C   UNL     1     -17.434   8.362   0.198  0.00  0.00    +0.000 C 
ATOM     14  C   UNL     1     -15.324   9.495   1.032  0.00  0.00    +0.000 C 
ATOM     15  C   UNL     1     -14.973   5.193  -1.865  0.00  0.00    +0.000 C 
ENDROOT
TORSDOF 0
ENDMDL
MODEL 2
REMARK VINA RESULT:      -5.6      2.445      5.258
REMARK  Name = 
REMARK  4 active torsions:
REMARK  status: ('A' for Active; 'I' for Inactive)
REMARK    1  A    between atoms: C_1  and  C_6
REMARK    2  A    between atoms: C_1  and  C_7
REMARK    3  A    between atoms: C_9  and  C_14
REMARK    4  A    between atoms: C_11  and  C_15
REMARK                            x       y       z     vdW  Elec       q    Type
REMARK                         _______ _______ _______ _____ _____    ______ ____
ROOT
ATOM      1  C   UNL     1     -13.227  14.088  -3.818  0.00  0.00    +0.000 C 
ATOM      2  C   UNL     1     -14.575  13.398  -3.638  0.00  0.00    +0.000 C 
ATOM      3  C   UNL     1     -13.877  14.003  -2.447  0.00  0.00    +0.000 C 
ATOM      4  C   UNL     1     -14.694  11.955  -3.836  0.00  0.00    +0.000 C 
ATOM      5  C   UNL     1     -13.382  13.149  -1.322  0.00  0.00    +0.000 C 
ATOM      6  C   UNL     1     -11.976  13.293  -4.112  0.00  0.00    +0.000 C 
ATOM      7  C   UNL     1     -13.233  15.438  -4.495  0.00  0.00    +0.000 C 
ATOM      8  C   UNL     1     -14.753  10.944  -2.948  0.00  0.00    +0.000 C 
ATOM      9  C   UNL     1     -14.769  11.435  -5.258  0.00  0.00    +0.000 C 
ATOM     10  C   UNL     1     -14.527  12.318  -0.743  0.00  0.00    +0.000 C 
ATOM     11  C   UNL     1     -14.712  10.954  -1.437  0.00  0.00    +0.000 C 
ATOM     12  C   UNL     1     -14.832   9.615  -3.656  0.00  0.00    +0.000 C 
ATOM     13  C   UNL     1     -14.417   9.958  -5.081  0.00  0.00    +0.000 C 
ATOM     14  C   UNL     1     -16.154  11.628  -5.871  0.00  0.00    +0.000 C 
ATOM     15  C   UNL     1     -15.962  10.279  -0.854  0.00  0.00    +0.000 C 
ENDROOT
TORSDOF 0
ENDMDL
MODEL 3
REMARK VINA RESULT:      -5.2      1.825      4.750
REMARK  Name = 
REMARK  4 active torsions:
REMARK  status: ('A' for Active; 'I' for Inactive)
REMARK    1  A    between atoms: C_1  and  C_6
REMARK    2  A    between atoms: C_1  and  C_7
REMARK    3  A    between atoms: C_9  and  C_14
REMARK    4  A    between atoms: C_11  and  C_15
REMARK                            x       y       z     vdW  Elec       q    Type
REMARK                         _______ _______ _______ _____ _____    ______ ____
ROOT
ATOM      1  C   UNL     1     -17.226   8.716   0.496  0.00  0.00    +0.000 C 
ATOM      2  C   UNL     1     -17.212  10.049  -0.247  0.00  0.00    +0.000 C 
ATOM      3  C   UNL     1     -18.521   9.346   0.011  0.00  0.00    +0.000 C 
ATOM      4  C   UNL     1     -16.614  10.141  -1.577  0.00  0.00    +0.000 C 
ATOM      5  C   UNL     1     -19.354   8.820  -1.115  0.00  0.00    +0.000 C 
ATOM      6  C   UNL     1     -16.710   7.454  -0.155  0.00  0.00    +0.000 C 
ATOM      7  C   UNL     1     -16.960   8.758   1.982  0.00  0.00    +0.000 C 
ATOM      8  C   UNL     1     -17.179  10.169  -2.800  0.00  0.00    +0.000 C 
ATOM      9  C   UNL     1     -15.103  10.224  -1.674  0.00  0.00    +0.000 C 
ATOM     10  C   UNL     1     -19.682   9.941  -2.102  0.00  0.00    +0.000 C 
ATOM     11  C   UNL     1     -18.630  10.109  -3.217  0.00  0.00    +0.000 C 
ATOM     12  C   UNL     1     -16.123  10.231  -3.874  0.00  0.00    +0.000 C 
ATOM     13  C   UNL     1     -14.851   9.841  -3.132  0.00  0.00    +0.000 C 
ATOM     14  C   UNL     1     -14.579  11.621  -1.346  0.00  0.00    +0.000 C 
ATOM     15  C   UNL     1     -19.006  11.338  -4.057  0.00  0.00    +0.000 C 
ENDROOT
TORSDOF 0
ENDMDL
MODEL 4
REMARK VINA RESULT:      -4.9     19.831     20.868
REMARK  Name = 
REMARK  4 active torsions:
REMARK  status: ('A' for Active; 'I' for Inactive)
REMARK    1  A    between atoms: C_1  and  C_6
REMARK    2  A    between atoms: C_1  and  C_7
REMARK    3  A    between atoms: C_9  and  C_14
REMARK    4  A    between atoms: C_11  and  C_15
REMARK                            x       y       z     vdW  Elec       q    Type
REMARK                         _______ _______ _______ _____ _____    ______ ____
ROOT
ATOM      1  C   UNL     1      -9.569   6.414  17.684  0.00  0.00    +0.000 C 
ATOM      2  C   UNL     1      -8.696   6.868  16.518  0.00  0.00    +0.000 C 
ATOM      3  C   UNL     1      -9.314   5.492  16.503  0.00  0.00    +0.000 C 
ATOM      4  C   UNL     1      -7.265   7.089  16.714  0.00  0.00    +0.000 C 
ATOM      5  C   UNL     1      -8.466   4.260  16.551  0.00  0.00    +0.000 C 
ATOM      6  C   UNL     1      -8.965   6.097  19.033  0.00  0.00    +0.000 C 
ATOM      7  C   UNL     1     -10.945   7.026  17.790  0.00  0.00    +0.000 C 
ATOM      8  C   UNL     1      -6.202   6.321  16.405  0.00  0.00    +0.000 C 
ATOM      9  C   UNL     1      -6.828   8.385  17.369  0.00  0.00    +0.000 C 
ATOM     10  C   UNL     1      -7.457   4.265  15.403  0.00  0.00    +0.000 C 
ATOM     11  C   UNL     1      -6.126   4.959  15.754  0.00  0.00    +0.000 C 
ATOM     12  C   UNL     1      -4.922   6.979  16.851  0.00  0.00    +0.000 C 
ATOM     13  C   UNL     1      -5.403   8.058  17.814  0.00  0.00    +0.000 C 
ATOM     14  C   UNL     1      -6.874   9.565  16.402  0.00  0.00    +0.000 C 
ATOM     15  C   UNL     1      -5.257   5.010  14.489  0.00  0.00    +0.000 C 
ENDROOT
TORSDOF 0
ENDMDL
MODEL 5
REMARK VINA RESULT:      -4.9      2.218      4.177
REMARK  Name = 
REMARK  4 active torsions:
REMARK  status: ('A' for Active; 'I' for Inactive)
REMARK    1  A    between atoms: C_1  and  C_6
REMARK    2  A    between atoms: C_1  and  C_7
REMARK    3  A    between atoms: C_9  and  C_14
REMARK    4  A    between atoms: C_11  and  C_15
REMARK                            x       y       z     vdW  Elec       q    Type
REMARK                         _______ _______ _______ _____ _____    ______ ____
ROOT
ATOM      1  C   UNL     1     -16.359   9.100   0.367  0.00  0.00    +0.000 C 
ATOM      2  C   UNL     1     -16.475   8.533  -1.044  0.00  0.00    +0.000 C 
ATOM      3  C   UNL     1     -17.194   9.809  -0.687  0.00  0.00    +0.000 C 
ATOM      4  C   UNL     1     -17.173   7.269  -1.272  0.00  0.00    +0.000 C 
ATOM      5  C   UNL     1     -18.688   9.882  -0.681  0.00  0.00    +0.000 C 
ATOM      6  C   UNL     1     -17.034   8.425   1.538  0.00  0.00    +0.000 C 
ATOM      7  C   UNL     1     -15.044   9.741   0.742  0.00  0.00    +0.000 C 
ATOM      8  C   UNL     1     -18.414   7.017  -1.733  0.00  0.00    +0.000 C 
ATOM      9  C   UNL     1     -16.436   5.981  -0.959  0.00  0.00    +0.000 C 
ATOM     10  C   UNL     1     -19.245   9.470  -2.044  0.00  0.00    +0.000 C 
ATOM     11  C   UNL     1     -19.514   7.957  -2.169  0.00  0.00    +0.000 C 
ATOM     12  C   UNL     1     -18.686   5.535  -1.749  0.00  0.00    +0.000 C 
ATOM     13  C   UNL     1     -17.579   4.970  -0.867  0.00  0.00    +0.000 C 
ATOM     14  C   UNL     1     -15.428   5.615  -2.046  0.00  0.00    +0.000 C 
ATOM     15  C   UNL     1     -19.944   7.659  -3.612  0.00  0.00    +0.000 C 
ENDROOT
TORSDOF 0
ENDMDL
MODEL 6
REMARK VINA RESULT:      -4.9     19.241     20.977
REMARK  Name = 
REMARK  4 active torsions:
REMARK  status: ('A' for Active; 'I' for Inactive)
REMARK    1  A    between atoms: C_1  and  C_6
REMARK    2  A    between atoms: C_1  and  C_7
REMARK    3  A    between atoms: C_9  and  C_14
REMARK    4  A    between atoms: C_11  and  C_15
REMARK                            x       y       z     vdW  Elec       q    Type
REMARK                         _______ _______ _______ _____ _____    ______ ____
ROOT
ATOM      1  C   UNL     1      -5.736   4.284  15.697  0.00  0.00    +0.000 C 
ATOM      2  C   UNL     1      -6.421   4.915  16.906  0.00  0.00    +0.000 C 
ATOM      3  C   UNL     1      -7.215   4.050  15.959  0.00  0.00    +0.000 C 
ATOM      4  C   UNL     1      -6.589   6.364  16.981  0.00  0.00    +0.000 C 
ATOM      5  C   UNL     1      -8.326   4.620  15.135  0.00  0.00    +0.000 C 
ATOM      6  C   UNL     1      -5.301   5.125  14.520  0.00  0.00    +0.000 C 
ATOM      7  C   UNL     1      -4.803   3.127  15.965  0.00  0.00    +0.000 C 
ATOM      8  C   UNL     1      -7.662   7.143  16.742  0.00  0.00    +0.000 C 
ATOM      9  C   UNL     1      -5.392   7.199  17.393  0.00  0.00    +0.000 C 
ATOM     10  C   UNL     1      -9.361   5.295  16.033  0.00  0.00    +0.000 C 
ATOM     11  C   UNL     1      -9.064   6.783  16.308  0.00  0.00    +0.000 C 
ATOM     12  C   UNL     1      -7.315   8.599  16.920  0.00  0.00    +0.000 C 
ATOM     13  C   UNL     1      -5.792   8.595  16.915  0.00  0.00    +0.000 C 
ATOM     14  C   UNL     1      -5.147   7.154  18.899  0.00  0.00    +0.000 C 
ATOM     15  C   UNL     1     -10.097   7.305  17.317  0.00  0.00    +0.000 C 
ENDROOT
TORSDOF 0
ENDMDL
MODEL 7
REMARK VINA RESULT:      -4.5     19.042     20.484
REMARK  Name = 
REMARK  4 active torsions:
REMARK  status: ('A' for Active; 'I' for Inactive)
REMARK    1  A    between atoms: C_1  and  C_6
REMARK    2  A    between atoms: C_1  and  C_7
REMARK    3  A    between atoms: C_9  and  C_14
REMARK    4  A    between atoms: C_11  and  C_15
REMARK                            x       y       z     vdW  Elec       q    Type
REMARK                         _______ _______ _______ _____ _____    ______ ____
ROOT
ATOM      1  C   UNL     1     -25.674   6.789  15.454  0.00  0.00    +0.000 C 
ATOM      2  C   UNL     1     -24.861   6.800  16.745  0.00  0.00    +0.000 C 
ATOM      3  C   UNL     1     -25.145   8.094  16.025  0.00  0.00    +0.000 C 
ATOM      4  C   UNL     1     -23.533   6.191  16.782  0.00  0.00    +0.000 C 
ATOM      5  C   UNL     1     -24.042   8.903  15.420  0.00  0.00    +0.000 C 
ATOM      6  C   UNL     1     -25.095   6.235  14.172  0.00  0.00    +0.000 C 
ATOM      7  C   UNL     1     -27.157   6.538  15.580  0.00  0.00    +0.000 C 
ATOM      8  C   UNL     1     -22.306   6.745  16.731  0.00  0.00    +0.000 C 
ATOM      9  C   UNL     1     -23.444   4.682  16.898  0.00  0.00    +0.000 C 
ATOM     10  C   UNL     1     -22.995   9.248  16.478  0.00  0.00    +0.000 C 
ATOM     11  C   UNL     1     -21.881   8.191  16.613  0.00  0.00    +0.000 C 
ATOM     12  C   UNL     1     -21.239   5.681  16.762  0.00  0.00    +0.000 C 
ATOM     13  C   UNL     1     -22.011   4.407  16.444  0.00  0.00    +0.000 C 
ATOM     14  C   UNL     1     -23.702   4.196  18.322  0.00  0.00    +0.000 C 
ATOM     15  C   UNL     1     -20.973   8.588  17.786  0.00  0.00    +0.000 C 
ENDROOT
TORSDOF 0
ENDMDL
MODEL 8
REMARK VINA RESULT:      -4.4     18.391     21.108
REMARK  Name = 
REMARK  4 active torsions:
REMARK  status: ('A' for Active; 'I' for Inactive)
REMARK    1  A    between atoms: C_1  and  C_6
REMARK    2  A    between atoms: C_1  and  C_7
REMARK    3  A    between atoms: C_9  and  C_14
REMARK    4  A    between atoms: C_11  and  C_15
REMARK                            x       y       z     vdW  Elec       q    Type
REMARK                         _______ _______ _______ _____ _____    ______ ____
ROOT
ATOM      1  C   UNL     1      -6.339   4.186  16.728  0.00  0.00    +0.000 C 
ATOM      2  C   UNL     1      -7.463   4.942  17.431  0.00  0.00    +0.000 C 
ATOM      3  C   UNL     1      -6.866   3.716  18.074  0.00  0.00    +0.000 C 
ATOM      4  C   UNL     1      -8.807   4.958  16.857  0.00  0.00    +0.000 C 
ATOM      5  C   UNL     1      -7.678   2.477  18.285  0.00  0.00    +0.000 C 
ATOM      6  C   UNL     1      -6.605   3.369  15.486  0.00  0.00    +0.000 C 
ATOM      7  C   UNL     1      -4.977   4.839  16.717  0.00  0.00    +0.000 C 
ATOM      8  C   UNL     1      -9.912   4.258  17.177  0.00  0.00    +0.000 C 
ATOM      9  C   UNL     1      -9.077   5.902  15.701  0.00  0.00    +0.000 C 
ATOM     10  C   UNL     1      -8.930   2.795  19.101  0.00  0.00    +0.000 C 
ATOM     11  C   UNL     1     -10.141   3.207  18.240  0.00  0.00    +0.000 C 
ATOM     12  C   UNL     1     -11.051   4.607  16.254  0.00  0.00    +0.000 C 
ATOM     13  C   UNL     1     -10.356   5.320  15.100  0.00  0.00    +0.000 C 
ATOM     14  C   UNL     1      -9.262   7.345  16.165  0.00  0.00    +0.000 C 
ATOM     15  C   UNL     1     -11.284   3.621  19.177  0.00  0.00    +0.000 C 
ENDROOT
TORSDOF 0
ENDMDL
MODEL 9
REMARK VINA RESULT:      -4.3     19.029     21.799
REMARK  Name = 
REMARK  4 active torsions:
REMARK  status: ('A' for Active; 'I' for Inactive)
REMARK    1  A    between atoms: C_1  and  C_6
REMARK    2  A    between atoms: C_1  and  C_7
REMARK    3  A    between atoms: C_9  and  C_14
REMARK    4  A    between atoms: C_11  and  C_15
REMARK                            x       y       z     vdW  Elec       q    Type
REMARK                         _______ _______ _______ _____ _____    ______ ____
ROOT
ATOM      1  C   UNL     1      -7.033   2.621  18.677  0.00  0.00    +0.000 C 
ATOM      2  C   UNL     1      -8.341   2.516  17.899  0.00  0.00    +0.000 C 
ATOM      3  C   UNL     1      -7.052   2.796  17.167  0.00  0.00    +0.000 C 
ATOM      4  C   UNL     1      -9.384   3.524  18.076  0.00  0.00    +0.000 C 
ATOM      5  C   UNL     1      -6.830   4.093  16.457  0.00  0.00    +0.000 C 
ATOM      6  C   UNL     1      -6.749   3.806  19.570  0.00  0.00    +0.000 C 
ATOM      7  C   UNL     1      -6.447   1.335  19.209  0.00  0.00    +0.000 C 
ATOM      8  C   UNL     1      -9.732   4.578  17.313  0.00  0.00    +0.000 C 
ATOM      9  C   UNL     1     -10.264   3.430  19.307  0.00  0.00    +0.000 C 
ATOM     10  C   UNL     1      -7.939   4.336  15.434  0.00  0.00    +0.000 C 
ATOM     11  C   UNL     1      -9.157   5.085  16.010  0.00  0.00    +0.000 C 
ATOM     12  C   UNL     1     -10.858   5.351  17.951  0.00  0.00    +0.000 C 
ATOM     13  C   UNL     1     -10.864   4.834  19.385  0.00  0.00    +0.000 C 
ATOM     14  C   UNL     1     -11.336   2.351  19.168  0.00  0.00    +0.000 C 
ATOM     15  C   UNL     1     -10.243   5.151  14.926  0.00  0.00    +0.000 C 
ENDROOT
TORSDOF 0
ENDMDL
