MODEL 1
REMARK VINA RESULT:      -6.0      0.000      0.000
REMARK  Name = JAK3_Inhibitor.pdbqt.pdb
REMARK  1 active torsions:
REMARK  status: ('A' for Active; 'I' for Inactive)
REMARK    1  A    between atoms: C_7  and  C_20
REMARK                            x       y       z     vdW  Elec       q    Type
REMARK                         _______ _______ _______ _____ _____    ______ ____
ROOT
ATOM      1  O   UNL     1     -24.709   8.926   1.643  0.00  0.00    +0.000 OA
ATOM      2  N   UNL     1     -24.145  11.051   2.449  0.00  0.00    +0.000 N 
ATOM      3  C   UNL     1     -24.192  10.670   4.711  0.00  0.00    +0.000 A 
ATOM      4  C   UNL     1     -23.971  11.620   3.712  0.00  0.00    +0.000 A 
ATOM      5  C   UNL     1     -24.524   9.437   4.017  0.00  0.00    +0.000 C 
ATOM      6  C   UNL     1     -24.077  11.002   6.046  0.00  0.00    +0.000 A 
ATOM      7  C   UNL     1     -23.731  12.319   6.392  0.00  0.00    +0.000 A 
ATOM      8  C   UNL     1     -24.488   9.708   2.547  0.00  0.00    +0.000 C 
ATOM      9  C   UNL     1     -23.629  12.923   4.000  0.00  0.00    +0.000 A 
ATOM     10  C   UNL     1     -24.809   8.285   4.535  0.00  0.00    +0.000 C 
ATOM     11  C   UNL     1     -23.514  13.254   5.352  0.00  0.00    +0.000 A 
ATOM     12  H   UNL     1     -24.042  11.531   1.566  0.00  0.00    +0.000 HD
ATOM     13  N   UNL     1     -25.425   5.918   4.273  0.00  0.00    +0.000 N 
ATOM     14  C   UNL     1     -25.126   7.005   5.053  0.00  0.00    +0.000 C 
ATOM     15  C   UNL     1     -25.195   6.612   6.370  0.00  0.00    +0.000 C 
ATOM     16  C   UNL     1     -25.684   4.839   5.077  0.00  0.00    +0.000 C 
ATOM     17  C   UNL     1     -25.549   5.243   6.385  0.00  0.00    +0.000 C 
ATOM     18  H   UNL     1     -25.450   5.915   3.262  0.00  0.00    +0.000 HD
ENDROOT
BRANCH   7  20
ATOM     19  N   UNL     1     -22.175  13.069   9.748  0.00  0.00    +0.000 NA
ATOM     20  C   UNL     1     -23.597  12.717   7.798  0.00  0.00    +0.000 A 
ATOM     21  C   UNL     1     -24.692  13.122   8.564  0.00  0.00    +0.000 A 
ATOM     22  C   UNL     1     -22.371  12.716   8.457  0.00  0.00    +0.000 A 
ATOM     23  C   UNL     1     -24.545  13.496   9.895  0.00  0.00    +0.000 A 
ATOM     24  C   UNL     1     -23.272  13.451  10.435  0.00  0.00    +0.000 A 
ENDBRANCH   7  20
TORSDOF 1
ENDMDL
MODEL 2
REMARK VINA RESULT:      -5.8     12.133     14.499
REMARK  Name = JAK3_Inhibitor.pdbqt.pdb
REMARK  1 active torsions:
REMARK  status: ('A' for Active; 'I' for Inactive)
REMARK    1  A    between atoms: C_7  and  C_20
REMARK                            x       y       z     vdW  Elec       q    Type
REMARK                         _______ _______ _______ _____ _____    ______ ____
ROOT
ATOM      1  O   UNL     1     -13.303   7.340  -7.711  0.00  0.00    +0.000 OA
ATOM      2  N   UNL     1     -13.732   6.126  -5.754  0.00  0.00    +0.000 N 
ATOM      3  C   UNL     1     -14.532   7.790  -4.392  0.00  0.00    +0.000 A 
ATOM      4  C   UNL     1     -14.228   6.430  -4.486  0.00  0.00    +0.000 A 
ATOM      5  C   UNL     1     -14.200   8.358  -5.688  0.00  0.00    +0.000 C 
ATOM      6  C   UNL     1     -15.038   8.327  -3.225  0.00  0.00    +0.000 A 
ATOM      7  C   UNL     1     -15.248   7.482  -2.122  0.00  0.00    +0.000 A 
ATOM      8  C   UNL     1     -13.682   7.258  -6.559  0.00  0.00    +0.000 C 
ATOM      9  C   UNL     1     -14.416   5.562  -3.433  0.00  0.00    +0.000 A 
ATOM     10  C   UNL     1     -14.315   9.590  -6.068  0.00  0.00    +0.000 C 
ATOM     11  C   UNL     1     -14.929   6.109  -2.255  0.00  0.00    +0.000 A 
ATOM     12  H   UNL     1     -13.442   5.212  -6.071  0.00  0.00    +0.000 HD
ATOM     13  N   UNL     1     -14.067  11.327  -7.793  0.00  0.00    +0.000 N 
ATOM     14  C   UNL     1     -14.421  10.926  -6.532  0.00  0.00    +0.000 C 
ATOM     15  C   UNL     1     -14.877  12.030  -5.849  0.00  0.00    +0.000 C 
ATOM     16  C   UNL     1     -14.290  12.672  -7.923  0.00  0.00    +0.000 C 
ATOM     17  C   UNL     1     -14.794  13.134  -6.729  0.00  0.00    +0.000 C 
ATOM     18  H   UNL     1     -13.697  10.722  -8.515  0.00  0.00    +0.000 HD
ENDROOT
BRANCH   7  20
ATOM     19  N   UNL     1     -17.580   8.065   0.786  0.00  0.00    +0.000 NA
ATOM     20  C   UNL     1     -15.785   8.009  -0.862  0.00  0.00    +0.000 A 
ATOM     21  C   UNL     1     -15.084   8.932  -0.084  0.00  0.00    +0.000 A 
ATOM     22  C   UNL     1     -17.025   7.621  -0.364  0.00  0.00    +0.000 A 
ATOM     23  C   UNL     1     -15.610   9.420   1.107  0.00  0.00    +0.000 A 
ATOM     24  C   UNL     1     -16.854   8.956   1.494  0.00  0.00    +0.000 A 
ENDBRANCH   7  20
TORSDOF 1
ENDMDL
MODEL 3
REMARK VINA RESULT:      -5.7     18.292     19.930
REMARK  Name = JAK3_Inhibitor.pdbqt.pdb
REMARK  1 active torsions:
REMARK  status: ('A' for Active; 'I' for Inactive)
REMARK    1  A    between atoms: C_7  and  C_20
REMARK                            x       y       z     vdW  Elec       q    Type
REMARK                         _______ _______ _______ _____ _____    ______ ____
ROOT
ATOM      1  O   UNL     1     -10.275   1.152  18.903  0.00  0.00    +0.000 OA
ATOM      2  N   UNL     1     -10.982   3.251  19.663  0.00  0.00    +0.000 N 
ATOM      3  C   UNL     1     -13.107   2.750  20.369  0.00  0.00    +0.000 A 
ATOM      4  C   UNL     1     -12.151   3.759  20.232  0.00  0.00    +0.000 A 
ATOM      5  C   UNL     1     -12.485   1.544  19.849  0.00  0.00    +0.000 C 
ATOM      6  C   UNL     1     -14.349   3.015  20.910  0.00  0.00    +0.000 A 
ATOM      7  C   UNL     1     -14.644   4.325  21.328  0.00  0.00    +0.000 A 
ATOM      8  C   UNL     1     -11.104   1.893  19.395  0.00  0.00    +0.000 C 
ATOM      9  C   UNL     1     -12.392   5.056  20.627  0.00  0.00    +0.000 A 
ATOM     10  C   UNL     1     -12.996   0.357  19.770  0.00  0.00    +0.000 C 
ATOM     11  C   UNL     1     -13.649   5.320  21.174  0.00  0.00    +0.000 A 
ATOM     12  H   UNL     1     -10.145   3.780  19.462  0.00  0.00    +0.000 HD
ATOM     13  N   UNL     1     -12.804  -2.015  19.144  0.00  0.00    +0.000 N 
ATOM     14  C   UNL     1     -13.509  -0.960  19.663  0.00  0.00    +0.000 C 
ATOM     15  C   UNL     1     -14.749  -1.424  20.038  0.00  0.00    +0.000 C 
ATOM     16  C   UNL     1     -13.579  -3.143  19.182  0.00  0.00    +0.000 C 
ATOM     17  C   UNL     1     -14.793  -2.804  19.733  0.00  0.00    +0.000 C 
ATOM     18  H   UNL     1     -11.858  -1.965  18.788  0.00  0.00    +0.000 HD
ENDROOT
BRANCH   7  20
ATOM     19  N   UNL     1     -18.265   5.350  21.594  0.00  0.00    +0.000 NA
ATOM     20  C   UNL     1     -15.951   4.652  21.909  0.00  0.00    +0.000 A 
ATOM     21  C   UNL     1     -16.187   4.601  23.284  0.00  0.00    +0.000 A 
ATOM     22  C   UNL     1     -17.036   5.035  21.127  0.00  0.00    +0.000 A 
ATOM     23  C   UNL     1     -17.432   4.915  23.816  0.00  0.00    +0.000 A 
ATOM     24  C   UNL     1     -18.431   5.281  22.932  0.00  0.00    +0.000 A 
ENDBRANCH   7  20
TORSDOF 1
ENDMDL
MODEL 4
REMARK VINA RESULT:      -5.5     11.909     14.365
REMARK  Name = JAK3_Inhibitor.pdbqt.pdb
REMARK  1 active torsions:
REMARK  status: ('A' for Active; 'I' for Inactive)
REMARK    1  A    between atoms: C_7  and  C_20
REMARK                            x       y       z     vdW  Elec       q    Type
REMARK                         _______ _______ _______ _____ _____    ______ ____
ROOT
ATOM      1  O   UNL     1     -16.126   9.867  -4.289  0.00  0.00    +0.000 OA
ATOM      2  N   UNL     1     -14.870   8.057  -5.084  0.00  0.00    +0.000 N 
ATOM      3  C   UNL     1     -14.764   6.756  -3.196  0.00  0.00    +0.000 A 
ATOM      4  C   UNL     1     -14.390   6.865  -4.538  0.00  0.00    +0.000 A 
ATOM      5  C   UNL     1     -15.524   7.959  -2.900  0.00  0.00    +0.000 C 
ATOM      6  C   UNL     1     -14.401   5.658  -2.443  0.00  0.00    +0.000 A 
ATOM      7  C   UNL     1     -13.644   4.639  -3.048  0.00  0.00    +0.000 A 
ATOM      8  C   UNL     1     -15.580   8.791  -4.141  0.00  0.00    +0.000 C 
ATOM      9  C   UNL     1     -13.649   5.894  -5.174  0.00  0.00    +0.000 A 
ATOM     10  C   UNL     1     -16.072   8.296  -1.776  0.00  0.00    +0.000 C 
ATOM     11  C   UNL     1     -13.285   4.784  -4.409  0.00  0.00    +0.000 A 
ATOM     12  H   UNL     1     -14.734   8.367  -6.035  0.00  0.00    +0.000 HD
ATOM     13  N   UNL     1     -17.381   9.885  -0.428  0.00  0.00    +0.000 N 
ATOM     14  C   UNL     1     -16.690   8.710  -0.569  0.00  0.00    +0.000 C 
ATOM     15  C   UNL     1     -16.721   8.053   0.640  0.00  0.00    +0.000 C 
ATOM     16  C   UNL     1     -17.851   9.985   0.855  0.00  0.00    +0.000 C 
ATOM     17  C   UNL     1     -17.455   8.860   1.540  0.00  0.00    +0.000 C 
ATOM     18  H   UNL     1     -17.521  10.570  -1.159  0.00  0.00    +0.000 HD
ENDROOT
BRANCH   7  20
ATOM     19  N   UNL     1     -13.856   1.469  -1.012  0.00  0.00    +0.000 NA
ATOM     20  C   UNL     1     -13.237   3.453  -2.286  0.00  0.00    +0.000 A 
ATOM     21  C   UNL     1     -11.895   3.128  -2.079  0.00  0.00    +0.000 A 
ATOM     22  C   UNL     1     -14.160   2.577  -1.724  0.00  0.00    +0.000 A 
ATOM     23  C   UNL     1     -11.528   1.999  -1.354  0.00  0.00    +0.000 A 
ATOM     24  C   UNL     1     -12.543   1.208  -0.846  0.00  0.00    +0.000 A 
ENDBRANCH   7  20
TORSDOF 1
ENDMDL
MODEL 5
REMARK VINA RESULT:      -5.2     20.828     22.489
REMARK  Name = JAK3_Inhibitor.pdbqt.pdb
REMARK  1 active torsions:
REMARK  status: ('A' for Active; 'I' for Inactive)
REMARK    1  A    between atoms: C_7  and  C_20
REMARK                            x       y       z     vdW  Elec       q    Type
REMARK                         _______ _______ _______ _____ _____    ______ ____
ROOT
ATOM      1  O   UNL     1      -2.204  13.583  -1.483  0.00  0.00    +0.000 OA
ATOM      2  N   UNL     1      -0.873  13.610   0.444  0.00  0.00    +0.000 N 
ATOM      3  C   UNL     1      -2.191  14.855   1.849  0.00  0.00    +0.000 A 
ATOM      4  C   UNL     1      -0.986  14.161   1.721  0.00  0.00    +0.000 A 
ATOM      5  C   UNL     1      -2.861  14.722   0.567  0.00  0.00    +0.000 C 
ATOM      6  C   UNL     1      -2.526  15.489   3.030  0.00  0.00    +0.000 A 
ATOM      7  C   UNL     1      -1.632  15.425   4.112  0.00  0.00    +0.000 A 
ATOM      8  C   UNL     1      -1.987  13.909  -0.332  0.00  0.00    +0.000 C 
ATOM      9  C   UNL     1      -0.079  14.071   2.753  0.00  0.00    +0.000 A 
ATOM     10  C   UNL     1      -4.011  15.205   0.217  0.00  0.00    +0.000 C 
ATOM     11  C   UNL     1      -0.421  14.712   3.945  0.00  0.00    +0.000 A 
ATOM     12  H   UNL     1      -0.095  13.063   0.104  0.00  0.00    +0.000 HD
ATOM     13  N   UNL     1      -5.779  15.507  -1.468  0.00  0.00    +0.000 N 
ATOM     14  C   UNL     1      -5.263  15.710  -0.214  0.00  0.00    +0.000 C 
ATOM     15  C   UNL     1      -6.167  16.465   0.497  0.00  0.00    +0.000 C 
ATOM     16  C   UNL     1      -6.998  16.124  -1.564  0.00  0.00    +0.000 C 
ATOM     17  C   UNL     1      -7.264  16.727  -0.357  0.00  0.00    +0.000 C 
ATOM     18  H   UNL     1      -5.327  14.984  -2.206  0.00  0.00    +0.000 HD
ENDROOT
BRANCH   7  20
ATOM     19  N   UNL     1      -1.195  17.354   7.326  0.00  0.00    +0.000 NA
ATOM     20  C   UNL     1      -1.946  16.083   5.386  0.00  0.00    +0.000 A 
ATOM     21  C   UNL     1      -3.238  16.101   5.915  0.00  0.00    +0.000 A 
ATOM     22  C   UNL     1      -0.977  16.730   6.147  0.00  0.00    +0.000 A 
ATOM     23  C   UNL     1      -3.516  16.729   7.123  0.00  0.00    +0.000 A 
ATOM     24  C   UNL     1      -2.464  17.338   7.784  0.00  0.00    +0.000 A 
ENDBRANCH   7  20
TORSDOF 1
ENDMDL
MODEL 6
REMARK VINA RESULT:      -5.2     12.265     14.990
REMARK  Name = JAK3_Inhibitor.pdbqt.pdb
REMARK  1 active torsions:
REMARK  status: ('A' for Active; 'I' for Inactive)
REMARK    1  A    between atoms: C_7  and  C_20
REMARK                            x       y       z     vdW  Elec       q    Type
REMARK                         _______ _______ _______ _____ _____    ______ ____
ROOT
ATOM      1  O   UNL     1     -15.594  12.017  -3.408  0.00  0.00    +0.000 OA
ATOM      2  N   UNL     1     -14.640  10.748  -5.131  0.00  0.00    +0.000 N 
ATOM      3  C   UNL     1     -14.704   8.654  -4.196  0.00  0.00    +0.000 A 
ATOM      4  C   UNL     1     -14.338   9.399  -5.320  0.00  0.00    +0.000 A 
ATOM      5  C   UNL     1     -15.267   9.608  -3.256  0.00  0.00    +0.000 C 
ATOM      6  C   UNL     1     -14.500   7.289  -4.151  0.00  0.00    +0.000 A 
ATOM      7  C   UNL     1     -13.916   6.651  -5.259  0.00  0.00    +0.000 A 
ATOM      8  C   UNL     1     -15.216  10.964  -3.884  0.00  0.00    +0.000 C 
ATOM      9  C   UNL     1     -13.763   8.820  -6.429  0.00  0.00    +0.000 A 
ATOM     10  C   UNL     1     -15.740   9.374  -2.074  0.00  0.00    +0.000 C 
ATOM     11  C   UNL     1     -13.560   7.439  -6.379  0.00  0.00    +0.000 A 
ATOM     12  H   UNL     1     -14.473  11.490  -5.796  0.00  0.00    +0.000 HD
ATOM     13  N   UNL     1     -16.773  10.174   0.012  0.00  0.00    +0.000 N 
ATOM     14  C   UNL     1     -16.270   9.170  -0.775  0.00  0.00    +0.000 C 
ATOM     15  C   UNL     1     -16.382   7.989  -0.077  0.00  0.00    +0.000 C 
ATOM     16  C   UNL     1     -17.202   9.648   1.201  0.00  0.00    +0.000 C 
ATOM     17  C   UNL     1     -16.971   8.292   1.173  0.00  0.00    +0.000 C 
ATOM     18  H   UNL     1     -16.818  11.150  -0.248  0.00  0.00    +0.000 HD
ENDROOT
BRANCH   7  20
ATOM     19  N   UNL     1     -13.993   3.029  -6.314  0.00  0.00    +0.000 NA
ATOM     20  C   UNL     1     -13.681   5.203  -5.255  0.00  0.00    +0.000 A 
ATOM     21  C   UNL     1     -12.951   4.571  -4.246  0.00  0.00    +0.000 A 
ATOM     22  C   UNL     1     -14.171   4.368  -6.255  0.00  0.00    +0.000 A 
ATOM     23  C   UNL     1     -12.739   3.197  -4.260  0.00  0.00    +0.000 A 
ATOM     24  C   UNL     1     -13.278   2.477  -5.311  0.00  0.00    +0.000 A 
ENDBRANCH   7  20
TORSDOF 1
ENDMDL
MODEL 7
REMARK VINA RESULT:      -5.0     20.654     23.677
REMARK  Name = JAK3_Inhibitor.pdbqt.pdb
REMARK  1 active torsions:
REMARK  status: ('A' for Active; 'I' for Inactive)
REMARK    1  A    between atoms: C_7  and  C_20
REMARK                            x       y       z     vdW  Elec       q    Type
REMARK                         _______ _______ _______ _____ _____    ______ ____
ROOT
ATOM      1  O   UNL     1      -9.331  13.900  22.662  0.00  0.00    +0.000 OA
ATOM      2  N   UNL     1     -10.102  13.725  24.867  0.00  0.00    +0.000 N 
ATOM      3  C   UNL     1     -11.657  15.411  24.904  0.00  0.00    +0.000 A 
ATOM      4  C   UNL     1     -11.044  14.398  25.645  0.00  0.00    +0.000 A 
ATOM      5  C   UNL     1     -11.050  15.357  23.585  0.00  0.00    +0.000 C 
ATOM      6  C   UNL     1     -12.627  16.216  25.467  0.00  0.00    +0.000 A 
ATOM      7  C   UNL     1     -12.997  16.002  26.806  0.00  0.00    +0.000 A 
ATOM      8  C   UNL     1     -10.042  14.253  23.582  0.00  0.00    +0.000 C 
ATOM      9  C   UNL     1     -11.372  14.149  26.959  0.00  0.00    +0.000 A 
ATOM     10  C   UNL     1     -11.304  16.109  22.562  0.00  0.00    +0.000 C 
ATOM     11  C   UNL     1     -12.355  14.965  27.524  0.00  0.00    +0.000 A 
ATOM     12  H   UNL     1      -9.527  12.953  25.172  0.00  0.00    +0.000 HD
ATOM     13  N   UNL     1     -10.892  16.743  20.221  0.00  0.00    +0.000 N 
ATOM     14  C   UNL     1     -11.546  16.905  21.414  0.00  0.00    +0.000 C 
ATOM     15  C   UNL     1     -12.436  17.944  21.271  0.00  0.00    +0.000 C 
ATOM     16  C   UNL     1     -11.353  17.666  19.320  0.00  0.00    +0.000 C 
ATOM     17  C   UNL     1     -12.314  18.426  19.947  0.00  0.00    +0.000 C 
ATOM     18  H   UNL     1     -10.179  16.050  20.036  0.00  0.00    +0.000 HD
ENDROOT
BRANCH   7  20
ATOM     19  N   UNL     1     -15.661  18.633  27.280  0.00  0.00    +0.000 NA
ATOM     20  C   UNL     1     -14.024  16.833  27.444  0.00  0.00    +0.000 A 
ATOM     21  C   UNL     1     -14.383  16.673  28.784  0.00  0.00    +0.000 A 
ATOM     22  C   UNL     1     -14.706  17.832  26.756  0.00  0.00    +0.000 A 
ATOM     23  C   UNL     1     -15.359  17.470  29.372  0.00  0.00    +0.000 A 
ATOM     24  C   UNL     1     -15.963  18.429  28.579  0.00  0.00    +0.000 A 
ENDBRANCH   7  20
TORSDOF 1
ENDMDL
MODEL 8
REMARK VINA RESULT:      -5.0     19.830     21.131
REMARK  Name = JAK3_Inhibitor.pdbqt.pdb
REMARK  1 active torsions:
REMARK  status: ('A' for Active; 'I' for Inactive)
REMARK    1  A    between atoms: C_7  and  C_20
REMARK                            x       y       z     vdW  Elec       q    Type
REMARK                         _______ _______ _______ _____ _____    ______ ____
ROOT
ATOM      1  O   UNL     1      -8.446  17.902  -2.474  0.00  0.00    +0.000 OA
ATOM      2  N   UNL     1      -7.214  16.094  -1.637  0.00  0.00    +0.000 N 
ATOM      3  C   UNL     1      -6.225  17.068   0.190  0.00  0.00    +0.000 A 
ATOM      4  C   UNL     1      -6.358  15.893  -0.553  0.00  0.00    +0.000 A 
ATOM      5  C   UNL     1      -7.053  18.055  -0.482  0.00  0.00    +0.000 C 
ATOM      6  C   UNL     1      -5.423  17.113   1.313  0.00  0.00    +0.000 A 
ATOM      7  C   UNL     1      -4.738  15.951   1.706  0.00  0.00    +0.000 A 
ATOM      8  C   UNL     1      -7.687  17.401  -1.667  0.00  0.00    +0.000 C 
ATOM      9  C   UNL     1      -5.707  14.729  -0.208  0.00  0.00    +0.000 A 
ATOM     10  C   UNL     1      -7.239  19.294  -0.152  0.00  0.00    +0.000 C 
ATOM     11  C   UNL     1      -4.899  14.778   0.929  0.00  0.00    +0.000 A 
ATOM     12  H   UNL     1      -7.473  15.398  -2.322  0.00  0.00    +0.000 HD
ATOM     13  N   UNL     1      -8.289  21.480  -0.564  0.00  0.00    +0.000 N 
ATOM     14  C   UNL     1      -7.475  20.654   0.167  0.00  0.00    +0.000 C 
ATOM     15  C   UNL     1      -6.967  21.383   1.217  0.00  0.00    +0.000 C 
ATOM     16  C   UNL     1      -8.304  22.726   0.007  0.00  0.00    +0.000 C 
ATOM     17  C   UNL     1      -7.490  22.693   1.115  0.00  0.00    +0.000 C 
ATOM     18  H   UNL     1      -8.798  21.211  -1.395  0.00  0.00    +0.000 HD
ENDROOT
BRANCH   7  20
ATOM     19  N   UNL     1      -1.646  16.143   3.861  0.00  0.00    +0.000 NA
ATOM     20  C   UNL     1      -3.876  15.951   2.893  0.00  0.00    +0.000 A 
ATOM     21  C   UNL     1      -4.384  15.772   4.182  0.00  0.00    +0.000 A 
ATOM     22  C   UNL     1      -2.498  16.131   2.811  0.00  0.00    +0.000 A 
ATOM     23  C   UNL     1      -3.551  15.776   5.295  0.00  0.00    +0.000 A 
ATOM     24  C   UNL     1      -2.198  15.965   5.079  0.00  0.00    +0.000 A 
ENDBRANCH   7  20
TORSDOF 1
ENDMDL
MODEL 9
REMARK VINA RESULT:      -4.9     22.722     25.286
REMARK  Name = JAK3_Inhibitor.pdbqt.pdb
REMARK  1 active torsions:
REMARK  status: ('A' for Active; 'I' for Inactive)
REMARK    1  A    between atoms: C_7  and  C_20
REMARK                            x       y       z     vdW  Elec       q    Type
REMARK                         _______ _______ _______ _____ _____    ______ ____
ROOT
ATOM      1  O   UNL     1       3.738  13.362  13.257  0.00  0.00    +0.000 OA
ATOM      2  N   UNL     1       2.504  15.091  12.271  0.00  0.00    +0.000 N 
ATOM      3  C   UNL     1       0.373  14.272  12.503  0.00  0.00    +0.000 A 
ATOM      4  C   UNL     1       1.150  15.332  12.031  0.00  0.00    +0.000 A 
ATOM      5  C   UNL     1       1.311  13.318  13.069  0.00  0.00    +0.000 C 
ATOM      6  C   UNL     1      -1.002  14.286  12.375  0.00  0.00    +0.000 A 
ATOM      7  C   UNL     1      -1.617  15.390  11.761  0.00  0.00    +0.000 A 
ATOM      8  C   UNL     1       2.690  13.870  12.908  0.00  0.00    +0.000 C 
ATOM      9  C   UNL     1       0.595  16.436  11.422  0.00  0.00    +0.000 A 
ATOM     10  C   UNL     1       1.046  12.178  13.624  0.00  0.00    +0.000 C 
ATOM     11  C   UNL     1      -0.796  16.446  11.296  0.00  0.00    +0.000 A 
ATOM     12  H   UNL     1       3.266  15.706  12.025  0.00  0.00    +0.000 HD
ATOM     13  N   UNL     1       1.800  10.116  14.735  0.00  0.00    +0.000 N 
ATOM     14  C   UNL     1       0.809  10.924  14.241  0.00  0.00    +0.000 C 
ATOM     15  C   UNL     1      -0.396  10.296  14.457  0.00  0.00    +0.000 C 
ATOM     16  C   UNL     1       1.241   8.982  15.263  0.00  0.00    +0.000 C 
ATOM     17  C   UNL     1      -0.122   9.068  15.103  0.00  0.00    +0.000 C 
ATOM     18  H   UNL     1       2.789  10.326  14.713  0.00  0.00    +0.000 HD
ENDROOT
BRANCH   7  20
ATOM     19  N   UNL     1      -5.020  16.335  10.433  0.00  0.00    +0.000 NA
ATOM     20  C   UNL     1      -3.075  15.449  11.604  0.00  0.00    +0.000 A 
ATOM     21  C   UNL     1      -3.940  14.718  12.422  0.00  0.00    +0.000 A 
ATOM     22  C   UNL     1      -3.687  16.234  10.633  0.00  0.00    +0.000 A 
ATOM     23  C   UNL     1      -5.319  14.786  12.258  0.00  0.00    +0.000 A 
ATOM     24  C   UNL     1      -5.804  15.605  11.254  0.00  0.00    +0.000 A 
ENDBRANCH   7  20
TORSDOF 1
ENDMDL
