MODEL 1
REMARK VINA RESULT:      -6.9      0.000      0.000
REMARK  Name = Leptomycin.pdbqt.pdb
REMARK  12 active torsions:
REMARK  status: ('A' for Active; 'I' for Inactive)
REMARK    1  A    between atoms: C_2  and  C_4
REMARK    2  A    between atoms: C_5  and  C_6
REMARK    3  A    between atoms: C_6  and  C_7
REMARK    4  A    between atoms: C_10  and  C_11
REMARK    5  A    between atoms: C_10  and  C_21
REMARK    6  A    between atoms: C_12  and  C_13
REMARK    7  A    between atoms: C_23  and  C_25
REMARK    8  A    between atoms: C_25  and  C_27
REMARK    9  A    between atoms: C_27  and  C_29
REMARK   10  A    between atoms: C_29  and  O_30
REMARK   11  A    between atoms: C_29  and  C_32
REMARK   12  A    between atoms: C_38  and  O_40
REMARK                            x       y       z     vdW  Elec       q    Type
REMARK                         _______ _______ _______ _____ _____    ______ ____
ROOT
ATOM      1  C   UNL     1     -17.075   3.608  -2.840  0.00  0.00    +0.000 C 
ATOM      2  C   UNL     1     -17.718   4.321  -1.974  0.00  0.00    +0.000 C 
ATOM      3  C   UNL     1     -18.832   3.680  -1.197  0.00  0.00    +0.000 C 
ATOM      4  C   UNL     1     -16.303   2.860  -3.765  0.00  0.00    +0.000 C 
ATOM      5  C   UNL     1     -16.932   2.686  -5.139  0.00  0.00    +0.000 C 
ENDROOT
BRANCH   2   6
ATOM      6  C   UNL     1     -17.089   5.469  -1.432  0.00  0.00    +0.000 C 
ATOM      7  C   UNL     1     -16.613   6.462  -0.951  0.00  0.00    +0.000 C 
BRANCH   7   8
ATOM      8  C   UNL     1     -16.124   7.761  -0.303  0.00  0.00    +0.000 C 
BRANCH   8   9
ATOM      9  C   UNL     1     -15.773   9.056   0.150  0.00  0.00    +0.000 C 
ATOM     10  C   UNL     1     -16.060   9.446   1.566  0.00  0.00    +0.000 C 
ATOM     11  C   UNL     1     -15.256  10.029  -0.740  0.00  0.00    +0.000 C 
ATOM     12  C   UNL     1     -14.812  10.787  -1.696  0.00  0.00    +0.000 C 
BRANCH  12  13
ATOM     13  C   UNL     1     -14.850  10.220  -2.998  0.00  0.00    +0.000 C 
ATOM     14  C   UNL     1     -14.774   9.664  -4.060  0.00  0.00    +0.000 C 
BRANCH  14  15
ATOM     15  C   UNL     1     -14.583   8.931  -5.259  0.00  0.00    +0.000 A 
ATOM     16  O   UNL     1     -14.368   9.713  -6.472  0.00  0.00    +0.000 OA
ATOM     17  C   UNL     1     -14.135   9.115  -7.707  0.00  0.00    +0.000 A 
ATOM     18  O   UNL     1     -13.914   9.722  -8.744  0.00  0.00    +0.000 OA
ATOM     19  C   UNL     1     -14.161   7.685  -7.618  0.00  0.00    +0.000 A 
ATOM     20  C   UNL     1     -14.338   7.001  -6.655  0.00  0.00    +0.000 A 
ATOM     21  C   UNL     1     -14.573   7.466  -5.342  0.00  0.00    +0.000 A 
ATOM     22  C   UNL     1     -14.734   6.511  -4.202  0.00  0.00    +0.000 C 
ENDBRANCH  14  15
ENDBRANCH  12  13
BRANCH  12  23
ATOM     23  C   UNL     1     -14.356  12.093  -1.389  0.00  0.00    +0.000 C 
ATOM     24  C   UNL     1     -13.856  13.504  -1.056  0.00  0.00    +0.000 C 
ENDBRANCH  12  23
ENDBRANCH   8   9
ENDBRANCH   7   8
ENDBRANCH   2   6
BRANCH   4  25
ATOM     25  C   UNL     1     -14.821   2.783  -3.579  0.00  0.00    +0.000 C 
ATOM     26  O   UNL     1     -14.027   3.261  -4.396  0.00  0.00    +0.000 OA
BRANCH  25  27
ATOM     27  C   UNL     1     -14.325   2.044  -2.379  0.00  0.00    +0.000 C 
ATOM     28  C   UNL     1     -15.217   0.996  -1.717  0.00  0.00    +0.000 C 
BRANCH  27  29
ATOM     29  C   UNL     1     -13.135   2.541  -1.696  0.00  0.00    +0.000 C 
BRANCH  29  30
ATOM     30  C   UNL     1     -12.051   1.782  -1.097  0.00  0.00    +0.000 C 
ATOM     31  C   UNL     1     -10.613   2.097  -1.445  0.00  0.00    +0.000 C 
ATOM     32  C   UNL     1     -12.231   0.851  -0.047  0.00  0.00    +0.000 C 
ATOM     33  C   UNL     1     -12.347  -0.099   0.989  0.00  0.00    +0.000 C 
ATOM     34  C   UNL     1     -13.489  -1.068   0.954  0.00  0.00    +0.000 C 
ATOM     35  C   UNL     1     -11.556  -0.054   2.005  0.00  0.00    +0.000 C 
ATOM     36  C   UNL     1     -10.682   0.024   3.124  0.00  0.00    +0.000 C 
ATOM     37  O   UNL     1     -10.619   1.001   3.847  0.00  0.00    +0.000 OA
BRANCH  36  38
ATOM     38  O   UNL     1      -9.919  -1.066   3.300  0.00  0.00    +0.000 OA
ATOM     39  H   UNL     1     -10.507  -1.707   3.749  0.00  0.00    +0.000 HD
ENDBRANCH  36  38
ENDBRANCH  29  30
BRANCH  29  40
ATOM     40  O   UNL     1     -13.002   3.930  -1.645  0.00  0.00    +0.000 OA
ATOM     41  H   UNL     1     -13.814   4.364  -1.310  0.00  0.00    +0.000 HD
ENDBRANCH  29  40
ENDBRANCH  27  29
ENDBRANCH  25  27
ENDBRANCH   4  25
TORSDOF 12
ENDMDL
MODEL 2
REMARK VINA RESULT:      -6.1     23.513     27.837
REMARK  Name = Leptomycin.pdbqt.pdb
REMARK  12 active torsions:
REMARK  status: ('A' for Active; 'I' for Inactive)
REMARK    1  A    between atoms: C_2  and  C_4
REMARK    2  A    between atoms: C_5  and  C_6
REMARK    3  A    between atoms: C_6  and  C_7
REMARK    4  A    between atoms: C_10  and  C_11
REMARK    5  A    between atoms: C_10  and  C_21
REMARK    6  A    between atoms: C_12  and  C_13
REMARK    7  A    between atoms: C_23  and  C_25
REMARK    8  A    between atoms: C_25  and  C_27
REMARK    9  A    between atoms: C_27  and  C_29
REMARK   10  A    between atoms: C_29  and  O_30
REMARK   11  A    between atoms: C_29  and  C_32
REMARK   12  A    between atoms: C_38  and  O_40
REMARK                            x       y       z     vdW  Elec       q    Type
REMARK                         _______ _______ _______ _____ _____    ______ ____
ROOT
ATOM      1  C   UNL     1     -10.272  18.760  24.573  0.00  0.00    +0.000 C 
ATOM      2  C   UNL     1      -9.474  19.649  24.077  0.00  0.00    +0.000 C 
ATOM      3  C   UNL     1      -7.994  19.399  24.129  0.00  0.00    +0.000 C 
ATOM      4  C   UNL     1     -11.194  17.797  25.056  0.00  0.00    +0.000 C 
ATOM      5  C   UNL     1     -11.416  17.814  26.560  0.00  0.00    +0.000 C 
ENDROOT
BRANCH   2   6
ATOM      6  C   UNL     1      -9.975  20.547  23.102  0.00  0.00    +0.000 C 
ATOM      7  C   UNL     1     -10.460  21.288  22.290  0.00  0.00    +0.000 C 
BRANCH   7   8
ATOM      8  C   UNL     1     -11.191  22.186  21.287  0.00  0.00    +0.000 C 
BRANCH   8   9
ATOM      9  C   UNL     1     -12.026  22.897  20.391  0.00  0.00    +0.000 C 
ATOM     10  C   UNL     1     -12.988  23.912  20.925  0.00  0.00    +0.000 C 
ATOM     11  C   UNL     1     -12.049  22.589  19.009  0.00  0.00    +0.000 C 
ATOM     12  C   UNL     1     -11.946  22.161  17.788  0.00  0.00    +0.000 C 
BRANCH  12  13
ATOM     13  C   UNL     1     -11.108  21.028  17.602  0.00  0.00    +0.000 C 
ATOM     14  C   UNL     1     -10.303  20.141  17.514  0.00  0.00    +0.000 C 
BRANCH  14  15
ATOM     15  C   UNL     1      -9.268  19.171  17.487  0.00  0.00    +0.000 A 
ATOM     16  O   UNL     1      -8.761  18.725  18.780  0.00  0.00    +0.000 OA
ATOM     17  C   UNL     1      -7.771  17.753  18.892  0.00  0.00    +0.000 A 
ATOM     18  O   UNL     1      -7.338  17.319  19.949  0.00  0.00    +0.000 OA
ATOM     19  C   UNL     1      -7.327  17.297  17.608  0.00  0.00    +0.000 A 
ATOM     20  C   UNL     1      -7.704  17.634  16.526  0.00  0.00    +0.000 A 
ATOM     21  C   UNL     1      -8.705  18.594  16.260  0.00  0.00    +0.000 A 
ATOM     22  C   UNL     1      -9.129  18.901  14.859  0.00  0.00    +0.000 C 
ENDBRANCH  14  15
ENDBRANCH  12  13
BRANCH  12  23
ATOM     23  C   UNL     1     -12.669  22.816  16.760  0.00  0.00    +0.000 C 
ATOM     24  C   UNL     1     -13.447  23.522  15.643  0.00  0.00    +0.000 C 
ENDBRANCH  12  23
ENDBRANCH   8   9
ENDBRANCH   7   8
ENDBRANCH   2   6
BRANCH   4  25
ATOM     25  C   UNL     1     -12.236  17.261  24.127  0.00  0.00    +0.000 C 
ATOM     26  O   UNL     1     -13.441  17.285  24.402  0.00  0.00    +0.000 OA
BRANCH  25  27
ATOM     27  C   UNL     1     -11.757  16.631  22.860  0.00  0.00    +0.000 C 
ATOM     28  C   UNL     1     -11.293  15.176  22.870  0.00  0.00    +0.000 C 
BRANCH  27  29
ATOM     29  C   UNL     1     -11.467  17.493  21.719  0.00  0.00    +0.000 C 
BRANCH  29  30
ATOM     30  C   UNL     1     -12.358  18.403  21.022  0.00  0.00    +0.000 C 
ATOM     31  C   UNL     1     -12.439  18.386  19.510  0.00  0.00    +0.000 C 
ATOM     32  C   UNL     1     -13.316  19.215  21.671  0.00  0.00    +0.000 C 
ATOM     33  C   UNL     1     -14.280  20.059  22.261  0.00  0.00    +0.000 C 
ATOM     34  C   UNL     1     -13.922  20.797  23.514  0.00  0.00    +0.000 C 
ATOM     35  C   UNL     1     -15.481  20.100  21.796  0.00  0.00    +0.000 C 
ATOM     36  C   UNL     1     -16.804  20.118  21.277  0.00  0.00    +0.000 C 
ATOM     37  O   UNL     1     -17.509  19.127  21.229  0.00  0.00    +0.000 OA
BRANCH  36  38
ATOM     38  O   UNL     1     -17.200  21.319  20.826  0.00  0.00    +0.000 OA
ATOM     39  H   UNL     1     -17.549  21.776  21.619  0.00  0.00    +0.000 HD
ENDBRANCH  36  38
ENDBRANCH  29  30
BRANCH  29  40
ATOM     40  O   UNL     1     -10.147  17.467  21.261  0.00  0.00    +0.000 OA
ATOM     41  H   UNL     1      -9.917  16.606  20.854  0.00  0.00    +0.000 HD
ENDBRANCH  29  40
ENDBRANCH  27  29
ENDBRANCH  25  27
ENDBRANCH   4  25
TORSDOF 12
ENDMDL
MODEL 3
REMARK VINA RESULT:      -6.0      2.105      3.372
REMARK  Name = Leptomycin.pdbqt.pdb
REMARK  12 active torsions:
REMARK  status: ('A' for Active; 'I' for Inactive)
REMARK    1  A    between atoms: C_2  and  C_4
REMARK    2  A    between atoms: C_5  and  C_6
REMARK    3  A    between atoms: C_6  and  C_7
REMARK    4  A    between atoms: C_10  and  C_11
REMARK    5  A    between atoms: C_10  and  C_21
REMARK    6  A    between atoms: C_12  and  C_13
REMARK    7  A    between atoms: C_23  and  C_25
REMARK    8  A    between atoms: C_25  and  C_27
REMARK    9  A    between atoms: C_27  and  C_29
REMARK   10  A    between atoms: C_29  and  O_30
REMARK   11  A    between atoms: C_29  and  C_32
REMARK   12  A    between atoms: C_38  and  O_40
REMARK                            x       y       z     vdW  Elec       q    Type
REMARK                         _______ _______ _______ _____ _____    ______ ____
ROOT
ATOM      1  C   UNL     1     -18.063   3.981  -3.091  0.00  0.00    +0.000 C 
ATOM      2  C   UNL     1     -17.925   4.174  -1.820  0.00  0.00    +0.000 C 
ATOM      3  C   UNL     1     -17.885   2.981  -0.909  0.00  0.00    +0.000 C 
ATOM      4  C   UNL     1     -18.161   3.826  -4.497  0.00  0.00    +0.000 C 
ATOM      5  C   UNL     1     -19.568   3.591  -5.024  0.00  0.00    +0.000 C 
ENDROOT
BRANCH   2   6
ATOM      6  C   UNL     1     -17.343   5.386  -1.373  0.00  0.00    +0.000 C 
ATOM      7  C   UNL     1     -16.879   6.405  -0.936  0.00  0.00    +0.000 C 
BRANCH   7   8
ATOM      8  C   UNL     1     -16.352   7.681  -0.274  0.00  0.00    +0.000 C 
BRANCH   8   9
ATOM      9  C   UNL     1     -15.918   8.955   0.168  0.00  0.00    +0.000 C 
ATOM     10  C   UNL     1     -16.147   9.361   1.591  0.00  0.00    +0.000 C 
ATOM     11  C   UNL     1     -15.370   9.898  -0.735  0.00  0.00    +0.000 C 
ATOM     12  C   UNL     1     -14.909  10.630  -1.704  0.00  0.00    +0.000 C 
BRANCH  12  13
ATOM     13  C   UNL     1     -15.012  10.066  -3.003  0.00  0.00    +0.000 C 
ATOM     14  C   UNL     1     -14.978   9.649  -4.129  0.00  0.00    +0.000 C 
BRANCH  14  15
ATOM     15  C   UNL     1     -14.813   9.214  -5.469  0.00  0.00    +0.000 A 
ATOM     16  O   UNL     1     -13.809   8.180  -5.699  0.00  0.00    +0.000 OA
ATOM     17  C   UNL     1     -13.573   7.644  -6.962  0.00  0.00    +0.000 A 
ATOM     18  O   UNL     1     -12.772   6.753  -7.201  0.00  0.00    +0.000 OA
ATOM     19  C   UNL     1     -14.407   8.249  -7.959  0.00  0.00    +0.000 A 
ATOM     20  C   UNL     1     -15.234   9.099  -7.824  0.00  0.00    +0.000 A 
ATOM     21  C   UNL     1     -15.588   9.723  -6.607  0.00  0.00    +0.000 A 
ATOM     22  C   UNL     1     -16.678  10.746  -6.551  0.00  0.00    +0.000 C 
ENDBRANCH  14  15
ENDBRANCH  12  13
BRANCH  12  23
ATOM     23  C   UNL     1     -14.374  11.909  -1.411  0.00  0.00    +0.000 C 
ATOM     24  C   UNL     1     -13.795  13.291  -1.086  0.00  0.00    +0.000 C 
ENDBRANCH  12  23
ENDBRANCH   8   9
ENDBRANCH   7   8
ENDBRANCH   2   6
BRANCH   4  25
ATOM     25  C   UNL     1     -17.099   4.417  -5.368  0.00  0.00    +0.000 C 
ATOM     26  O   UNL     1     -17.214   5.534  -5.884  0.00  0.00    +0.000 OA
BRANCH  25  27
ATOM     27  C   UNL     1     -15.899   3.571  -5.646  0.00  0.00    +0.000 C 
ATOM     28  C   UNL     1     -14.897   4.010  -6.711  0.00  0.00    +0.000 C 
BRANCH  27  29
ATOM     29  C   UNL     1     -15.864   2.214  -5.111  0.00  0.00    +0.000 C 
BRANCH  29  30
ATOM     30  C   UNL     1     -15.319   1.753  -3.847  0.00  0.00    +0.000 C 
ATOM     31  C   UNL     1     -15.558   0.332  -3.383  0.00  0.00    +0.000 C 
ATOM     32  C   UNL     1     -14.406   2.499  -3.066  0.00  0.00    +0.000 C 
ATOM     33  C   UNL     1     -13.507   3.201  -2.237  0.00  0.00    +0.000 C 
ATOM     34  C   UNL     1     -13.718   4.669  -2.023  0.00  0.00    +0.000 C 
ATOM     35  C   UNL     1     -12.459   2.614  -1.770  0.00  0.00    +0.000 C 
ATOM     36  C   UNL     1     -11.300   1.952  -1.279  0.00  0.00    +0.000 C 
ATOM     37  O   UNL     1     -10.456   1.468  -2.010  0.00  0.00    +0.000 OA
BRANCH  36  38
ATOM     38  O   UNL     1     -11.231   1.889   0.060  0.00  0.00    +0.000 OA
ATOM     39  H   UNL     1     -10.828   1.016   0.244  0.00  0.00    +0.000 HD
ENDBRANCH  36  38
ENDBRANCH  29  30
BRANCH  29  40
ATOM     40  O   UNL     1     -16.469   1.235  -5.903  0.00  0.00    +0.000 OA
ATOM     41  H   UNL     1     -15.856   0.499  -6.108  0.00  0.00    +0.000 HD
ENDBRANCH  29  40
ENDBRANCH  27  29
ENDBRANCH  25  27
ENDBRANCH   4  25
TORSDOF 12
ENDMDL
MODEL 4
REMARK VINA RESULT:      -6.0     19.356     23.198
REMARK  Name = Leptomycin.pdbqt.pdb
REMARK  12 active torsions:
REMARK  status: ('A' for Active; 'I' for Inactive)
REMARK    1  A    between atoms: C_2  and  C_4
REMARK    2  A    between atoms: C_5  and  C_6
REMARK    3  A    between atoms: C_6  and  C_7
REMARK    4  A    between atoms: C_10  and  C_11
REMARK    5  A    between atoms: C_10  and  C_21
REMARK    6  A    between atoms: C_12  and  C_13
REMARK    7  A    between atoms: C_23  and  C_25
REMARK    8  A    between atoms: C_25  and  C_27
REMARK    9  A    between atoms: C_27  and  C_29
REMARK   10  A    between atoms: C_29  and  O_30
REMARK   11  A    between atoms: C_29  and  C_32
REMARK   12  A    between atoms: C_38  and  O_40
REMARK                            x       y       z     vdW  Elec       q    Type
REMARK                         _______ _______ _______ _____ _____    ______ ____
ROOT
ATOM      1  C   UNL     1      -9.733   6.895  17.767  0.00  0.00    +0.000 C 
ATOM      2  C   UNL     1      -9.482   6.687  16.516  0.00  0.00    +0.000 C 
ATOM      3  C   UNL     1      -9.604   7.835  15.556  0.00  0.00    +0.000 C 
ATOM      4  C   UNL     1      -9.947   7.078  19.157  0.00  0.00    +0.000 C 
ATOM      5  C   UNL     1     -11.403   7.066  19.594  0.00  0.00    +0.000 C 
ENDROOT
BRANCH   2   6
ATOM      6  C   UNL     1      -8.661   5.590  16.158  0.00  0.00    +0.000 C 
ATOM      7  C   UNL     1      -7.984   4.628  15.908  0.00  0.00    +0.000 C 
BRANCH   7   8
ATOM      8  C   UNL     1      -7.163   3.353  15.698  0.00  0.00    +0.000 C 
BRANCH   8   9
ATOM      9  C   UNL     1      -6.405   2.157  15.704  0.00  0.00    +0.000 C 
ATOM     10  C   UNL     1      -5.477   1.865  14.566  0.00  0.00    +0.000 C 
ATOM     11  C   UNL     1      -6.588   1.177  16.710  0.00  0.00    +0.000 C 
ATOM     12  C   UNL     1      -6.901   0.395  17.698  0.00  0.00    +0.000 C 
BRANCH  12  13
ATOM     13  C   UNL     1      -7.981   0.834  18.511  0.00  0.00    +0.000 C 
ATOM     14  C   UNL     1      -8.864   1.332  19.156  0.00  0.00    +0.000 C 
BRANCH  14  15
ATOM     15  C   UNL     1      -9.870   2.041  19.861  0.00  0.00    +0.000 A 
ATOM     16  O   UNL     1      -9.975   1.769  21.291  0.00  0.00    +0.000 OA
ATOM     17  C   UNL     1     -10.898   2.424  22.103  0.00  0.00    +0.000 A 
ATOM     18  O   UNL     1     -11.003   2.260  23.309  0.00  0.00    +0.000 OA
ATOM     19  C   UNL     1     -11.706   3.341  21.354  0.00  0.00    +0.000 A 
ATOM     20  C   UNL     1     -11.663   3.593  20.188  0.00  0.00    +0.000 A 
ATOM     21  C   UNL     1     -10.776   3.020  19.250  0.00  0.00    +0.000 A 
ATOM     22  C   UNL     1     -10.783   3.450  17.818  0.00  0.00    +0.000 C 
ENDBRANCH  14  15
ENDBRANCH  12  13
BRANCH  12  23
ATOM     23  C   UNL     1      -6.182  -0.812  17.881  0.00  0.00    +0.000 C 
ATOM     24  C   UNL     1      -5.398  -2.115  18.079  0.00  0.00    +0.000 C 
ENDBRANCH  12  23
ENDBRANCH   8   9
ENDBRANCH   7   8
ENDBRANCH   2   6
BRANCH   4  25
ATOM     25  C   UNL     1      -8.852   6.724  20.113  0.00  0.00    +0.000 C 
ATOM     26  O   UNL     1      -8.782   5.617  20.657  0.00  0.00    +0.000 OA
BRANCH  25  27
ATOM     27  C   UNL     1      -7.861   7.794  20.436  0.00  0.00    +0.000 C 
ATOM     28  C   UNL     1      -8.343   9.106  21.051  0.00  0.00    +0.000 C 
BRANCH  27  29
ATOM     29  C   UNL     1      -6.511   7.683  19.893  0.00  0.00    +0.000 C 
BRANCH  29  30
ATOM     30  C   UNL     1      -6.092   7.135  18.615  0.00  0.00    +0.000 C 
ATOM     31  C   UNL     1      -6.160   7.980  17.361  0.00  0.00    +0.000 C 
ATOM     32  C   UNL     1      -5.441   5.888  18.471  0.00  0.00    +0.000 C 
ATOM     33  C   UNL     1      -4.802   4.648  18.261  0.00  0.00    +0.000 C 
ATOM     34  C   UNL     1      -5.281   3.452  19.025  0.00  0.00    +0.000 C 
ATOM     35  C   UNL     1      -3.753   4.574  17.516  0.00  0.00    +0.000 C 
ATOM     36  C   UNL     1      -2.588   4.518  16.703  0.00  0.00    +0.000 C 
ATOM     37  O   UNL     1      -1.576   5.146  16.954  0.00  0.00    +0.000 OA
BRANCH  36  38
ATOM     38  O   UNL     1      -2.709   3.728  15.625  0.00  0.00    +0.000 OA
ATOM     39  H   UNL     1      -2.327   2.871  15.905  0.00  0.00    +0.000 HD
ENDBRANCH  36  38
ENDBRANCH  29  30
BRANCH  29  40
ATOM     40  O   UNL     1      -5.492   8.206  20.692  0.00  0.00    +0.000 OA
ATOM     41  H   UNL     1      -5.329   9.154  20.503  0.00  0.00    +0.000 HD
ENDBRANCH  29  40
ENDBRANCH  27  29
ENDBRANCH  25  27
ENDBRANCH   4  25
TORSDOF 12
ENDMDL
MODEL 5
REMARK VINA RESULT:      -5.9      6.402     10.983
REMARK  Name = Leptomycin.pdbqt.pdb
REMARK  12 active torsions:
REMARK  status: ('A' for Active; 'I' for Inactive)
REMARK    1  A    between atoms: C_2  and  C_4
REMARK    2  A    between atoms: C_5  and  C_6
REMARK    3  A    between atoms: C_6  and  C_7
REMARK    4  A    between atoms: C_10  and  C_11
REMARK    5  A    between atoms: C_10  and  C_21
REMARK    6  A    between atoms: C_12  and  C_13
REMARK    7  A    between atoms: C_23  and  C_25
REMARK    8  A    between atoms: C_25  and  C_27
REMARK    9  A    between atoms: C_27  and  C_29
REMARK   10  A    between atoms: C_29  and  O_30
REMARK   11  A    between atoms: C_29  and  C_32
REMARK   12  A    between atoms: C_38  and  O_40
REMARK                            x       y       z     vdW  Elec       q    Type
REMARK                         _______ _______ _______ _____ _____    ______ ____
ROOT
ATOM      1  C   UNL     1     -13.279  16.128  -6.684  0.00  0.00    +0.000 C 
ATOM      2  C   UNL     1     -14.197  16.737  -7.362  0.00  0.00    +0.000 C 
ATOM      3  C   UNL     1     -14.540  16.226  -8.731  0.00  0.00    +0.000 C 
ATOM      4  C   UNL     1     -12.317  15.469  -5.878  0.00  0.00    +0.000 C 
ATOM      5  C   UNL     1     -10.869  15.819  -6.184  0.00  0.00    +0.000 C 
ENDROOT
BRANCH   2   6
ATOM      6  C   UNL     1     -15.161  17.507  -6.666  0.00  0.00    +0.000 C 
ATOM      7  C   UNL     1     -15.937  18.164  -6.025  0.00  0.00    +0.000 C 
BRANCH   7   8
ATOM      8  C   UNL     1     -16.842  19.000  -5.115  0.00  0.00    +0.000 C 
BRANCH   8   9
ATOM      9  C   UNL     1     -17.697  19.605  -4.162  0.00  0.00    +0.000 C 
ATOM     10  C   UNL     1     -17.363  20.964  -3.628  0.00  0.00    +0.000 C 
ATOM     11  C   UNL     1     -18.803  18.907  -3.619  0.00  0.00    +0.000 C 
ATOM     12  C   UNL     1     -19.752  18.112  -3.228  0.00  0.00    +0.000 C 
BRANCH  12  13
ATOM     13  C   UNL     1     -19.700  16.790  -3.745  0.00  0.00    +0.000 C 
ATOM     14  C   UNL     1     -19.519  15.686  -4.181  0.00  0.00    +0.000 C 
BRANCH  14  15
ATOM     15  C   UNL     1     -19.170  14.405  -4.680  0.00  0.00    +0.000 A 
ATOM     16  O   UNL     1     -19.568  13.259  -3.869  0.00  0.00    +0.000 OA
ATOM     17  C   UNL     1     -19.315  11.948  -4.263  0.00  0.00    +0.000 A 
ATOM     18  O   UNL     1     -19.658  10.956  -3.640  0.00  0.00    +0.000 OA
ATOM     19  C   UNL     1     -18.617  11.896  -5.514  0.00  0.00    +0.000 A 
ATOM     20  C   UNL     1     -18.265  12.800  -6.210  0.00  0.00    +0.000 A 
ATOM     21  C   UNL     1     -18.463  14.174  -5.946  0.00  0.00    +0.000 A 
ATOM     22  C   UNL     1     -18.019  15.219  -6.918  0.00  0.00    +0.000 C 
ENDBRANCH  14  15
ENDBRANCH  12  13
BRANCH  12  23
ATOM     23  C   UNL     1     -20.731  18.596  -2.324  0.00  0.00    +0.000 C 
ATOM     24  C   UNL     1     -21.784  19.120  -1.341  0.00  0.00    +0.000 C 
ENDBRANCH  12  23
ENDBRANCH   8   9
ENDBRANCH   7   8
ENDBRANCH   2   6
BRANCH   4  25
ATOM     25  C   UNL     1     -12.721  14.970  -4.527  0.00  0.00    +0.000 C 
ATOM     26  O   UNL     1     -12.616  15.662  -3.508  0.00  0.00    +0.000 OA
BRANCH  25  27
ATOM     27  C   UNL     1     -13.211  13.561  -4.442  0.00  0.00    +0.000 C 
ATOM     28  C   UNL     1     -12.802  12.555  -5.516  0.00  0.00    +0.000 C 
BRANCH  27  29
ATOM     29  C   UNL     1     -14.294  13.253  -3.514  0.00  0.00    +0.000 C 
BRANCH  29  30
ATOM     30  C   UNL     1     -14.220  12.589  -2.225  0.00  0.00    +0.000 C 
ATOM     31  C   UNL     1     -13.755  13.346  -0.999  0.00  0.00    +0.000 C 
ATOM     32  C   UNL     1     -14.728  11.292  -1.980  0.00  0.00    +0.000 C 
ATOM     33  C   UNL     1     -15.201   9.998  -1.677  0.00  0.00    +0.000 C 
ATOM     34  C   UNL     1     -14.968   8.895  -2.664  0.00  0.00    +0.000 C 
ATOM     35  C   UNL     1     -15.922   9.798  -0.628  0.00  0.00    +0.000 C 
ATOM     36  C   UNL     1     -16.729   9.603   0.527  0.00  0.00    +0.000 C 
ATOM     37  O   UNL     1     -17.790  10.174   0.696  0.00  0.00    +0.000 OA
BRANCH  36  38
ATOM     38  O   UNL     1     -16.208   8.750   1.422  0.00  0.00    +0.000 OA
ATOM     39  H   UNL     1     -16.899   8.664   2.110  0.00  0.00    +0.000 HD
ENDBRANCH  36  38
ENDBRANCH  29  30
BRANCH  29  40
ATOM     40  O   UNL     1     -15.564  13.690  -3.899  0.00  0.00    +0.000 OA
ATOM     41  H   UNL     1     -16.247  13.457  -3.237  0.00  0.00    +0.000 HD
ENDBRANCH  29  40
ENDBRANCH  27  29
ENDBRANCH  25  27
ENDBRANCH   4  25
TORSDOF 12
ENDMDL
MODEL 6
REMARK VINA RESULT:      -5.9      5.926      9.678
REMARK  Name = Leptomycin.pdbqt.pdb
REMARK  12 active torsions:
REMARK  status: ('A' for Active; 'I' for Inactive)
REMARK    1  A    between atoms: C_2  and  C_4
REMARK    2  A    between atoms: C_5  and  C_6
REMARK    3  A    between atoms: C_6  and  C_7
REMARK    4  A    between atoms: C_10  and  C_11
REMARK    5  A    between atoms: C_10  and  C_21
REMARK    6  A    between atoms: C_12  and  C_13
REMARK    7  A    between atoms: C_23  and  C_25
REMARK    8  A    between atoms: C_25  and  C_27
REMARK    9  A    between atoms: C_27  and  C_29
REMARK   10  A    between atoms: C_29  and  O_30
REMARK   11  A    between atoms: C_29  and  C_32
REMARK   12  A    between atoms: C_38  and  O_40
REMARK                            x       y       z     vdW  Elec       q    Type
REMARK                         _______ _______ _______ _____ _____    ______ ____
ROOT
ATOM      1  C   UNL     1     -23.156   9.697  -4.514  0.00  0.00    +0.000 C 
ATOM      2  C   UNL     1     -22.079  10.037  -3.884  0.00  0.00    +0.000 C 
ATOM      3  C   UNL     1     -22.078  11.312  -3.091  0.00  0.00    +0.000 C 
ATOM      4  C   UNL     1     -24.324   9.251  -5.182  0.00  0.00    +0.000 C 
ATOM      5  C   UNL     1     -24.579   9.893  -6.537  0.00  0.00    +0.000 C 
ENDROOT
BRANCH   2   6
ATOM      6  C   UNL     1     -21.139   9.031  -3.549  0.00  0.00    +0.000 C 
ATOM      7  C   UNL     1     -20.386   8.133  -3.281  0.00  0.00    +0.000 C 
BRANCH   7   8
ATOM      8  C   UNL     1     -19.520   6.909  -2.970  0.00  0.00    +0.000 C 
BRANCH   8   9
ATOM      9  C   UNL     1     -18.891   5.673  -2.683  0.00  0.00    +0.000 C 
ATOM     10  C   UNL     1     -19.723   4.437  -2.540  0.00  0.00    +0.000 C 
ATOM     11  C   UNL     1     -17.501   5.601  -2.418  0.00  0.00    +0.000 C 
ATOM     12  C   UNL     1     -16.230   5.731  -2.190  0.00  0.00    +0.000 C 
BRANCH  12  13
ATOM     13  C   UNL     1     -15.741   7.065  -2.180  0.00  0.00    +0.000 C 
ATOM     14  C   UNL     1     -15.400   8.210  -2.056  0.00  0.00    +0.000 C 
BRANCH  14  15
ATOM     15  C   UNL     1     -15.067   9.563  -1.790  0.00  0.00    +0.000 A 
ATOM     16  O   UNL     1     -14.716  10.385  -2.944  0.00  0.00    +0.000 OA
ATOM     17  C   UNL     1     -14.402  11.737  -2.822  0.00  0.00    +0.000 A 
ATOM     18  O   UNL     1     -14.137  12.476  -3.758  0.00  0.00    +0.000 OA
ATOM     19  C   UNL     1     -14.450  12.172  -1.457  0.00  0.00    +0.000 A 
ATOM     20  C   UNL     1     -14.725  11.540  -0.483  0.00  0.00    +0.000 A 
ATOM     21  C   UNL     1     -15.074  10.171  -0.455  0.00  0.00    +0.000 A 
ATOM     22  C   UNL     1     -15.446   9.494   0.826  0.00  0.00    +0.000 C 
ENDBRANCH  14  15
ENDBRANCH  12  13
BRANCH  12  23
ATOM     23  C   UNL     1     -15.446   4.575  -1.953  0.00  0.00    +0.000 C 
ATOM     24  C   UNL     1     -14.603   3.322  -1.690  0.00  0.00    +0.000 C 
ENDBRANCH  12  23
ENDBRANCH   8   9
ENDBRANCH   7   8
ENDBRANCH   2   6
BRANCH   4  25
ATOM     25  C   UNL     1     -24.880   7.903  -4.851  0.00  0.00    +0.000 C 
ATOM     26  O   UNL     1     -26.010   7.549  -5.203  0.00  0.00    +0.000 OA
BRANCH  25  27
ATOM     27  C   UNL     1     -24.028   7.005  -4.014  0.00  0.00    +0.000 C 
ATOM     28  C   UNL     1     -23.041   6.056  -4.690  0.00  0.00    +0.000 C 
BRANCH  27  29
ATOM     29  C   UNL     1     -24.363   6.842  -2.602  0.00  0.00    +0.000 C 
BRANCH  29  30
ATOM     30  C   UNL     1     -23.494   6.961  -1.446  0.00  0.00    +0.000 C 
ATOM     31  C   UNL     1     -22.692   5.771  -0.966  0.00  0.00    +0.000 C 
ATOM     32  C   UNL     1     -23.195   8.190  -0.812  0.00  0.00    +0.000 C 
ATOM     33  C   UNL     1     -22.870   9.380  -0.129  0.00  0.00    +0.000 C 
ATOM     34  C   UNL     1     -23.953  10.381   0.131  0.00  0.00    +0.000 C 
ATOM     35  C   UNL     1     -21.644   9.651   0.159  0.00  0.00    +0.000 C 
ATOM     36  C   UNL     1     -20.282   9.938   0.453  0.00  0.00    +0.000 C 
ATOM     37  O   UNL     1     -19.428  10.042  -0.408  0.00  0.00    +0.000 OA
BRANCH  36  38
ATOM     38  O   UNL     1     -20.019  10.062   1.763  0.00  0.00    +0.000 OA
ATOM     39  H   UNL     1     -20.737  10.633   2.105  0.00  0.00    +0.000 HD
ENDBRANCH  36  38
ENDBRANCH  29  30
BRANCH  29  40
ATOM     40  O   UNL     1     -25.706   6.572  -2.326  0.00  0.00    +0.000 OA
ATOM     41  H   UNL     1     -25.901   5.612  -2.360  0.00  0.00    +0.000 HD
ENDBRANCH  29  40
ENDBRANCH  27  29
ENDBRANCH  25  27
ENDBRANCH   4  25
TORSDOF 12
ENDMDL
MODEL 7
REMARK VINA RESULT:      -5.5      4.464      9.271
REMARK  Name = Leptomycin.pdbqt.pdb
REMARK  12 active torsions:
REMARK  status: ('A' for Active; 'I' for Inactive)
REMARK    1  A    between atoms: C_2  and  C_4
REMARK    2  A    between atoms: C_5  and  C_6
REMARK    3  A    between atoms: C_6  and  C_7
REMARK    4  A    between atoms: C_10  and  C_11
REMARK    5  A    between atoms: C_10  and  C_21
REMARK    6  A    between atoms: C_12  and  C_13
REMARK    7  A    between atoms: C_23  and  C_25
REMARK    8  A    between atoms: C_25  and  C_27
REMARK    9  A    between atoms: C_27  and  C_29
REMARK   10  A    between atoms: C_29  and  O_30
REMARK   11  A    between atoms: C_29  and  C_32
REMARK   12  A    between atoms: C_38  and  O_40
REMARK                            x       y       z     vdW  Elec       q    Type
REMARK                         _______ _______ _______ _____ _____    ______ ____
ROOT
ATOM      1  C   UNL     1     -18.816   9.575  -1.012  0.00  0.00    +0.000 C 
ATOM      2  C   UNL     1     -19.009   9.493  -2.288  0.00  0.00    +0.000 C 
ATOM      3  C   UNL     1     -18.988  10.753  -3.103  0.00  0.00    +0.000 C 
ATOM      4  C   UNL     1     -18.562   9.601   0.383  0.00  0.00    +0.000 C 
ATOM      5  C   UNL     1     -19.753   9.978   1.250  0.00  0.00    +0.000 C 
ENDROOT
BRANCH   2   6
ATOM      6  C   UNL     1     -18.748   8.262  -2.939  0.00  0.00    +0.000 C 
ATOM      7  C   UNL     1     -18.570   7.235  -3.538  0.00  0.00    +0.000 C 
BRANCH   7   8
ATOM      8  C   UNL     1     -18.430   5.965  -4.383  0.00  0.00    +0.000 C 
BRANCH   8   9
ATOM      9  C   UNL     1     -18.489   4.829  -5.225  0.00  0.00    +0.000 C 
ATOM     10  C   UNL     1     -17.461   4.651  -6.299  0.00  0.00    +0.000 C 
ATOM     11  C   UNL     1     -19.564   3.911  -5.146  0.00  0.00    +0.000 C 
ATOM     12  C   UNL     1     -20.626   3.193  -4.939  0.00  0.00    +0.000 C 
BRANCH  12  13
ATOM     13  C   UNL     1     -21.551   3.720  -3.997  0.00  0.00    +0.000 C 
ATOM     14  C   UNL     1     -22.384   4.039  -3.193  0.00  0.00    +0.000 C 
BRANCH  14  15
ATOM     15  C   UNL     1     -23.404   4.282  -2.238  0.00  0.00    +0.000 A 
ATOM     16  O   UNL     1     -23.020   5.047  -1.057  0.00  0.00    +0.000 OA
ATOM     17  C   UNL     1     -23.935   5.382  -0.062  0.00  0.00    +0.000 A 
ATOM     18  O   UNL     1     -23.674   6.050   0.927  0.00  0.00    +0.000 OA
ATOM     19  C   UNL     1     -25.242   4.866  -0.347  0.00  0.00    +0.000 A 
ATOM     20  C   UNL     1     -25.603   4.232  -1.291  0.00  0.00    +0.000 A 
ATOM     21  C   UNL     1     -24.794   3.832  -2.378  0.00  0.00    +0.000 A 
ATOM     22  C   UNL     1     -25.371   3.078  -3.534  0.00  0.00    +0.000 C 
ENDBRANCH  14  15
ENDBRANCH  12  13
BRANCH  12  23
ATOM     23  C   UNL     1     -20.796   1.984  -5.658  0.00  0.00    +0.000 C 
ATOM     24  C   UNL     1     -20.983   0.673  -6.431  0.00  0.00    +0.000 C 
ENDBRANCH  12  23
ENDBRANCH   8   9
ENDBRANCH   7   8
ENDBRANCH   2   6
BRANCH   4  25
ATOM     25  C   UNL     1     -17.437   8.781   0.931  0.00  0.00    +0.000 C 
ATOM     26  O   UNL     1     -16.988   8.953   2.069  0.00  0.00    +0.000 OA
BRANCH  25  27
ATOM     27  C   UNL     1     -16.826   7.769   0.016  0.00  0.00    +0.000 C 
ATOM     28  C   UNL     1     -17.296   6.317   0.077  0.00  0.00    +0.000 C 
BRANCH  27  29
ATOM     29  C   UNL     1     -15.604   8.123  -0.698  0.00  0.00    +0.000 C 
BRANCH  29  30
ATOM     30  C   UNL     1     -15.236   7.817  -2.069  0.00  0.00    +0.000 C 
ATOM     31  C   UNL     1     -14.863   8.928  -3.027  0.00  0.00    +0.000 C 
ATOM     32  C   UNL     1     -15.025   6.504  -2.552  0.00  0.00    +0.000 C 
ATOM     33  C   UNL     1     -14.815   5.220  -3.096  0.00  0.00    +0.000 C 
ATOM     34  C   UNL     1     -15.755   4.116  -2.721  0.00  0.00    +0.000 C 
ATOM     35  C   UNL     1     -13.767   4.977  -3.805  0.00  0.00    +0.000 C 
ATOM     36  C   UNL     1     -12.595   4.726  -4.571  0.00  0.00    +0.000 C 
ATOM     37  O   UNL     1     -11.472   4.866  -4.125  0.00  0.00    +0.000 OA
BRANCH  36  38
ATOM     38  O   UNL     1     -12.838   4.343  -5.834  0.00  0.00    +0.000 OA
ATOM     39  H   UNL     1     -12.290   4.942  -6.382  0.00  0.00    +0.000 HD
ENDBRANCH  36  38
ENDBRANCH  29  30
BRANCH  29  40
ATOM     40  O   UNL     1     -14.683   8.888   0.020  0.00  0.00    +0.000 OA
ATOM     41  H   UNL     1     -14.528   9.761  -0.396  0.00  0.00    +0.000 HD
ENDBRANCH  29  40
ENDBRANCH  27  29
ENDBRANCH  25  27
ENDBRANCH   4  25
TORSDOF 12
ENDMDL
MODEL 8
REMARK VINA RESULT:      -5.5     11.032     15.587
REMARK  Name = Leptomycin.pdbqt.pdb
REMARK  12 active torsions:
REMARK  status: ('A' for Active; 'I' for Inactive)
REMARK    1  A    between atoms: C_2  and  C_4
REMARK    2  A    between atoms: C_5  and  C_6
REMARK    3  A    between atoms: C_6  and  C_7
REMARK    4  A    between atoms: C_10  and  C_11
REMARK    5  A    between atoms: C_10  and  C_21
REMARK    6  A    between atoms: C_12  and  C_13
REMARK    7  A    between atoms: C_23  and  C_25
REMARK    8  A    between atoms: C_25  and  C_27
REMARK    9  A    between atoms: C_27  and  C_29
REMARK   10  A    between atoms: C_29  and  O_30
REMARK   11  A    between atoms: C_29  and  C_32
REMARK   12  A    between atoms: C_38  and  O_40
REMARK                            x       y       z     vdW  Elec       q    Type
REMARK                         _______ _______ _______ _____ _____    ______ ____
ROOT
ATOM      1  C   UNL     1      -4.224  15.635   0.627  0.00  0.00    +0.000 C 
ATOM      2  C   UNL     1      -3.295  14.735   0.653  0.00  0.00    +0.000 C 
ATOM      3  C   UNL     1      -2.575  14.479   1.945  0.00  0.00    +0.000 C 
ATOM      4  C   UNL     1      -5.284  16.573   0.554  0.00  0.00    +0.000 C 
ATOM      5  C   UNL     1      -4.854  18.024   0.404  0.00  0.00    +0.000 C 
ENDROOT
BRANCH   2   6
ATOM      6  C   UNL     1      -3.307  13.714  -0.330  0.00  0.00    +0.000 C 
ATOM      7  C   UNL     1      -3.344  12.891  -1.204  0.00  0.00    +0.000 C 
BRANCH   7   8
ATOM      8  C   UNL     1      -3.446  11.929  -2.391  0.00  0.00    +0.000 C 
BRANCH   8   9
ATOM      9  C   UNL     1      -3.595  11.200  -3.596  0.00  0.00    +0.000 C 
ATOM     10  C   UNL     1      -4.079  11.901  -4.828  0.00  0.00    +0.000 C 
ATOM     11  C   UNL     1      -3.400   9.798  -3.635  0.00  0.00    +0.000 C 
ATOM     12  C   UNL     1      -3.196   8.526  -3.475  0.00  0.00    +0.000 C 
BRANCH  12  13
ATOM     13  C   UNL     1      -2.961   8.104  -2.139  0.00  0.00    +0.000 C 
ATOM     14  C   UNL     1      -2.627   7.754  -1.040  0.00  0.00    +0.000 C 
BRANCH  14  15
ATOM     15  C   UNL     1      -2.103   7.360   0.218  0.00  0.00    +0.000 A 
ATOM     16  O   UNL     1      -3.018   7.425   1.353  0.00  0.00    +0.000 OA
ATOM     17  C   UNL     1      -2.637   7.034   2.634  0.00  0.00    +0.000 A 
ATOM     18  O   UNL     1      -3.373   7.035   3.609  0.00  0.00    +0.000 OA
ATOM     19  C   UNL     1      -1.271   6.603   2.674  0.00  0.00    +0.000 A 
ATOM     20  C   UNL     1      -0.484   6.537   1.779  0.00  0.00    +0.000 A 
ATOM     21  C   UNL     1      -0.731   6.886   0.432  0.00  0.00    +0.000 A 
ATOM     22  C   UNL     1       0.323   6.716  -0.616  0.00  0.00    +0.000 C 
ENDBRANCH  14  15
ENDBRANCH  12  13
BRANCH  12  23
ATOM     23  C   UNL     1      -3.243   7.670  -4.604  0.00  0.00    +0.000 C 
ATOM     24  C   UNL     1      -3.294   6.749  -5.829  0.00  0.00    +0.000 C 
ENDBRANCH  12  23
ENDBRANCH   8   9
ENDBRANCH   7   8
ENDBRANCH   2   6
BRANCH   4  25
ATOM     25  C   UNL     1      -6.629  16.114   0.084  0.00  0.00    +0.000 C 
ATOM     26  O   UNL     1      -7.450  15.590   0.844  0.00  0.00    +0.000 OA
BRANCH  25  27
ATOM     27  C   UNL     1      -6.925  16.260  -1.373  0.00  0.00    +0.000 C 
ATOM     28  C   UNL     1      -7.712  17.472  -1.864  0.00  0.00    +0.000 C 
BRANCH  27  29
ATOM     29  C   UNL     1      -6.718  15.108  -2.245  0.00  0.00    +0.000 C 
BRANCH  29  30
ATOM     30  C   UNL     1      -6.224  15.084  -3.611  0.00  0.00    +0.000 C 
ATOM     31  C   UNL     1      -4.752  15.294  -3.896  0.00  0.00    +0.000 C 
ATOM     32  C   UNL     1      -7.008  14.698  -4.722  0.00  0.00    +0.000 C 
ATOM     33  C   UNL     1      -7.742  14.337  -5.872  0.00  0.00    +0.000 C 
ATOM     34  C   UNL     1      -9.152  14.822  -6.008  0.00  0.00    +0.000 C 
ATOM     35  C   UNL     1      -7.246  13.510  -6.727  0.00  0.00    +0.000 C 
ATOM     36  C   UNL     1      -6.687  12.584  -7.650  0.00  0.00    +0.000 C 
ATOM     37  O   UNL     1      -6.366  11.452  -7.337  0.00  0.00    +0.000 OA
BRANCH  36  38
ATOM     38  O   UNL     1      -6.526  13.074  -8.888  0.00  0.00    +0.000 OA
ATOM     39  H   UNL     1      -6.156  12.326  -9.402  0.00  0.00    +0.000 HD
ENDBRANCH  36  38
ENDBRANCH  29  30
BRANCH  29  40
ATOM     40  O   UNL     1      -6.995  13.862  -1.679  0.00  0.00    +0.000 OA
ATOM     41  H   UNL     1      -6.182  13.335  -1.536  0.00  0.00    +0.000 HD
ENDBRANCH  29  40
ENDBRANCH  27  29
ENDBRANCH  25  27
ENDBRANCH   4  25
TORSDOF 12
ENDMDL
MODEL 9
REMARK VINA RESULT:      -5.4     32.344     37.567
REMARK  Name = Leptomycin.pdbqt.pdb
REMARK  12 active torsions:
REMARK  status: ('A' for Active; 'I' for Inactive)
REMARK    1  A    between atoms: C_2  and  C_4
REMARK    2  A    between atoms: C_5  and  C_6
REMARK    3  A    between atoms: C_6  and  C_7
REMARK    4  A    between atoms: C_10  and  C_11
REMARK    5  A    between atoms: C_10  and  C_21
REMARK    6  A    between atoms: C_12  and  C_13
REMARK    7  A    between atoms: C_23  and  C_25
REMARK    8  A    between atoms: C_25  and  C_27
REMARK    9  A    between atoms: C_27  and  C_29
REMARK   10  A    between atoms: C_29  and  O_30
REMARK   11  A    between atoms: C_29  and  C_32
REMARK   12  A    between atoms: C_38  and  O_40
REMARK                            x       y       z     vdW  Elec       q    Type
REMARK                         _______ _______ _______ _____ _____    ______ ____
ROOT
ATOM      1  C   UNL     1     -21.272  20.265  30.173  0.00  0.00    +0.000 C 
ATOM      2  C   UNL     1     -20.385  21.127  29.793  0.00  0.00    +0.000 C 
ATOM      3  C   UNL     1     -19.009  20.638  29.443  0.00  0.00    +0.000 C 
ATOM      4  C   UNL     1     -22.296  19.359  30.548  0.00  0.00    +0.000 C 
ATOM      5  C   UNL     1     -22.268  18.918  32.003  0.00  0.00    +0.000 C 
ENDROOT
BRANCH   2   6
ATOM      6  C   UNL     1     -20.822  22.363  29.256  0.00  0.00    +0.000 C 
ATOM      7  C   UNL     1     -21.231  23.378  28.759  0.00  0.00    +0.000 C 
BRANCH   7   8
ATOM      8  C   UNL     1     -21.821  24.600  28.050  0.00  0.00    +0.000 C 
BRANCH   8   9
ATOM      9  C   UNL     1     -22.443  25.599  27.261  0.00  0.00    +0.000 C 
ATOM     10  C   UNL     1     -21.714  26.172  26.086  0.00  0.00    +0.000 C 
ATOM     11  C   UNL     1     -23.697  26.147  27.626  0.00  0.00    +0.000 C 
ATOM     12  C   UNL     1     -24.832  26.537  28.121  0.00  0.00    +0.000 C 
BRANCH  12  13
ATOM     13  C   UNL     1     -25.181  25.970  29.377  0.00  0.00    +0.000 C 
ATOM     14  C   UNL     1     -25.348  25.520  30.477  0.00  0.00    +0.000 C 
BRANCH  14  15
ATOM     15  C   UNL     1     -25.417  25.030  31.807  0.00  0.00    +0.000 A 
ATOM     16  O   UNL     1     -26.645  25.315  32.542  0.00  0.00    +0.000 OA
ATOM     17  C   UNL     1     -26.852  24.861  33.843  0.00  0.00    +0.000 A 
ATOM     18  O   UNL     1     -27.873  25.040  34.488  0.00  0.00    +0.000 OA
ATOM     19  C   UNL     1     -25.722  24.129  34.335  0.00  0.00    +0.000 A 
ATOM     20  C   UNL     1     -24.697  23.876  33.778  0.00  0.00    +0.000 A 
ATOM     21  C   UNL     1     -24.355  24.257  32.461  0.00  0.00    +0.000 A 
ATOM     22  C   UNL     1     -23.055  23.840  31.849  0.00  0.00    +0.000 C 
ENDBRANCH  14  15
ENDBRANCH  12  13
BRANCH  12  23
ATOM     23  C   UNL     1     -25.609  27.485  27.411  0.00  0.00    +0.000 C 
ATOM     24  C   UNL     1     -26.449  28.507  26.636  0.00  0.00    +0.000 C 
ENDBRANCH  12  23
ENDBRANCH   8   9
ENDBRANCH   7   8
ENDBRANCH   2   6
BRANCH   4  25
ATOM     25  C   UNL     1     -23.566  19.333  29.757  0.00  0.00    +0.000 C 
ATOM     26  O   UNL     1     -24.385  18.413  29.855  0.00  0.00    +0.000 OA
BRANCH  25  27
ATOM     27  C   UNL     1     -23.784  20.447  28.785  0.00  0.00    +0.000 C 
ATOM     28  C   UNL     1     -24.562  21.686  29.222  0.00  0.00    +0.000 C 
BRANCH  27  29
ATOM     29  C   UNL     1     -23.511  20.203  27.373  0.00  0.00    +0.000 C 
BRANCH  29  30
ATOM     30  C   UNL     1     -22.949  21.112  26.390  0.00  0.00    +0.000 C 
ATOM     31  C   UNL     1     -21.522  20.937  25.914  0.00  0.00    +0.000 C 
ATOM     32  C   UNL     1     -23.707  22.079  25.690  0.00  0.00    +0.000 C 
ATOM     33  C   UNL     1     -24.405  23.071  24.970  0.00  0.00    +0.000 C 
ATOM     34  C   UNL     1     -25.419  23.905  25.691  0.00  0.00    +0.000 C 
ATOM     35  C   UNL     1     -24.257  23.176  23.695  0.00  0.00    +0.000 C 
ATOM     36  C   UNL     1     -24.092  23.263  22.285  0.00  0.00    +0.000 C 
ATOM     37  O   UNL     1     -24.353  22.344  21.531  0.00  0.00    +0.000 OA
BRANCH  36  38
ATOM     38  O   UNL     1     -23.602  24.439  21.863  0.00  0.00    +0.000 OA
ATOM     39  H   UNL     1     -23.833  24.473  20.912  0.00  0.00    +0.000 HD
ENDBRANCH  36  38
ENDBRANCH  29  30
BRANCH  29  40
ATOM     40  O   UNL     1     -23.793  18.914  26.915  0.00  0.00    +0.000 OA
ATOM     41  H   UNL     1     -24.732  18.816  26.652  0.00  0.00    +0.000 HD
ENDBRANCH  29  40
ENDBRANCH  27  29
ENDBRANCH  25  27
ENDBRANCH   4  25
TORSDOF 12
ENDMDL
