MODEL 1
REMARK VINA RESULT:      -7.2      0.000      0.000
REMARK  Name = Lobelin.pdbqt.pdb
REMARK  3 active torsions:
REMARK  status: ('A' for Active; 'I' for Inactive)
REMARK    1  A    between atoms: C_9  and  O_10
REMARK    2  A    between atoms: C_9  and  C_12
REMARK    3  A    between atoms: C_19  and  C_21
REMARK                            x       y       z     vdW  Elec       q    Type
REMARK                         _______ _______ _______ _____ _____    ______ ____
ROOT
ATOM      1  N   UNL     1     -15.349   8.980  -1.396  0.00  0.00    +0.000 N 
ATOM      2  C   UNL     1     -16.045   7.807  -0.878  0.00  0.00    +0.000 C 
ATOM      3  C   UNL     1     -15.334  10.221  -0.627  0.00  0.00    +0.000 C 
ATOM      4  C   UNL     1     -16.638   7.982   0.410  0.00  0.00    +0.000 C 
ATOM      5  C   UNL     1     -16.001  10.152   0.635  0.00  0.00    +0.000 C 
ATOM      6  C   UNL     1     -16.764   9.105   1.423  0.00  0.00    +0.000 C 
ATOM      7  C   UNL     1     -14.782   8.956  -2.726  0.00  0.00    +0.000 C 
ATOM      8  C   UNL     1     -16.116   6.581  -1.594  0.00  0.00    +0.000 C 
ATOM      9  C   UNL     1     -16.161   5.353  -2.304  0.00  0.00    +0.000 C 
ATOM     10  C   UNL     1     -14.695  11.397  -1.096  0.00  0.00    +0.000 C 
ATOM     11  C   UNL     1     -14.018  12.580  -1.558  0.00  0.00    +0.000 C 
ATOM     12  O   UNL     1     -13.207  13.128  -0.826  0.00  0.00    +0.000 OA
ENDROOT
BRANCH   9  13
ATOM     13  C   UNL     1     -14.983   4.552  -2.638  0.00  0.00    +0.000 A 
ATOM     14  C   UNL     1     -13.733   4.853  -2.089  0.00  0.00    +0.000 A 
ATOM     15  C   UNL     1     -12.611   4.090  -2.407  0.00  0.00    +0.000 A 
ATOM     16  C   UNL     1     -12.727   3.013  -3.281  0.00  0.00    +0.000 A 
ATOM     17  C   UNL     1     -13.964   2.701  -3.837  0.00  0.00    +0.000 A 
ATOM     18  C   UNL     1     -15.083   3.468  -3.516  0.00  0.00    +0.000 A 
ENDBRANCH   9  13
BRANCH  11  19
ATOM     19  C   UNL     1     -14.340  13.096  -2.900  0.00  0.00    +0.000 A 
ATOM     20  C   UNL     1     -15.185  12.396  -3.761  0.00  0.00    +0.000 A 
ATOM     21  C   UNL     1     -15.476  12.912  -5.021  0.00  0.00    +0.000 A 
ATOM     22  C   UNL     1     -14.924  14.128  -5.419  0.00  0.00    +0.000 A 
ATOM     23  C   UNL     1     -14.082  14.829  -4.558  0.00  0.00    +0.000 A 
ATOM     24  C   UNL     1     -13.790  14.314  -3.297  0.00  0.00    +0.000 A 
ENDBRANCH  11  19
BRANCH   9  25
ATOM     25  O   UNL     1     -17.382   4.862  -2.707  0.00  0.00    +0.000 OA
ATOM     26  H   UNL     1     -17.341   3.912  -2.910  0.00  0.00    +0.000 HD
ENDBRANCH   9  25
TORSDOF 3
ENDMDL
MODEL 2
REMARK VINA RESULT:      -6.7      3.704      9.768
REMARK  Name = Lobelin.pdbqt.pdb
REMARK  3 active torsions:
REMARK  status: ('A' for Active; 'I' for Inactive)
REMARK    1  A    between atoms: C_9  and  O_10
REMARK    2  A    between atoms: C_9  and  C_12
REMARK    3  A    between atoms: C_19  and  C_21
REMARK                            x       y       z     vdW  Elec       q    Type
REMARK                         _______ _______ _______ _____ _____    ______ ____
ROOT
ATOM      1  N   UNL     1     -15.227   3.589  -1.840  0.00  0.00    +0.000 N 
ATOM      2  C   UNL     1     -14.346   4.705  -2.166  0.00  0.00    +0.000 C 
ATOM      3  C   UNL     1     -14.746   2.216  -1.964  0.00  0.00    +0.000 C 
ATOM      4  C   UNL     1     -13.023   4.330  -2.555  0.00  0.00    +0.000 C 
ATOM      5  C   UNL     1     -13.384   2.093  -2.375  0.00  0.00    +0.000 C 
ATOM      6  C   UNL     1     -12.255   3.035  -2.748  0.00  0.00    +0.000 C 
ATOM      7  C   UNL     1     -16.615   3.834  -1.515  0.00  0.00    +0.000 C 
ATOM      8  C   UNL     1     -14.766   6.060  -2.090  0.00  0.00    +0.000 C 
ATOM      9  C   UNL     1     -15.187   7.412  -1.988  0.00  0.00    +0.000 C 
ATOM     10  C   UNL     1     -15.569   1.095  -1.685  0.00  0.00    +0.000 C 
ATOM     11  C   UNL     1     -16.395  -0.040  -1.369  0.00  0.00    +0.000 C 
ATOM     12  O   UNL     1     -15.980  -0.880  -0.583  0.00  0.00    +0.000 OA
ENDROOT
BRANCH   9  13
ATOM     13  C   UNL     1     -15.597   8.054  -0.739  0.00  0.00    +0.000 A 
ATOM     14  C   UNL     1     -14.885   9.142  -0.225  0.00  0.00    +0.000 A 
ATOM     15  C   UNL     1     -15.276   9.754   0.964  0.00  0.00    +0.000 A 
ATOM     16  C   UNL     1     -16.388   9.283   1.656  0.00  0.00    +0.000 A 
ATOM     17  C   UNL     1     -17.106   8.200   1.159  0.00  0.00    +0.000 A 
ATOM     18  C   UNL     1     -16.710   7.591  -0.031  0.00  0.00    +0.000 A 
ENDBRANCH   9  13
BRANCH  11  19
ATOM     19  C   UNL     1     -17.713  -0.154  -2.018  0.00  0.00    +0.000 A 
ATOM     20  C   UNL     1     -17.948  -1.100  -3.016  0.00  0.00    +0.000 A 
ATOM     21  C   UNL     1     -19.207  -1.188  -3.606  0.00  0.00    +0.000 A 
ATOM     22  C   UNL     1     -20.228  -0.333  -3.199  0.00  0.00    +0.000 A 
ATOM     23  C   UNL     1     -19.993   0.610  -2.199  0.00  0.00    +0.000 A 
ATOM     24  C   UNL     1     -18.736   0.700  -1.607  0.00  0.00    +0.000 A 
ENDBRANCH  11  19
BRANCH   9  25
ATOM     25  O   UNL     1     -15.211   8.189  -3.123  0.00  0.00    +0.000 OA
ATOM     26  H   UNL     1     -15.725   9.004  -2.995  0.00  0.00    +0.000 HD
ENDBRANCH   9  25
TORSDOF 3
ENDMDL
MODEL 3
REMARK VINA RESULT:      -6.6      3.906      8.965
REMARK  Name = Lobelin.pdbqt.pdb
REMARK  3 active torsions:
REMARK  status: ('A' for Active; 'I' for Inactive)
REMARK    1  A    between atoms: C_9  and  O_10
REMARK    2  A    between atoms: C_9  and  C_12
REMARK    3  A    between atoms: C_19  and  C_21
REMARK                            x       y       z     vdW  Elec       q    Type
REMARK                         _______ _______ _______ _____ _____    ______ ____
ROOT
ATOM      1  N   UNL     1     -13.522   5.219  -3.311  0.00  0.00    +0.000 N 
ATOM      2  C   UNL     1     -14.641   6.062  -3.716  0.00  0.00    +0.000 C 
ATOM      3  C   UNL     1     -12.521   4.808  -4.291  0.00  0.00    +0.000 C 
ATOM      4  C   UNL     1     -14.628   6.455  -5.090  0.00  0.00    +0.000 C 
ATOM      5  C   UNL     1     -12.724   5.327  -5.607  0.00  0.00    +0.000 C 
ATOM      6  C   UNL     1     -13.742   6.213  -6.298  0.00  0.00    +0.000 C 
ATOM      7  C   UNL     1     -13.469   4.685  -1.968  0.00  0.00    +0.000 C 
ATOM      8  C   UNL     1     -15.659   6.471  -2.813  0.00  0.00    +0.000 C 
ATOM      9  C   UNL     1     -16.658   6.896  -1.898  0.00  0.00    +0.000 C 
ATOM     10  C   UNL     1     -11.429   3.969  -3.955  0.00  0.00    +0.000 C 
ATOM     11  C   UNL     1     -10.302   3.144  -3.605  0.00  0.00    +0.000 C 
ATOM     12  O   UNL     1      -9.176   3.521  -3.893  0.00  0.00    +0.000 OA
ENDROOT
BRANCH   9  13
ATOM     13  C   UNL     1     -16.400   7.738  -0.730  0.00  0.00    +0.000 A 
ATOM     14  C   UNL     1     -17.267   7.726   0.366  0.00  0.00    +0.000 A 
ATOM     15  C   UNL     1     -17.022   8.528   1.480  0.00  0.00    +0.000 A 
ATOM     16  C   UNL     1     -15.902   9.353   1.508  0.00  0.00    +0.000 A 
ATOM     17  C   UNL     1     -15.030   9.378   0.424  0.00  0.00    +0.000 A 
ATOM     18  C   UNL     1     -15.281   8.574  -0.687  0.00  0.00    +0.000 A 
ENDBRANCH   9  13
BRANCH  11  19
ATOM     19  C   UNL     1     -10.553   1.864  -2.920  0.00  0.00    +0.000 A 
ATOM     20  C   UNL     1     -10.419   0.647  -3.589  0.00  0.00    +0.000 A 
ATOM     21  C   UNL     1     -10.656  -0.546  -2.912  0.00  0.00    +0.000 A 
ATOM     22  C   UNL     1     -11.026  -0.524  -1.570  0.00  0.00    +0.000 A 
ATOM     23  C   UNL     1     -11.157   0.692  -0.901  0.00  0.00    +0.000 A 
ATOM     24  C   UNL     1     -10.920   1.887  -1.575  0.00  0.00    +0.000 A 
ENDBRANCH  11  19
BRANCH   9  25
ATOM     25  O   UNL     1     -17.961   6.507  -2.109  0.00  0.00    +0.000 OA
ATOM     26  H   UNL     1     -18.518   7.248  -2.401  0.00  0.00    +0.000 HD
ENDBRANCH   9  25
TORSDOF 3
ENDMDL
MODEL 4
REMARK VINA RESULT:      -6.6      1.387      8.039
REMARK  Name = Lobelin.pdbqt.pdb
REMARK  3 active torsions:
REMARK  status: ('A' for Active; 'I' for Inactive)
REMARK    1  A    between atoms: C_9  and  O_10
REMARK    2  A    between atoms: C_9  and  C_12
REMARK    3  A    between atoms: C_19  and  C_21
REMARK                            x       y       z     vdW  Elec       q    Type
REMARK                         _______ _______ _______ _____ _____    ______ ____
ROOT
ATOM      1  N   UNL     1     -14.921   9.458  -2.174  0.00  0.00    +0.000 N 
ATOM      2  C   UNL     1     -14.884  10.820  -1.651  0.00  0.00    +0.000 C 
ATOM      3  C   UNL     1     -15.165   8.334  -1.274  0.00  0.00    +0.000 C 
ATOM      4  C   UNL     1     -15.141  10.930  -0.249  0.00  0.00    +0.000 C 
ATOM      5  C   UNL     1     -15.392   8.697   0.089  0.00  0.00    +0.000 C 
ATOM      6  C   UNL     1     -15.437   9.980   0.896  0.00  0.00    +0.000 C 
ATOM      7  C   UNL     1     -14.593   9.207  -3.560  0.00  0.00    +0.000 C 
ATOM      8  C   UNL     1     -14.625  11.949  -2.473  0.00  0.00    +0.000 C 
ATOM      9  C   UNL     1     -14.391  13.074  -3.305  0.00  0.00    +0.000 C 
ATOM     10  C   UNL     1     -15.185   6.991  -1.727  0.00  0.00    +0.000 C 
ATOM     11  C   UNL     1     -15.239   5.630  -2.193  0.00  0.00    +0.000 C 
ATOM     12  O   UNL     1     -16.213   4.944  -1.919  0.00  0.00    +0.000 OA
ENDROOT
BRANCH   9  13
ATOM     13  C   UNL     1     -15.267  13.482  -4.404  0.00  0.00    +0.000 A 
ATOM     14  C   UNL     1     -16.357  12.693  -4.781  0.00  0.00    +0.000 A 
ATOM     15  C   UNL     1     -17.192  13.081  -5.828  0.00  0.00    +0.000 A 
ATOM     16  C   UNL     1     -16.945  14.268  -6.511  0.00  0.00    +0.000 A 
ATOM     17  C   UNL     1     -15.862  15.064  -6.149  0.00  0.00    +0.000 A 
ATOM     18  C   UNL     1     -15.030  14.670  -5.102  0.00  0.00    +0.000 A 
ENDBRANCH   9  13
BRANCH  11  19
ATOM     19  C   UNL     1     -14.105   5.110  -2.977  0.00  0.00    +0.000 A 
ATOM     20  C   UNL     1     -13.970   5.402  -4.335  0.00  0.00    +0.000 A 
ATOM     21  C   UNL     1     -12.884   4.901  -5.048  0.00  0.00    +0.000 A 
ATOM     22  C   UNL     1     -11.934   4.111  -4.405  0.00  0.00    +0.000 A 
ATOM     23  C   UNL     1     -12.068   3.822  -3.048  0.00  0.00    +0.000 A 
ATOM     24  C   UNL     1     -13.153   4.322  -2.333  0.00  0.00    +0.000 A 
ENDBRANCH  11  19
BRANCH   9  25
ATOM     25  O   UNL     1     -13.277  13.850  -3.078  0.00  0.00    +0.000 OA
ATOM     26  H   UNL     1     -12.763  13.995  -3.890  0.00  0.00    +0.000 HD
ENDBRANCH   9  25
TORSDOF 3
ENDMDL
MODEL 5
REMARK VINA RESULT:      -6.4      9.355     13.163
REMARK  Name = Lobelin.pdbqt.pdb
REMARK  3 active torsions:
REMARK  status: ('A' for Active; 'I' for Inactive)
REMARK    1  A    between atoms: C_9  and  O_10
REMARK    2  A    between atoms: C_9  and  C_12
REMARK    3  A    between atoms: C_19  and  C_21
REMARK                            x       y       z     vdW  Elec       q    Type
REMARK                         _______ _______ _______ _____ _____    ______ ____
ROOT
ATOM      1  N   UNL     1     -24.230   9.403   4.716  0.00  0.00    +0.000 N 
ATOM      2  C   UNL     1     -23.959   8.985   6.087  0.00  0.00    +0.000 C 
ATOM      3  C   UNL     1     -24.922   8.502   3.798  0.00  0.00    +0.000 C 
ATOM      4  C   UNL     1     -24.454   7.689   6.426  0.00  0.00    +0.000 C 
ATOM      5  C   UNL     1     -25.318   7.255   4.370  0.00  0.00    +0.000 C 
ATOM      6  C   UNL     1     -25.201   6.573   5.719  0.00  0.00    +0.000 C 
ATOM      7  C   UNL     1     -23.705  10.659   4.225  0.00  0.00    +0.000 C 
ATOM      8  C   UNL     1     -23.266   9.808   7.016  0.00  0.00    +0.000 C 
ATOM      9  C   UNL     1     -22.597  10.646   7.945  0.00  0.00    +0.000 C 
ATOM     10  C   UNL     1     -25.187   8.850   2.449  0.00  0.00    +0.000 C 
ATOM     11  C   UNL     1     -25.485   9.216   1.090  0.00  0.00    +0.000 C 
ATOM     12  O   UNL     1     -26.634   9.118   0.684  0.00  0.00    +0.000 OA
ENDROOT
BRANCH   9  13
ATOM     13  C   UNL     1     -23.105  11.940   8.402  0.00  0.00    +0.000 A 
ATOM     14  C   UNL     1     -24.212  12.532   7.787  0.00  0.00    +0.000 A 
ATOM     15  C   UNL     1     -24.697  13.764   8.222  0.00  0.00    +0.000 A 
ATOM     16  C   UNL     1     -24.078  14.419   9.282  0.00  0.00    +0.000 A 
ATOM     17  C   UNL     1     -22.974  13.844   9.904  0.00  0.00    +0.000 A 
ATOM     18  C   UNL     1     -22.493  12.612   9.464  0.00  0.00    +0.000 A 
ENDBRANCH   9  13
BRANCH  11  19
ATOM     19  C   UNL     1     -24.385   9.687   0.231  0.00  0.00    +0.000 A 
ATOM     20  C   UNL     1     -24.633  10.227  -1.032  0.00  0.00    +0.000 A 
ATOM     21  C   UNL     1     -23.572  10.669  -1.818  0.00  0.00    +0.000 A 
ATOM     22  C   UNL     1     -22.266  10.574  -1.343  0.00  0.00    +0.000 A 
ATOM     23  C   UNL     1     -22.019  10.039  -0.080  0.00  0.00    +0.000 A 
ATOM     24  C   UNL     1     -23.078   9.595   0.708  0.00  0.00    +0.000 A 
ENDBRANCH  11  19
BRANCH   9  25
ATOM     25  O   UNL     1     -21.393  10.231   8.467  0.00  0.00    +0.000 OA
ATOM     26  H   UNL     1     -21.046   9.450   8.004  0.00  0.00    +0.000 HD
ENDBRANCH   9  25
TORSDOF 3
ENDMDL
MODEL 6
REMARK VINA RESULT:      -6.3      3.829      6.435
REMARK  Name = Lobelin.pdbqt.pdb
REMARK  3 active torsions:
REMARK  status: ('A' for Active; 'I' for Inactive)
REMARK    1  A    between atoms: C_9  and  O_10
REMARK    2  A    between atoms: C_9  and  C_12
REMARK    3  A    between atoms: C_19  and  C_21
REMARK                            x       y       z     vdW  Elec       q    Type
REMARK                         _______ _______ _______ _____ _____    ______ ____
ROOT
ATOM      1  N   UNL     1     -14.308   4.805  -3.111  0.00  0.00    +0.000 N 
ATOM      2  C   UNL     1     -13.627   4.263  -4.283  0.00  0.00    +0.000 C 
ATOM      3  C   UNL     1     -15.724   5.154  -3.183  0.00  0.00    +0.000 C 
ATOM      4  C   UNL     1     -14.461   4.083  -5.429  0.00  0.00    +0.000 C 
ATOM      5  C   UNL     1     -16.344   4.884  -4.441  0.00  0.00    +0.000 C 
ATOM      6  C   UNL     1     -15.916   4.325  -5.785  0.00  0.00    +0.000 C 
ATOM      7  C   UNL     1     -13.555   5.114  -1.916  0.00  0.00    +0.000 C 
ATOM      8  C   UNL     1     -12.246   3.931  -4.280  0.00  0.00    +0.000 C 
ATOM      9  C   UNL     1     -10.872   3.577  -4.261  0.00  0.00    +0.000 C 
ATOM     10  C   UNL     1     -16.426   5.707  -2.082  0.00  0.00    +0.000 C 
ATOM     11  C   UNL     1     -17.146   6.237  -0.954  0.00  0.00    +0.000 C 
ATOM     12  O   UNL     1     -18.184   5.696  -0.601  0.00  0.00    +0.000 OA
ENDROOT
BRANCH   9  13
ATOM     13  C   UNL     1     -10.300   2.537  -3.404  0.00  0.00    +0.000 A 
ATOM     14  C   UNL     1      -9.142   1.853  -3.784  0.00  0.00    +0.000 A 
ATOM     15  C   UNL     1      -8.597   0.863  -2.968  0.00  0.00    +0.000 A 
ATOM     16  C   UNL     1      -9.208   0.545  -1.759  0.00  0.00    +0.000 A 
ATOM     17  C   UNL     1     -10.362   1.216  -1.367  0.00  0.00    +0.000 A 
ATOM     18  C   UNL     1     -10.903   2.205  -2.187  0.00  0.00    +0.000 A 
ENDBRANCH   9  13
BRANCH  11  19
ATOM     19  C   UNL     1     -16.606   7.426  -0.271  0.00  0.00    +0.000 A 
ATOM     20  C   UNL     1     -17.124   7.855   0.951  0.00  0.00    +0.000 A 
ATOM     21  C   UNL     1     -16.589   8.978   1.576  0.00  0.00    +0.000 A 
ATOM     22  C   UNL     1     -15.537   9.671   0.980  0.00  0.00    +0.000 A 
ATOM     23  C   UNL     1     -15.018   9.240  -0.239  0.00  0.00    +0.000 A 
ATOM     24  C   UNL     1     -15.551   8.117  -0.866  0.00  0.00    +0.000 A 
ENDBRANCH  11  19
BRANCH   9  25
ATOM     25  O   UNL     1     -10.003   4.237  -5.100  0.00  0.00    +0.000 OA
ATOM     26  H   UNL     1      -9.848   5.153  -4.814  0.00  0.00    +0.000 HD
ENDBRANCH   9  25
TORSDOF 3
ENDMDL
MODEL 7
REMARK VINA RESULT:      -6.3     12.704     15.814
REMARK  Name = Lobelin.pdbqt.pdb
REMARK  3 active torsions:
REMARK  status: ('A' for Active; 'I' for Inactive)
REMARK    1  A    between atoms: C_9  and  O_10
REMARK    2  A    between atoms: C_9  and  C_12
REMARK    3  A    between atoms: C_19  and  C_21
REMARK                            x       y       z     vdW  Elec       q    Type
REMARK                         _______ _______ _______ _____ _____    ______ ____
ROOT
ATOM      1  N   UNL     1      -3.172   2.902   1.242  0.00  0.00    +0.000 N 
ATOM      2  C   UNL     1      -2.443   3.777   0.330  0.00  0.00    +0.000 C 
ATOM      3  C   UNL     1      -3.684   1.618   0.773  0.00  0.00    +0.000 C 
ATOM      4  C   UNL     1      -2.258   3.250  -0.985  0.00  0.00    +0.000 C 
ATOM      5  C   UNL     1      -3.375   1.311  -0.587  0.00  0.00    +0.000 C 
ATOM      6  C   UNL     1      -2.642   1.985  -1.731  0.00  0.00    +0.000 C 
ATOM      7  C   UNL     1      -3.498   3.359   2.575  0.00  0.00    +0.000 C 
ATOM      8  C   UNL     1      -1.945   5.049   0.722  0.00  0.00    +0.000 C 
ATOM      9  C   UNL     1      -1.429   6.306   1.129  0.00  0.00    +0.000 C 
ATOM     10  C   UNL     1      -4.421   0.743   1.611  0.00  0.00    +0.000 C 
ATOM     11  C   UNL     1      -5.140  -0.159   2.472  0.00  0.00    +0.000 C 
ATOM     12  O   UNL     1      -4.766  -1.319   2.565  0.00  0.00    +0.000 OA
ENDROOT
BRANCH   9  13
ATOM     13  C   UNL     1      -0.413   6.483   2.167  0.00  0.00    +0.000 A 
ATOM     14  C   UNL     1      -0.604   5.964   3.451  0.00  0.00    +0.000 A 
ATOM     15  C   UNL     1       0.364   6.131   4.440  0.00  0.00    +0.000 A 
ATOM     16  C   UNL     1       1.538   6.821   4.154  0.00  0.00    +0.000 A 
ATOM     17  C   UNL     1       1.743   7.345   2.881  0.00  0.00    +0.000 A 
ATOM     18  C   UNL     1       0.771   7.175   1.896  0.00  0.00    +0.000 A 
ENDBRANCH   9  13
BRANCH  11  19
ATOM     19  C   UNL     1      -6.313   0.351   3.203  0.00  0.00    +0.000 A 
ATOM     20  C   UNL     1      -6.172   1.255   4.256  0.00  0.00    +0.000 A 
ATOM     21  C   UNL     1      -7.301   1.724   4.923  0.00  0.00    +0.000 A 
ATOM     22  C   UNL     1      -8.567   1.292   4.539  0.00  0.00    +0.000 A 
ATOM     23  C   UNL     1      -8.708   0.391   3.484  0.00  0.00    +0.000 A 
ATOM     24  C   UNL     1      -7.581  -0.079   2.815  0.00  0.00    +0.000 A 
ENDBRANCH  11  19
BRANCH   9  25
ATOM     25  O   UNL     1      -1.895   7.447   0.515  0.00  0.00    +0.000 OA
ATOM     26  H   UNL     1      -1.193   8.109   0.398  0.00  0.00    +0.000 HD
ENDBRANCH   9  25
TORSDOF 3
ENDMDL
MODEL 8
REMARK VINA RESULT:      -6.2     10.213     14.225
REMARK  Name = Lobelin.pdbqt.pdb
REMARK  3 active torsions:
REMARK  status: ('A' for Active; 'I' for Inactive)
REMARK    1  A    between atoms: C_9  and  O_10
REMARK    2  A    between atoms: C_9  and  C_12
REMARK    3  A    between atoms: C_19  and  C_21
REMARK                            x       y       z     vdW  Elec       q    Type
REMARK                         _______ _______ _______ _____ _____    ______ ____
ROOT
ATOM      1  N   UNL     1      -5.691   0.908   2.832  0.00  0.00    +0.000 N 
ATOM      2  C   UNL     1      -4.265   0.612   2.924  0.00  0.00    +0.000 C 
ATOM      3  C   UNL     1      -6.673  -0.057   3.319  0.00  0.00    +0.000 C 
ATOM      4  C   UNL     1      -3.952  -0.636   3.545  0.00  0.00    +0.000 C 
ATOM      5  C   UNL     1      -6.115  -1.238   3.898  0.00  0.00    +0.000 C 
ATOM      6  C   UNL     1      -4.726  -1.795   4.146  0.00  0.00    +0.000 C 
ATOM      7  C   UNL     1      -6.139   2.100   2.147  0.00  0.00    +0.000 C 
ATOM      8  C   UNL     1      -3.266   1.500   2.443  0.00  0.00    +0.000 C 
ATOM      9  C   UNL     1      -2.273   2.405   1.984  0.00  0.00    +0.000 C 
ATOM     10  C   UNL     1      -8.069   0.171   3.230  0.00  0.00    +0.000 C 
ATOM     11  C   UNL     1      -9.486   0.417   3.169  0.00  0.00    +0.000 C 
ATOM     12  O   UNL     1     -10.154   0.309   4.188  0.00  0.00    +0.000 OA
ENDROOT
BRANCH   9  13
ATOM     13  C   UNL     1      -2.066   3.747   2.530  0.00  0.00    +0.000 A 
ATOM     14  C   UNL     1      -1.076   3.985   3.487  0.00  0.00    +0.000 A 
ATOM     15  C   UNL     1      -0.877   5.262   4.007  0.00  0.00    +0.000 A 
ATOM     16  C   UNL     1      -1.670   6.320   3.573  0.00  0.00    +0.000 A 
ATOM     17  C   UNL     1      -2.661   6.099   2.621  0.00  0.00    +0.000 A 
ATOM     18  C   UNL     1      -2.855   4.819   2.105  0.00  0.00    +0.000 A 
ENDBRANCH   9  13
BRANCH  11  19
ATOM     19  C   UNL     1     -10.082   0.781   1.872  0.00  0.00    +0.000 A 
ATOM     20  C   UNL     1      -9.285   1.131   0.783  0.00  0.00    +0.000 A 
ATOM     21  C   UNL     1      -9.878   1.464  -0.433  0.00  0.00    +0.000 A 
ATOM     22  C   UNL     1     -11.265   1.446  -0.559  0.00  0.00    +0.000 A 
ATOM     23  C   UNL     1     -12.061   1.092   0.529  0.00  0.00    +0.000 A 
ATOM     24  C   UNL     1     -11.471   0.759   1.746  0.00  0.00    +0.000 A 
ENDBRANCH  11  19
BRANCH   9  25
ATOM     25  O   UNL     1      -1.436   2.012   0.964  0.00  0.00    +0.000 OA
ATOM     26  H   UNL     1      -0.682   2.617   0.861  0.00  0.00    +0.000 HD
ENDBRANCH   9  25
TORSDOF 3
ENDMDL
MODEL 9
REMARK VINA RESULT:      -6.1      3.622      5.924
REMARK  Name = Lobelin.pdbqt.pdb
REMARK  3 active torsions:
REMARK  status: ('A' for Active; 'I' for Inactive)
REMARK    1  A    between atoms: C_9  and  O_10
REMARK    2  A    between atoms: C_9  and  C_12
REMARK    3  A    between atoms: C_19  and  C_21
REMARK                            x       y       z     vdW  Elec       q    Type
REMARK                         _______ _______ _______ _____ _____    ______ ____
ROOT
ATOM      1  N   UNL     1     -14.025   5.560  -3.333  0.00  0.00    +0.000 N 
ATOM      2  C   UNL     1     -12.977   4.950  -4.145  0.00  0.00    +0.000 C 
ATOM      3  C   UNL     1     -14.764   6.714  -3.837  0.00  0.00    +0.000 C 
ATOM      4  C   UNL     1     -12.795   5.544  -5.431  0.00  0.00    +0.000 C 
ATOM      5  C   UNL     1     -14.399   7.129  -5.154  0.00  0.00    +0.000 C 
ATOM      6  C   UNL     1     -13.404   6.694  -6.213  0.00  0.00    +0.000 C 
ATOM      7  C   UNL     1     -14.247   5.105  -1.979  0.00  0.00    +0.000 C 
ATOM      8  C   UNL     1     -12.207   3.843  -3.696  0.00  0.00    +0.000 C 
ATOM      9  C   UNL     1     -11.460   2.723  -3.250  0.00  0.00    +0.000 C 
ATOM     10  C   UNL     1     -15.773   7.360  -3.078  0.00  0.00    +0.000 C 
ATOM     11  C   UNL     1     -16.819   7.994  -2.321  0.00  0.00    +0.000 C 
ATOM     12  O   UNL     1     -17.916   8.153  -2.837  0.00  0.00    +0.000 OA
ENDROOT
BRANCH   9  13
ATOM     13  C   UNL     1     -12.039   1.413  -2.949  0.00  0.00    +0.000 A 
ATOM     14  C   UNL     1     -11.221   0.300  -2.735  0.00  0.00    +0.000 A 
ATOM     15  C   UNL     1     -11.773  -0.948  -2.448  0.00  0.00    +0.000 A 
ATOM     16  C   UNL     1     -13.154  -1.096  -2.372  0.00  0.00    +0.000 A 
ATOM     17  C   UNL     1     -13.982   0.002  -2.584  0.00  0.00    +0.000 A 
ATOM     18  C   UNL     1     -13.425   1.247  -2.871  0.00  0.00    +0.000 A 
ENDBRANCH   9  13
BRANCH  11  19
ATOM     19  C   UNL     1     -16.523   8.439  -0.948  0.00  0.00    +0.000 A 
ATOM     20  C   UNL     1     -17.348   8.088   0.120  0.00  0.00    +0.000 A 
ATOM     21  C   UNL     1     -17.038   8.519   1.407  0.00  0.00    +0.000 A 
ATOM     22  C   UNL     1     -15.905   9.299   1.626  0.00  0.00    +0.000 A 
ATOM     23  C   UNL     1     -15.080   9.648   0.559  0.00  0.00    +0.000 A 
ATOM     24  C   UNL     1     -15.387   9.217  -0.729  0.00  0.00    +0.000 A 
ENDBRANCH  11  19
BRANCH   9  25
ATOM     25  O   UNL     1     -10.099   2.851  -3.089  0.00  0.00    +0.000 OA
ATOM     26  H   UNL     1      -9.646   1.992  -3.127  0.00  0.00    +0.000 HD
ENDBRANCH   9  25
TORSDOF 3
ENDMDL
