MODEL 1
REMARK VINA RESULT:      -5.4      0.000      0.000
REMARK  Name = LUCANTHONE.pdbqt.pdb
REMARK  5 active torsions:
REMARK  status: ('A' for Active; 'I' for Inactive)
REMARK    1  A    between atoms: C_3  and  N_17
REMARK    2  A    between atoms: N_17  and  C_19
REMARK    3  A    between atoms: C_20  and  N_21
REMARK    4  A    between atoms: N_21  and  C_22
REMARK    5  A    between atoms: N_21  and  C_24
REMARK                            x       y       z     vdW  Elec       q    Type
REMARK                         _______ _______ _______ _____ _____    ______ ____
ROOT
ATOM      1  S   UNL     1     -24.283  14.041   6.129  0.00  0.00    +0.000 S 
ATOM      2  O   UNL     1     -22.327  13.524   9.964  0.00  0.00    +0.000 OA
ATOM      3  C   UNL     1     -21.986  16.084   8.890  0.00  0.00    +0.000 A 
ATOM      4  C   UNL     1     -22.668  15.044   8.198  0.00  0.00    +0.000 A 
ATOM      5  C   UNL     1     -23.369  15.313   7.005  0.00  0.00    +0.000 A 
ATOM      6  C   UNL     1     -23.368  16.639   6.511  0.00  0.00    +0.000 A 
ATOM      7  C   UNL     1     -22.635  13.672   8.782  0.00  0.00    +0.000 A 
ATOM      8  C   UNL     1     -21.994  17.372   8.343  0.00  0.00    +0.000 A 
ATOM      9  C   UNL     1     -22.930  12.475   7.982  0.00  0.00    +0.000 A 
ATOM     10  C   UNL     1     -22.686  17.652   7.177  0.00  0.00    +0.000 A 
ATOM     11  C   UNL     1     -23.626  12.545   6.784  0.00  0.00    +0.000 A 
ATOM     12  C   UNL     1     -24.080  17.061   5.244  0.00  0.00    +0.000 C 
ATOM     13  C   UNL     1     -22.495  11.240   8.474  0.00  0.00    +0.000 A 
ATOM     14  C   UNL     1     -23.875  11.365   6.079  0.00  0.00    +0.000 A 
ATOM     15  C   UNL     1     -22.742  10.071   7.762  0.00  0.00    +0.000 A 
ATOM     16  C   UNL     1     -23.433  10.134   6.557  0.00  0.00    +0.000 A 
ENDROOT
BRANCH   3  17
ATOM     17  N   UNL     1     -21.169  15.821  10.021  0.00  0.00    +0.000 N 
ATOM     18  H   UNL     1     -21.285  14.851  10.350  0.00  0.00    +0.000 HD
BRANCH  17  19
ATOM     19  C   UNL     1     -21.018  16.838  11.048  0.00  0.00    +0.000 C 
ATOM     20  C   UNL     1     -20.858  17.911  12.130  0.00  0.00    +0.000 C 
BRANCH  20  21
ATOM     21  N   UNL     1     -20.695  18.928  13.156  0.00  0.00    +0.000 N 
BRANCH  21  22
ATOM     22  C   UNL     1     -22.009  19.194  13.713  0.00  0.00    +0.000 C 
ATOM     23  C   UNL     1     -23.389  19.475  14.314  0.00  0.00    +0.000 C 
ENDBRANCH  21  22
BRANCH  21  24
ATOM     24  C   UNL     1     -20.277  20.146  12.488  0.00  0.00    +0.000 C 
ATOM     25  C   UNL     1     -19.832  21.441  11.801  0.00  0.00    +0.000 C 
ENDBRANCH  21  24
ENDBRANCH  20  21
ENDBRANCH  17  19
ENDBRANCH   3  17
TORSDOF 5
ENDMDL
MODEL 2
REMARK VINA RESULT:      -5.0     11.082     12.582
REMARK  Name = LUCANTHONE.pdbqt.pdb
REMARK  5 active torsions:
REMARK  status: ('A' for Active; 'I' for Inactive)
REMARK    1  A    between atoms: C_3  and  N_17
REMARK    2  A    between atoms: N_17  and  C_19
REMARK    3  A    between atoms: C_20  and  N_21
REMARK    4  A    between atoms: N_21  and  C_22
REMARK    5  A    between atoms: N_21  and  C_24
REMARK                            x       y       z     vdW  Elec       q    Type
REMARK                         _______ _______ _______ _____ _____    ______ ____
ROOT
ATOM      1  S   UNL     1     -23.136   5.756  17.897  0.00  0.00    +0.000 S 
ATOM      2  O   UNL     1     -23.414  10.075  18.152  0.00  0.00    +0.000 OA
ATOM      3  C   UNL     1     -25.905   8.823  17.939  0.00  0.00    +0.000 A 
ATOM      4  C   UNL     1     -24.677   8.106  17.887  0.00  0.00    +0.000 A 
ATOM      5  C   UNL     1     -24.664   6.696  17.911  0.00  0.00    +0.000 A 
ATOM      6  C   UNL     1     -25.903   6.016  17.977  0.00  0.00    +0.000 A 
ATOM      7  C   UNL     1     -23.408   8.888  17.828  0.00  0.00    +0.000 A 
ATOM      8  C   UNL     1     -27.103   8.100  17.976  0.00  0.00    +0.000 A 
ATOM      9  C   UNL     1     -22.145   8.296  17.365  0.00  0.00    +0.000 A 
ATOM     10  C   UNL     1     -27.105   6.716  18.009  0.00  0.00    +0.000 A 
ATOM     11  C   UNL     1     -21.946   6.924  17.332  0.00  0.00    +0.000 A 
ATOM     12  C   UNL     1     -26.030   4.509  18.008  0.00  0.00    +0.000 C 
ATOM     13  C   UNL     1     -21.128   9.167  16.962  0.00  0.00    +0.000 A 
ATOM     14  C   UNL     1     -20.717   6.431  16.885  0.00  0.00    +0.000 A 
ATOM     15  C   UNL     1     -19.910   8.667  16.511  0.00  0.00    +0.000 A 
ATOM     16  C   UNL     1     -19.705   7.293  16.470  0.00  0.00    +0.000 A 
ENDROOT
BRANCH   3  17
ATOM     17  N   UNL     1     -25.956  10.234  17.791  0.00  0.00    +0.000 N 
ATOM     18  H   UNL     1     -25.067  10.604  17.422  0.00  0.00    +0.000 HD
BRANCH  17  19
ATOM     19  C   UNL     1     -26.621  11.037  18.803  0.00  0.00    +0.000 C 
ATOM     20  C   UNL     1     -27.321  11.884  19.871  0.00  0.00    +0.000 C 
BRANCH  20  21
ATOM     21  N   UNL     1     -27.986  12.677  20.892  0.00  0.00    +0.000 N 
BRANCH  21  22
ATOM     22  C   UNL     1     -27.582  14.058  20.696  0.00  0.00    +0.000 C 
ATOM     23  C   UNL     1     -27.170  15.517  20.484  0.00  0.00    +0.000 C 
ENDBRANCH  21  22
BRANCH  21  24
ATOM     24  C   UNL     1     -27.442  12.268  22.173  0.00  0.00    +0.000 C 
ATOM     25  C   UNL     1     -26.850  11.828  23.516  0.00  0.00    +0.000 C 
ENDBRANCH  21  24
ENDBRANCH  20  21
ENDBRANCH  17  19
ENDBRANCH   3  17
TORSDOF 5
ENDMDL
MODEL 3
REMARK VINA RESULT:      -4.8      3.870      7.387
REMARK  Name = LUCANTHONE.pdbqt.pdb
REMARK  5 active torsions:
REMARK  status: ('A' for Active; 'I' for Inactive)
REMARK    1  A    between atoms: C_3  and  N_17
REMARK    2  A    between atoms: N_17  and  C_19
REMARK    3  A    between atoms: C_20  and  N_21
REMARK    4  A    between atoms: N_21  and  C_22
REMARK    5  A    between atoms: N_21  and  C_24
REMARK                            x       y       z     vdW  Elec       q    Type
REMARK                         _______ _______ _______ _____ _____    ______ ____
ROOT
ATOM      1  S   UNL     1     -24.472  16.978  11.444  0.00  0.00    +0.000 S 
ATOM      2  O   UNL     1     -25.573  13.299   9.431  0.00  0.00    +0.000 OA
ATOM      3  C   UNL     1     -22.879  13.973   9.096  0.00  0.00    +0.000 A 
ATOM      4  C   UNL     1     -23.800  14.805   9.793  0.00  0.00    +0.000 A 
ATOM      5  C   UNL     1     -23.351  15.933  10.512  0.00  0.00    +0.000 A 
ATOM      6  C   UNL     1     -21.964  16.217  10.513  0.00  0.00    +0.000 A 
ATOM      7  C   UNL     1     -25.246  14.440   9.756  0.00  0.00    +0.000 A 
ATOM      8  C   UNL     1     -21.523  14.317   9.108  0.00  0.00    +0.000 A 
ATOM      9  C   UNL     1     -26.305  15.409  10.068  0.00  0.00    +0.000 A 
ATOM     10  C   UNL     1     -21.066  15.415   9.817  0.00  0.00    +0.000 A 
ATOM     11  C   UNL     1     -26.052  16.571  10.782  0.00  0.00    +0.000 A 
ATOM     12  C   UNL     1     -21.352  17.393  11.243  0.00  0.00    +0.000 C 
ATOM     13  C   UNL     1     -27.602  15.118   9.630  0.00  0.00    +0.000 A 
ATOM     14  C   UNL     1     -27.109  17.445  11.047  0.00  0.00    +0.000 A 
ATOM     15  C   UNL     1     -28.647  15.998   9.893  0.00  0.00    +0.000 A 
ATOM     16  C   UNL     1     -28.400  17.168  10.602  0.00  0.00    +0.000 A 
ENDROOT
BRANCH   3  17
ATOM     17  N   UNL     1     -23.314  12.909   8.264  0.00  0.00    +0.000 N 
ATOM     18  H   UNL     1     -22.919  12.007   8.571  0.00  0.00    +0.000 HD
BRANCH  17  19
ATOM     19  C   UNL     1     -23.412  13.116   6.829  0.00  0.00    +0.000 C 
ATOM     20  C   UNL     1     -23.515  13.336   5.316  0.00  0.00    +0.000 C 
BRANCH  20  21
ATOM     21  N   UNL     1     -23.606  13.555   3.881  0.00  0.00    +0.000 N 
BRANCH  21  22
ATOM     22  C   UNL     1     -22.251  13.685   3.378  0.00  0.00    +0.000 C 
ATOM     23  C   UNL     1     -20.826  13.831   2.836  0.00  0.00    +0.000 C 
ENDBRANCH  21  22
BRANCH  21  24
ATOM     24  C   UNL     1     -24.242  14.843   3.685  0.00  0.00    +0.000 C 
ATOM     25  C   UNL     1     -24.915  16.200   3.458  0.00  0.00    +0.000 C 
ENDBRANCH  21  24
ENDBRANCH  20  21
ENDBRANCH  17  19
ENDBRANCH   3  17
TORSDOF 5
ENDMDL
MODEL 4
REMARK VINA RESULT:      -4.8     19.505     21.235
REMARK  Name = LUCANTHONE.pdbqt.pdb
REMARK  5 active torsions:
REMARK  status: ('A' for Active; 'I' for Inactive)
REMARK    1  A    between atoms: C_3  and  N_17
REMARK    2  A    between atoms: N_17  and  C_19
REMARK    3  A    between atoms: C_20  and  N_21
REMARK    4  A    between atoms: N_21  and  C_22
REMARK    5  A    between atoms: N_21  and  C_24
REMARK                            x       y       z     vdW  Elec       q    Type
REMARK                         _______ _______ _______ _____ _____    ______ ____
ROOT
ATOM      1  S   UNL     1     -14.021  -1.060  -0.426  0.00  0.00    +0.000 S 
ATOM      2  O   UNL     1     -11.019   2.065  -0.291  0.00  0.00    +0.000 OA
ATOM      3  C   UNL     1     -10.967   0.392   1.949  0.00  0.00    +0.000 A 
ATOM      4  C   UNL     1     -11.938   0.266   0.916  0.00  0.00    +0.000 A 
ATOM      5  C   UNL     1     -12.816  -0.837   0.885  0.00  0.00    +0.000 A 
ATOM      6  C   UNL     1     -12.712  -1.807   1.911  0.00  0.00    +0.000 A 
ATOM      7  C   UNL     1     -11.986   1.320  -0.138  0.00  0.00    +0.000 A 
ATOM      8  C   UNL     1     -10.925  -0.581   2.954  0.00  0.00    +0.000 A 
ATOM      9  C   UNL     1     -13.167   1.523  -0.988  0.00  0.00    +0.000 A 
ATOM     10  C   UNL     1     -11.775  -1.674   2.930  0.00  0.00    +0.000 A 
ATOM     11  C   UNL     1     -14.133   0.540  -1.151  0.00  0.00    +0.000 A 
ATOM     12  C   UNL     1     -13.591  -3.035   1.994  0.00  0.00    +0.000 C 
ATOM     13  C   UNL     1     -13.289   2.749  -1.650  0.00  0.00    +0.000 A 
ATOM     14  C   UNL     1     -15.227   0.801  -1.979  0.00  0.00    +0.000 A 
ATOM     15  C   UNL     1     -14.386   3.002  -2.467  0.00  0.00    +0.000 A 
ATOM     16  C   UNL     1     -15.361   2.025  -2.631  0.00  0.00    +0.000 A 
ENDROOT
BRANCH   3  17
ATOM     17  N   UNL     1     -10.157   1.551   2.077  0.00  0.00    +0.000 N 
ATOM     18  H   UNL     1     -10.250   2.166   1.255  0.00  0.00    +0.000 HD
BRANCH  17  19
ATOM     19  C   UNL     1      -8.826   1.435   2.650  0.00  0.00    +0.000 C 
ATOM     20  C   UNL     1      -7.424   1.315   3.255  0.00  0.00    +0.000 C 
BRANCH  20  21
ATOM     21  N   UNL     1      -6.089   1.209   3.822  0.00  0.00    +0.000 N 
BRANCH  21  22
ATOM     22  C   UNL     1      -5.200   1.986   2.978  0.00  0.00    +0.000 C 
ATOM     23  C   UNL     1      -4.253   2.810   2.100  0.00  0.00    +0.000 C 
ENDBRANCH  21  22
BRANCH  21  24
ATOM     24  C   UNL     1      -5.677  -0.175   3.689  0.00  0.00    +0.000 C 
ATOM     25  C   UNL     1      -5.262  -1.643   3.546  0.00  0.00    +0.000 C 
ENDBRANCH  21  24
ENDBRANCH  20  21
ENDBRANCH  17  19
ENDBRANCH   3  17
TORSDOF 5
ENDMDL
MODEL 5
REMARK VINA RESULT:      -4.6      3.965      7.955
REMARK  Name = LUCANTHONE.pdbqt.pdb
REMARK  5 active torsions:
REMARK  status: ('A' for Active; 'I' for Inactive)
REMARK    1  A    between atoms: C_3  and  N_17
REMARK    2  A    between atoms: N_17  and  C_19
REMARK    3  A    between atoms: C_20  and  N_21
REMARK    4  A    between atoms: N_21  and  C_22
REMARK    5  A    between atoms: N_21  and  C_24
REMARK                            x       y       z     vdW  Elec       q    Type
REMARK                         _______ _______ _______ _____ _____    ______ ____
ROOT
ATOM      1  S   UNL     1     -24.309  16.914  11.404  0.00  0.00    +0.000 S 
ATOM      2  O   UNL     1     -26.002  13.409   9.496  0.00  0.00    +0.000 OA
ATOM      3  C   UNL     1     -23.271  13.729   8.984  0.00  0.00    +0.000 A 
ATOM      4  C   UNL     1     -24.030  14.673   9.731  0.00  0.00    +0.000 A 
ATOM      5  C   UNL     1     -23.394  15.733  10.411  0.00  0.00    +0.000 A 
ATOM      6  C   UNL     1     -21.986  15.837  10.321  0.00  0.00    +0.000 A 
ATOM      7  C   UNL     1     -25.510  14.497   9.790  0.00  0.00    +0.000 A 
ATOM      8  C   UNL     1     -21.884  13.895   8.907  0.00  0.00    +0.000 A 
ATOM      9  C   UNL     1     -26.414  15.595  10.161  0.00  0.00    +0.000 A 
ATOM     10  C   UNL     1     -21.245  14.925   9.576  0.00  0.00    +0.000 A 
ATOM     11  C   UNL     1     -25.967  16.715  10.848  0.00  0.00    +0.000 A 
ATOM     12  C   UNL     1     -21.181  16.923  11.001  0.00  0.00    +0.000 C 
ATOM     13  C   UNL     1     -27.762  15.474   9.809  0.00  0.00    +0.000 A 
ATOM     14  C   UNL     1     -26.884  17.717  11.173  0.00  0.00    +0.000 A 
ATOM     15  C   UNL     1     -28.667  16.481  10.131  0.00  0.00    +0.000 A 
ATOM     16  C   UNL     1     -28.226  17.609  10.813  0.00  0.00    +0.000 A 
ENDROOT
BRANCH   3  17
ATOM     17  N   UNL     1     -23.892  12.730   8.189  0.00  0.00    +0.000 N 
ATOM     18  H   UNL     1     -23.696  11.786   8.555  0.00  0.00    +0.000 HD
BRANCH  17  19
ATOM     19  C   UNL     1     -23.910  12.874   6.744  0.00  0.00    +0.000 C 
ATOM     20  C   UNL     1     -23.927  13.025   5.219  0.00  0.00    +0.000 C 
BRANCH  20  21
ATOM     21  N   UNL     1     -23.934  13.176   3.773  0.00  0.00    +0.000 N 
BRANCH  21  22
ATOM     22  C   UNL     1     -25.322  13.217   3.351  0.00  0.00    +0.000 C 
ATOM     23  C   UNL     1     -26.783  13.253   2.892  0.00  0.00    +0.000 C 
ENDBRANCH  21  22
BRANCH  21  24
ATOM     24  C   UNL     1     -23.369  11.963   3.214  0.00  0.00    +0.000 C 
ATOM     25  C   UNL     1     -22.774  10.690   2.605  0.00  0.00    +0.000 C 
ENDBRANCH  21  24
ENDBRANCH  20  21
ENDBRANCH  17  19
ENDBRANCH   3  17
TORSDOF 5
ENDMDL
MODEL 6
REMARK VINA RESULT:      -4.4     16.097     19.243
REMARK  Name = LUCANTHONE.pdbqt.pdb
REMARK  5 active torsions:
REMARK  status: ('A' for Active; 'I' for Inactive)
REMARK    1  A    between atoms: C_3  and  N_17
REMARK    2  A    between atoms: N_17  and  C_19
REMARK    3  A    between atoms: C_20  and  N_21
REMARK    4  A    between atoms: N_21  and  C_22
REMARK    5  A    between atoms: N_21  and  C_24
REMARK                            x       y       z     vdW  Elec       q    Type
REMARK                         _______ _______ _______ _____ _____    ______ ____
ROOT
ATOM      1  S   UNL     1     -18.011   3.620  -2.239  0.00  0.00    +0.000 S 
ATOM      2  O   UNL     1     -13.701   3.486  -2.686  0.00  0.00    +0.000 OA
ATOM      3  C   UNL     1     -14.785   1.084  -1.751  0.00  0.00    +0.000 A 
ATOM      4  C   UNL     1     -15.572   2.248  -1.976  0.00  0.00    +0.000 A 
ATOM      5  C   UNL     1     -16.980   2.188  -1.912  0.00  0.00    +0.000 A 
ATOM      6  C   UNL     1     -17.585   0.945  -1.609  0.00  0.00    +0.000 A 
ATOM      7  C   UNL     1     -14.868   3.522  -2.301  0.00  0.00    +0.000 A 
ATOM      8  C   UNL     1     -15.434  -0.113  -1.428  0.00  0.00    +0.000 A 
ATOM      9  C   UNL     1     -15.514   4.833  -2.147  0.00  0.00    +0.000 A 
ATOM     10  C   UNL     1     -16.815  -0.189  -1.370  0.00  0.00    +0.000 A 
ATOM     11  C   UNL     1     -16.893   4.970  -2.081  0.00  0.00    +0.000 A 
ATOM     12  C   UNL     1     -19.082   0.745  -1.510  0.00  0.00    +0.000 C 
ATOM     13  C   UNL     1     -14.688   5.960  -2.080  0.00  0.00    +0.000 A 
ATOM     14  C   UNL     1     -17.438   6.248  -1.940  0.00  0.00    +0.000 A 
ATOM     15  C   UNL     1     -15.240   7.229  -1.933  0.00  0.00    +0.000 A 
ATOM     16  C   UNL     1     -16.620   7.374  -1.859  0.00  0.00    +0.000 A 
ENDROOT
BRANCH   3  17
ATOM     17  N   UNL     1     -13.368   1.140  -1.684  0.00  0.00    +0.000 N 
ATOM     18  H   UNL     1     -12.935   0.612  -2.458  0.00  0.00    +0.000 HD
BRANCH  17  19
ATOM     19  C   UNL     1     -12.708   1.053  -0.393  0.00  0.00    +0.000 C 
ATOM     20  C   UNL     1     -12.012   0.962   0.970  0.00  0.00    +0.000 C 
BRANCH  20  21
ATOM     21  N   UNL     1     -11.350   0.888   2.262  0.00  0.00    +0.000 N 
BRANCH  21  22
ATOM     22  C   UNL     1      -9.953   1.222   2.050  0.00  0.00    +0.000 C 
ATOM     23  C   UNL     1      -8.476   1.568   1.841  0.00  0.00    +0.000 C 
ENDBRANCH  21  22
BRANCH  21  24
ATOM     24  C   UNL     1     -11.382  -0.501   2.679  0.00  0.00    +0.000 C 
ATOM     25  C   UNL     1     -11.436  -1.969   3.113  0.00  0.00    +0.000 C 
ENDBRANCH  21  24
ENDBRANCH  20  21
ENDBRANCH  17  19
ENDBRANCH   3  17
TORSDOF 5
ENDMDL
MODEL 7
REMARK VINA RESULT:      -4.3     17.664     19.327
REMARK  Name = LUCANTHONE.pdbqt.pdb
REMARK  5 active torsions:
REMARK  status: ('A' for Active; 'I' for Inactive)
REMARK    1  A    between atoms: C_3  and  N_17
REMARK    2  A    between atoms: N_17  and  C_19
REMARK    3  A    between atoms: C_20  and  N_21
REMARK    4  A    between atoms: N_21  and  C_22
REMARK    5  A    between atoms: N_21  and  C_24
REMARK                            x       y       z     vdW  Elec       q    Type
REMARK                         _______ _______ _______ _____ _____    ______ ____
ROOT
ATOM      1  S   UNL     1      -5.612  18.476  12.223  0.00  0.00    +0.000 S 
ATOM      2  O   UNL     1      -2.840  15.801  10.233  0.00  0.00    +0.000 OA
ATOM      3  C   UNL     1      -3.838  17.800   8.552  0.00  0.00    +0.000 A 
ATOM      4  C   UNL     1      -4.268  17.642   9.900  0.00  0.00    +0.000 A 
ATOM      5  C   UNL     1      -5.090  18.611  10.512  0.00  0.00    +0.000 A 
ATOM      6  C   UNL     1      -5.483  19.736   9.748  0.00  0.00    +0.000 A 
ATOM      7  C   UNL     1      -3.807  16.437  10.649  0.00  0.00    +0.000 A 
ATOM      8  C   UNL     1      -4.279  18.917   7.834  0.00  0.00    +0.000 A 
ATOM      9  C   UNL     1      -4.491  15.960  11.859  0.00  0.00    +0.000 A 
ATOM     10  C   UNL     1      -5.079  19.881   8.424  0.00  0.00    +0.000 A 
ATOM     11  C   UNL     1      -5.329  16.779  12.601  0.00  0.00    +0.000 A 
ATOM     12  C   UNL     1      -6.362  20.845  10.282  0.00  0.00    +0.000 C 
ATOM     13  C   UNL     1      -4.260  14.639  12.257  0.00  0.00    +0.000 A 
ATOM     14  C   UNL     1      -5.942  16.260  13.744  0.00  0.00    +0.000 A 
ATOM     15  C   UNL     1      -4.881  14.129  13.393  0.00  0.00    +0.000 A 
ATOM     16  C   UNL     1      -5.727  14.941  14.139  0.00  0.00    +0.000 A 
ENDROOT
BRANCH   3  17
ATOM     17  N   UNL     1      -3.117  16.784   7.872  0.00  0.00    +0.000 N 
ATOM     18  H   UNL     1      -2.109  16.835   8.083  0.00  0.00    +0.000 HD
BRANCH  17  19
ATOM     19  C   UNL     1      -3.476  16.443   6.506  0.00  0.00    +0.000 C 
ATOM     20  C   UNL     1      -3.852  16.084   5.065  0.00  0.00    +0.000 C 
BRANCH  20  21
ATOM     21  N   UNL     1      -4.205  15.754   3.693  0.00  0.00    +0.000 N 
BRANCH  21  22
ATOM     22  C   UNL     1      -3.000  15.276   3.041  0.00  0.00    +0.000 C 
ATOM     23  C   UNL     1      -1.737  14.767   2.341  0.00  0.00    +0.000 C 
ENDBRANCH  21  22
BRANCH  21  24
ATOM     24  C   UNL     1      -4.565  16.995   3.034  0.00  0.00    +0.000 C 
ATOM     25  C   UNL     1      -4.949  18.295   2.321  0.00  0.00    +0.000 C 
ENDBRANCH  21  24
ENDBRANCH  20  21
ENDBRANCH  17  19
ENDBRANCH   3  17
TORSDOF 5
ENDMDL
MODEL 8
REMARK VINA RESULT:      -4.2     10.458     12.143
REMARK  Name = LUCANTHONE.pdbqt.pdb
REMARK  5 active torsions:
REMARK  status: ('A' for Active; 'I' for Inactive)
REMARK    1  A    between atoms: C_3  and  N_17
REMARK    2  A    between atoms: N_17  and  C_19
REMARK    3  A    between atoms: C_20  and  N_21
REMARK    4  A    between atoms: N_21  and  C_22
REMARK    5  A    between atoms: N_21  and  C_24
REMARK                            x       y       z     vdW  Elec       q    Type
REMARK                         _______ _______ _______ _____ _____    ______ ____
ROOT
ATOM      1  S   UNL     1     -29.335   4.123  12.454  0.00  0.00    +0.000 S 
ATOM      2  O   UNL     1     -25.258   5.474  11.862  0.00  0.00    +0.000 OA
ATOM      3  C   UNL     1     -26.240   6.028  14.422  0.00  0.00    +0.000 A 
ATOM      4  C   UNL     1     -27.038   5.434  13.403  0.00  0.00    +0.000 A 
ATOM      5  C   UNL     1     -28.319   4.924  13.697  0.00  0.00    +0.000 A 
ATOM      6  C   UNL     1     -28.793   5.028  15.027  0.00  0.00    +0.000 A 
ATOM      7  C   UNL     1     -26.471   5.349  12.026  0.00  0.00    +0.000 A 
ATOM      8  C   UNL     1     -26.769   6.130  15.713  0.00  0.00    +0.000 A 
ATOM      9  C   UNL     1     -27.319   5.150  10.843  0.00  0.00    +0.000 A 
ATOM     10  C   UNL     1     -28.022   5.625  16.019  0.00  0.00    +0.000 A 
ATOM     11  C   UNL     1     -28.606   4.642  10.938  0.00  0.00    +0.000 A 
ATOM     12  C   UNL     1     -30.147   4.522  15.475  0.00  0.00    +0.000 C 
ATOM     13  C   UNL     1     -26.781   5.480   9.594  0.00  0.00    +0.000 A 
ATOM     14  C   UNL     1     -29.354   4.474   9.770  0.00  0.00    +0.000 A 
ATOM     15  C   UNL     1     -27.535   5.315   8.437  0.00  0.00    +0.000 A 
ATOM     16  C   UNL     1     -28.829   4.813   8.525  0.00  0.00    +0.000 A 
ENDROOT
BRANCH   3  17
ATOM     17  N   UNL     1     -25.003   6.661  14.131  0.00  0.00    +0.000 N 
ATOM     18  H   UNL     1     -24.560   6.251  13.295  0.00  0.00    +0.000 HD
BRANCH  17  19
ATOM     19  C   UNL     1     -24.114   7.030  15.219  0.00  0.00    +0.000 C 
ATOM     20  C   UNL     1     -23.177   7.417  16.368  0.00  0.00    +0.000 C 
BRANCH  20  21
ATOM     21  N   UNL     1     -22.297   7.784  17.466  0.00  0.00    +0.000 N 
BRANCH  21  22
ATOM     22  C   UNL     1     -21.077   8.311  16.882  0.00  0.00    +0.000 C 
ATOM     23  C   UNL     1     -19.782   8.855  16.273  0.00  0.00    +0.000 C 
ENDBRANCH  21  22
BRANCH  21  24
ATOM     24  C   UNL     1     -21.931   6.558  18.148  0.00  0.00    +0.000 C 
ATOM     25  C   UNL     1     -21.541   5.254  18.850  0.00  0.00    +0.000 C 
ENDBRANCH  21  24
ENDBRANCH  20  21
ENDBRANCH  17  19
ENDBRANCH   3  17
TORSDOF 5
ENDMDL
MODEL 9
REMARK VINA RESULT:      -4.2     17.112     19.567
REMARK  Name = LUCANTHONE.pdbqt.pdb
REMARK  5 active torsions:
REMARK  status: ('A' for Active; 'I' for Inactive)
REMARK    1  A    between atoms: C_3  and  N_17
REMARK    2  A    between atoms: N_17  and  C_19
REMARK    3  A    between atoms: C_20  and  N_21
REMARK    4  A    between atoms: N_21  and  C_22
REMARK    5  A    between atoms: N_21  and  C_24
REMARK                            x       y       z     vdW  Elec       q    Type
REMARK                         _______ _______ _______ _____ _____    ______ ____
ROOT
ATOM      1  S   UNL     1      -6.516  19.839  12.263  0.00  0.00    +0.000 S 
ATOM      2  O   UNL     1      -4.799  16.438  14.334  0.00  0.00    +0.000 OA
ATOM      3  C   UNL     1      -4.505  16.298  11.556  0.00  0.00    +0.000 A 
ATOM      4  C   UNL     1      -5.219  17.346  12.203  0.00  0.00    +0.000 A 
ATOM      5  C   UNL     1      -5.658  18.473  11.476  0.00  0.00    +0.000 A 
ATOM      6  C   UNL     1      -5.380  18.527  10.090  0.00  0.00    +0.000 A 
ATOM      7  C   UNL     1      -5.469  17.227  13.668  0.00  0.00    +0.000 A 
ATOM      8  C   UNL     1      -4.281  16.390  10.178  0.00  0.00    +0.000 A 
ATOM      9  C   UNL     1      -6.514  18.004  14.348  0.00  0.00    +0.000 A 
ATOM     10  C   UNL     1      -4.699  17.494   9.454  0.00  0.00    +0.000 A 
ATOM     11  C   UNL     1      -7.057  19.152  13.791  0.00  0.00    +0.000 A 
ATOM     12  C   UNL     1      -5.794  19.676   9.197  0.00  0.00    +0.000 C 
ATOM     13  C   UNL     1      -6.948  17.554  15.600  0.00  0.00    +0.000 A 
ATOM     14  C   UNL     1      -8.044  19.844  14.497  0.00  0.00    +0.000 A 
ATOM     15  C   UNL     1      -7.937  18.245  16.293  0.00  0.00    +0.000 A 
ATOM     16  C   UNL     1      -8.490  19.394  15.738  0.00  0.00    +0.000 A 
ENDROOT
BRANCH   3  17
ATOM     17  N   UNL     1      -4.162  15.097  12.232  0.00  0.00    +0.000 N 
ATOM     18  H   UNL     1      -4.479  15.116  13.213  0.00  0.00    +0.000 HD
BRANCH  17  19
ATOM     19  C   UNL     1      -2.872  14.478  11.981  0.00  0.00    +0.000 C 
ATOM     20  C   UNL     1      -1.511  13.824  11.718  0.00  0.00    +0.000 C 
BRANCH  20  21
ATOM     21  N   UNL     1      -0.215  13.212  11.476  0.00  0.00    +0.000 N 
BRANCH  21  22
ATOM     22  C   UNL     1      -0.051  12.149  12.450  0.00  0.00    +0.000 C 
ATOM     23  C   UNL     1       0.134  11.023  13.471  0.00  0.00    +0.000 C 
ENDBRANCH  21  22
BRANCH  21  24
ATOM     24  C   UNL     1       0.792  14.210  11.782  0.00  0.00    +0.000 C 
ATOM     25  C   UNL     1       1.871  15.250  12.100  0.00  0.00    +0.000 C 
ENDBRANCH  21  24
ENDBRANCH  20  21
ENDBRANCH  17  19
ENDBRANCH   3  17
TORSDOF 5
ENDMDL
