REMARK  Name = LUCANTHONE.pdbqt.pdb
REMARK  5 active torsions:
REMARK  status: ('A' for Active; 'I' for Inactive)
REMARK    1  A    between atoms: C_3  and  N_17
REMARK    2  A    between atoms: N_17  and  C_19
REMARK    3  A    between atoms: C_20  and  N_21
REMARK    4  A    between atoms: N_21  and  C_22
REMARK    5  A    between atoms: N_21  and  C_24
REMARK                            x       y       z     vdW  Elec       q    Type
REMARK                         _______ _______ _______ _____ _____    ______ ____
ROOT
ATOM      1  S   UNL     1      -3.585   1.458   0.729  0.00  0.00    +0.000 S 
ATOM      2  O   UNL     1      -0.870  -1.901   0.350  0.00  0.00    +0.000 OA
ATOM      3  C   UNL     1       0.307   0.546  -0.320  0.00  0.00    +0.000 A 
ATOM      4  C   UNL     1      -1.067   0.423   0.031  0.00  0.00    +0.000 A 
ATOM      5  C   UNL     1      -1.863   1.569   0.237  0.00  0.00    +0.000 A 
ATOM      6  C   UNL     1      -1.262   2.840   0.076  0.00  0.00    +0.000 A 
ATOM      7  C   UNL     1      -1.632  -0.948   0.193  0.00  0.00    +0.000 A 
ATOM      8  C   UNL     1       0.843   1.827  -0.493  0.00  0.00    +0.000 A 
ATOM      9  C   UNL     1      -3.077  -1.209   0.142  0.00  0.00    +0.000 A 
ATOM     10  C   UNL     1       0.076   2.961  -0.285  0.00  0.00    +0.000 A 
ATOM     11  C   UNL     1      -4.013  -0.204   0.337  0.00  0.00    +0.000 A 
ATOM     12  C   UNL     1      -2.002   4.146   0.267  0.00  0.00    +0.000 C 
ATOM     13  C   UNL     1      -3.492  -2.523  -0.100  0.00  0.00    +0.000 A 
ATOM     14  C   UNL     1      -5.371  -0.526   0.280  0.00  0.00    +0.000 A 
ATOM     15  C   UNL     1      -4.847  -2.833  -0.162  0.00  0.00    +0.000 A 
ATOM     16  C   UNL     1      -5.791  -1.830   0.026  0.00  0.00    +0.000 A 
ENDROOT
BRANCH   3  17
ATOM     17  N   UNL     1       1.098  -0.584  -0.656  0.00  0.00    +0.000 N 
ATOM     18  H   UNL     1       0.713  -1.447  -0.243  0.00  0.00    +0.000 HD
BRANCH  17  19
ATOM     19  C   UNL     1       2.546  -0.465  -0.673  0.00  0.00    +0.000 C 
ATOM     20  C   UNL     1       4.073  -0.339  -0.689  0.00  0.00    +0.000 C 
BRANCH  20  21
ATOM     21  N   UNL     1       5.521  -0.209  -0.699  0.00  0.00    +0.000 N 
BRANCH  21  22
ATOM     22  C   UNL     1       6.071  -1.477  -0.256  0.00  0.00    +0.000 C 
ATOM     23  C   UNL     1       6.653  -2.819   0.197  0.00  0.00    +0.000 C 
ENDBRANCH  21  22
BRANCH  21  24
ATOM     24  C   UNL     1       5.869   0.767   0.316  0.00  0.00    +0.000 C 
ATOM     25  C   UNL     1       6.225   1.812   1.378  0.00  0.00    +0.000 C 
ENDBRANCH  21  24
ENDBRANCH  20  21
ENDBRANCH  17  19
ENDBRANCH   3  17
TORSDOF 5
