MODEL 1
REMARK VINA RESULT:      -5.5      0.000      0.000
REMARK  Name = MeIQx.pdbqt.pdb
REMARK  0 active torsions:
REMARK  status: ('A' for Active; 'I' for Inactive)
REMARK                            x       y       z     vdW  Elec       q    Type
REMARK                         _______ _______ _______ _____ _____    ______ ____
ROOT
ATOM      1  N   UNL     1     -23.146  12.278   7.333  0.00  0.00    +0.000 N 
ATOM      2  N   UNL     1     -21.995  12.601   9.197  0.00  0.00    +0.000 NA
ATOM      3  N   UNL     1     -21.353  15.276  10.223  0.00  0.00    +0.000 NA
ATOM      4  N   UNL     1     -22.280  17.499   8.707  0.00  0.00    +0.000 NA
ATOM      5  C   UNL     1     -23.064  13.639   7.458  0.00  0.00    +0.000 A 
ATOM      6  C   UNL     1     -22.336  13.821   8.634  0.00  0.00    +0.000 A 
ATOM      7  C   UNL     1     -22.063  15.141   9.071  0.00  0.00    +0.000 A 
ATOM      8  C   UNL     1     -22.531  16.238   8.307  0.00  0.00    +0.000 A 
ATOM      9  C   UNL     1     -22.487  11.682   8.396  0.00  0.00    +0.000 A 
ATOM     10  C   UNL     1     -23.540  14.700   6.685  0.00  0.00    +0.000 A 
ATOM     11  C   UNL     1     -23.249  15.989   7.146  0.00  0.00    +0.000 A 
ATOM     12  C   UNL     1     -23.843  11.589   6.286  0.00  0.00    +0.000 C 
ATOM     13  C   UNL     1     -21.112  16.547  10.606  0.00  0.00    +0.000 A 
ATOM     14  C   UNL     1     -21.566  17.631   9.862  0.00  0.00    +0.000 A 
ATOM     15  C   UNL     1     -20.335  16.781  11.871  0.00  0.00    +0.000 C 
ATOM     16  N   UNL     1     -22.375  10.346   8.573  0.00  0.00    +0.000 N 
ATOM     17  H   UNL     1     -22.054  10.006   9.474  0.00  0.00    +0.000 HD
ATOM     18  H   UNL     1     -22.958   9.700   8.045  0.00  0.00    +0.000 HD
ENDROOT
TORSDOF 0
ENDMDL
MODEL 2
REMARK VINA RESULT:      -4.9     10.894     12.837
REMARK  Name = MeIQx.pdbqt.pdb
REMARK  0 active torsions:
REMARK  status: ('A' for Active; 'I' for Inactive)
REMARK                            x       y       z     vdW  Elec       q    Type
REMARK                         _______ _______ _______ _____ _____    ______ ____
ROOT
ATOM      1  N   UNL     1     -21.780   2.769  17.715  0.00  0.00    +0.000 N 
ATOM      2  N   UNL     1     -23.219   3.945  16.511  0.00  0.00    +0.000 NA
ATOM      3  N   UNL     1     -23.071   6.867  16.267  0.00  0.00    +0.000 NA
ATOM      4  N   UNL     1     -20.965   8.176  17.665  0.00  0.00    +0.000 NA
ATOM      5  C   UNL     1     -21.373   4.068  17.860  0.00  0.00    +0.000 A 
ATOM      6  C   UNL     1     -22.290   4.791  17.096  0.00  0.00    +0.000 A 
ATOM      7  C   UNL     1     -22.158   6.200  17.023  0.00  0.00    +0.000 A 
ATOM      8  C   UNL     1     -21.105   6.838  17.724  0.00  0.00    +0.000 A 
ATOM      9  C   UNL     1     -22.899   2.730  16.898  0.00  0.00    +0.000 A 
ATOM     10  C   UNL     1     -20.324   4.669  18.559  0.00  0.00    +0.000 A 
ATOM     11  C   UNL     1     -20.226   6.061  18.465  0.00  0.00    +0.000 A 
ATOM     12  C   UNL     1     -21.121   1.631  18.288  0.00  0.00    +0.000 C 
ATOM     13  C   UNL     1     -22.913   8.206  16.222  0.00  0.00    +0.000 A 
ATOM     14  C   UNL     1     -21.882   8.843  16.907  0.00  0.00    +0.000 A 
ATOM     15  C   UNL     1     -23.879   9.016  15.405  0.00  0.00    +0.000 C 
ATOM     16  N   UNL     1     -23.556   1.599  16.558  0.00  0.00    +0.000 N 
ATOM     17  H   UNL     1     -24.233   1.646  15.803  0.00  0.00    +0.000 HD
ATOM     18  H   UNL     1     -23.134   0.685  16.708  0.00  0.00    +0.000 HD
ENDROOT
TORSDOF 0
ENDMDL
MODEL 3
REMARK VINA RESULT:      -4.4      1.489      5.480
REMARK  Name = MeIQx.pdbqt.pdb
REMARK  0 active torsions:
REMARK  status: ('A' for Active; 'I' for Inactive)
REMARK                            x       y       z     vdW  Elec       q    Type
REMARK                         _______ _______ _______ _____ _____    ______ ____
ROOT
ATOM      1  N   UNL     1     -22.668  17.852   7.854  0.00  0.00    +0.000 N 
ATOM      2  N   UNL     1     -23.689  16.398   6.532  0.00  0.00    +0.000 NA
ATOM      3  N   UNL     1     -23.520  13.494   6.936  0.00  0.00    +0.000 NA
ATOM      4  N   UNL     1     -21.962  12.583   9.136  0.00  0.00    +0.000 NA
ATOM      5  C   UNL     1     -22.344  16.627   8.371  0.00  0.00    +0.000 A 
ATOM      6  C   UNL     1     -22.994  15.727   7.527  0.00  0.00    +0.000 A 
ATOM      7  C   UNL     1     -22.870  14.338   7.781  0.00  0.00    +0.000 A 
ATOM      8  C   UNL     1     -22.092  13.899   8.880  0.00  0.00    +0.000 A 
ATOM      9  C   UNL     1     -23.477  17.678   6.742  0.00  0.00    +0.000 A 
ATOM     10  C   UNL     1     -21.572  16.223   9.463  0.00  0.00    +0.000 A 
ATOM     11  C   UNL     1     -21.470  14.846   9.683  0.00  0.00    +0.000 A 
ATOM     12  C   UNL     1     -22.263  19.112   8.407  0.00  0.00    +0.000 C 
ATOM     13  C   UNL     1     -23.378  12.181   7.210  0.00  0.00    +0.000 A 
ATOM     14  C   UNL     1     -22.615  11.739   8.286  0.00  0.00    +0.000 A 
ATOM     15  C   UNL     1     -24.068  11.184   6.323  0.00  0.00    +0.000 C 
ATOM     16  N   UNL     1     -23.970  18.688   5.992  0.00  0.00    +0.000 N 
ATOM     17  H   UNL     1     -24.708  18.477   5.327  0.00  0.00    +0.000 HD
ATOM     18  H   UNL     1     -23.951  19.648   6.331  0.00  0.00    +0.000 HD
ENDROOT
TORSDOF 0
ENDMDL
MODEL 4
REMARK VINA RESULT:      -4.4     23.698     24.475
REMARK  Name = MeIQx.pdbqt.pdb
REMARK  0 active torsions:
REMARK  status: ('A' for Active; 'I' for Inactive)
REMARK                            x       y       z     vdW  Elec       q    Type
REMARK                         _______ _______ _______ _____ _____    ______ ____
ROOT
ATOM      1  N   UNL     1      -1.657   7.724  -1.046  0.00  0.00    +0.000 N 
ATOM      2  N   UNL     1       0.371   8.155  -0.269  0.00  0.00    +0.000 NA
ATOM      3  N   UNL     1       1.243   7.363   2.421  0.00  0.00    +0.000 NA
ATOM      4  N   UNL     1      -0.650   5.989   4.041  0.00  0.00    +0.000 NA
ATOM      5  C   UNL     1      -1.653   7.202   0.220  0.00  0.00    +0.000 A 
ATOM      6  C   UNL     1      -0.370   7.483   0.691  0.00  0.00    +0.000 A 
ATOM      7  C   UNL     1      -0.017   7.071   2.000  0.00  0.00    +0.000 A 
ATOM      8  C   UNL     1      -0.969   6.388   2.795  0.00  0.00    +0.000 A 
ATOM      9  C   UNL     1      -0.423   8.296  -1.307  0.00  0.00    +0.000 A 
ATOM     10  C   UNL     1      -2.611   6.528   0.980  0.00  0.00    +0.000 A 
ATOM     11  C   UNL     1      -2.228   6.138   2.267  0.00  0.00    +0.000 A 
ATOM     12  C   UNL     1      -2.758   7.649  -1.962  0.00  0.00    +0.000 C 
ATOM     13  C   UNL     1       1.542   6.956   3.671  0.00  0.00    +0.000 A 
ATOM     14  C   UNL     1       0.614   6.284   4.461  0.00  0.00    +0.000 A 
ATOM     15  C   UNL     1       2.916   7.238   4.209  0.00  0.00    +0.000 C 
ATOM     16  N   UNL     1      -0.095   8.906  -2.469  0.00  0.00    +0.000 N 
ATOM     17  H   UNL     1       0.884   9.113  -2.643  0.00  0.00    +0.000 HD
ATOM     18  H   UNL     1      -0.671   8.789  -3.300  0.00  0.00    +0.000 HD
ENDROOT
TORSDOF 0
ENDMDL
MODEL 5
REMARK VINA RESULT:      -4.4     10.582     12.123
REMARK  Name = MeIQx.pdbqt.pdb
REMARK  0 active torsions:
REMARK  status: ('A' for Active; 'I' for Inactive)
REMARK                            x       y       z     vdW  Elec       q    Type
REMARK                         _______ _______ _______ _____ _____    ______ ____
ROOT
ATOM      1  N   UNL     1     -24.790   3.949  14.251  0.00  0.00    +0.000 N 
ATOM      2  N   UNL     1     -24.254   6.083  14.493  0.00  0.00    +0.000 NA
ATOM      3  N   UNL     1     -22.283   7.012  16.462  0.00  0.00    +0.000 NA
ATOM      4  N   UNL     1     -21.052   5.030  18.092  0.00  0.00    +0.000 NA
ATOM      5  C   UNL     1     -23.856   3.960  15.252  0.00  0.00    +0.000 A 
ATOM      6  C   UNL     1     -23.533   5.309  15.389  0.00  0.00    +0.000 A 
ATOM      7  C   UNL     1     -22.572   5.686  16.361  0.00  0.00    +0.000 A 
ATOM      8  C   UNL     1     -21.967   4.690  17.165  0.00  0.00    +0.000 A 
ATOM      9  C   UNL     1     -25.010   5.247  13.819  0.00  0.00    +0.000 A 
ATOM     10  C   UNL     1     -23.275   2.955  16.029  0.00  0.00    +0.000 A 
ATOM     11  C   UNL     1     -22.333   3.364  16.978  0.00  0.00    +0.000 A 
ATOM     12  C   UNL     1     -25.407   2.770  13.714  0.00  0.00    +0.000 C 
ATOM     13  C   UNL     1     -21.365   7.332  17.397  0.00  0.00    +0.000 A 
ATOM     14  C   UNL     1     -20.765   6.360  18.193  0.00  0.00    +0.000 A 
ATOM     15  C   UNL     1     -20.988   8.776  17.569  0.00  0.00    +0.000 C 
ATOM     16  N   UNL     1     -25.880   5.588  12.842  0.00  0.00    +0.000 N 
ATOM     17  H   UNL     1     -25.827   6.527  12.458  0.00  0.00    +0.000 HD
ATOM     18  H   UNL     1     -26.266   4.883  12.217  0.00  0.00    +0.000 HD
ENDROOT
TORSDOF 0
ENDMDL
MODEL 6
REMARK VINA RESULT:      -4.1     15.322     17.395
REMARK  Name = MeIQx.pdbqt.pdb
REMARK  0 active torsions:
REMARK  status: ('A' for Active; 'I' for Inactive)
REMARK                            x       y       z     vdW  Elec       q    Type
REMARK                         _______ _______ _______ _____ _____    ______ ____
ROOT
ATOM      1  N   UNL     1     -18.465   5.301  23.647  0.00  0.00    +0.000 N 
ATOM      2  N   UNL     1     -20.499   4.426  23.646  0.00  0.00    +0.000 NA
ATOM      3  N   UNL     1     -21.830   3.505  21.196  0.00  0.00    +0.000 NA
ATOM      4  N   UNL     1     -20.386   3.779  18.759  0.00  0.00    +0.000 NA
ATOM      5  C   UNL     1     -18.715   5.007  22.334  0.00  0.00    +0.000 A 
ATOM      6  C   UNL     1     -19.997   4.459  22.354  0.00  0.00    +0.000 A 
ATOM      7  C   UNL     1     -20.579   4.034  21.133  0.00  0.00    +0.000 A 
ATOM      8  C   UNL     1     -19.848   4.177  19.928  0.00  0.00    +0.000 A 
ATOM      9  C   UNL     1     -19.564   4.942  24.412  0.00  0.00    +0.000 A 
ATOM     10  C   UNL     1     -17.970   5.157  21.162  0.00  0.00    +0.000 A 
ATOM     11  C   UNL     1     -18.576   4.729  19.976  0.00  0.00    +0.000 A 
ATOM     12  C   UNL     1     -17.239   5.854  24.148  0.00  0.00    +0.000 C 
ATOM     13  C   UNL     1     -22.350   3.113  20.015  0.00  0.00    +0.000 A 
ATOM     14  C   UNL     1     -21.641   3.249  18.825  0.00  0.00    +0.000 A 
ATOM     15  C   UNL     1     -23.727   2.514  20.000  0.00  0.00    +0.000 C 
ATOM     16  N   UNL     1     -19.646   5.105  25.751  0.00  0.00    +0.000 N 
ATOM     17  H   UNL     1     -20.398   4.633  26.246  0.00  0.00    +0.000 HD
ATOM     18  H   UNL     1     -18.816   5.302  26.305  0.00  0.00    +0.000 HD
ENDROOT
TORSDOF 0
ENDMDL
MODEL 7
REMARK VINA RESULT:      -4.0     18.059     20.082
REMARK  Name = MeIQx.pdbqt.pdb
REMARK  0 active torsions:
REMARK  status: ('A' for Active; 'I' for Inactive)
REMARK                            x       y       z     vdW  Elec       q    Type
REMARK                         _______ _______ _______ _____ _____    ______ ____
ROOT
ATOM      1  N   UNL     1      -0.534  14.882  11.351  0.00  0.00    +0.000 N 
ATOM      2  N   UNL     1      -1.063  16.727  10.246  0.00  0.00    +0.000 NA
ATOM      3  N   UNL     1      -3.833  17.650   9.932  0.00  0.00    +0.000 NA
ATOM      4  N   UNL     1      -5.870  16.058  11.122  0.00  0.00    +0.000 NA
ATOM      5  C   UNL     1      -1.899  14.956  11.434  0.00  0.00    +0.000 A 
ATOM      6  C   UNL     1      -2.211  16.121  10.733  0.00  0.00    +0.000 A 
ATOM      7  C   UNL     1      -3.570  16.508  10.621  0.00  0.00    +0.000 A 
ATOM      8  C   UNL     1      -4.573  15.706  11.219  0.00  0.00    +0.000 A 
ATOM      9  C   UNL     1      -0.062  15.964  10.624  0.00  0.00    +0.000 A 
ATOM     10  C   UNL     1      -2.866  14.147  12.035  0.00  0.00    +0.000 A 
ATOM     11  C   UNL     1      -4.196  14.558  11.902  0.00  0.00    +0.000 A 
ATOM     12  C   UNL     1       0.273  13.865  11.960  0.00  0.00    +0.000 C 
ATOM     13  C   UNL     1      -5.137  17.985   9.846  0.00  0.00    +0.000 A 
ATOM     14  C   UNL     1      -6.130  17.204  10.429  0.00  0.00    +0.000 A 
ATOM     15  C   UNL     1      -5.510  19.236   9.103  0.00  0.00    +0.000 C 
ATOM     16  N   UNL     1       1.243  16.189  10.352  0.00  0.00    +0.000 N 
ATOM     17  H   UNL     1       1.508  17.101   9.992  0.00  0.00    +0.000 HD
ATOM     18  H   UNL     1       1.974  15.688  10.853  0.00  0.00    +0.000 HD
ENDROOT
TORSDOF 0
ENDMDL
MODEL 8
REMARK VINA RESULT:      -4.0     18.501     20.173
REMARK  Name = MeIQx.pdbqt.pdb
REMARK  0 active torsions:
REMARK  status: ('A' for Active; 'I' for Inactive)
REMARK                            x       y       z     vdW  Elec       q    Type
REMARK                         _______ _______ _______ _____ _____    ______ ____
ROOT
ATOM      1  N   UNL     1      -3.703   6.416  16.499  0.00  0.00    +0.000 N 
ATOM      2  N   UNL     1      -5.334   7.305  17.704  0.00  0.00    +0.000 NA
ATOM      3  N   UNL     1      -8.159   6.602  17.317  0.00  0.00    +0.000 NA
ATOM      4  N   UNL     1      -8.750   4.693  15.291  0.00  0.00    +0.000 NA
ATOM      5  C   UNL     1      -4.845   5.836  16.016  0.00  0.00    +0.000 A 
ATOM      6  C   UNL     1      -5.859   6.409  16.786  0.00  0.00    +0.000 A 
ATOM      7  C   UNL     1      -7.201   6.022  16.545  0.00  0.00    +0.000 A 
ATOM      8  C   UNL     1      -7.480   5.071  15.534  0.00  0.00    +0.000 A 
ATOM      9  C   UNL     1      -4.033   7.300  17.514  0.00  0.00    +0.000 A 
ATOM     10  C   UNL     1      -5.091   4.894  15.015  0.00  0.00    +0.000 A 
ATOM     11  C   UNL     1      -6.427   4.539  14.804  0.00  0.00    +0.000 A 
ATOM     12  C   UNL     1      -2.375   6.116  16.047  0.00  0.00    +0.000 C 
ATOM     13  C   UNL     1      -9.423   6.210  17.058  0.00  0.00    +0.000 A 
ATOM     14  C   UNL     1      -9.708   5.277  16.067  0.00  0.00    +0.000 A 
ATOM     15  C   UNL     1     -10.539   6.802  17.871  0.00  0.00    +0.000 C 
ATOM     16  N   UNL     1      -3.137   8.042  18.200  0.00  0.00    +0.000 N 
ATOM     17  H   UNL     1      -3.446   8.504  19.050  0.00  0.00    +0.000 HD
ATOM     18  H   UNL     1      -2.142   7.832  18.156  0.00  0.00    +0.000 HD
ENDROOT
TORSDOF 0
ENDMDL
MODEL 9
REMARK VINA RESULT:      -3.9     17.225     18.775
REMARK  Name = MeIQx.pdbqt.pdb
REMARK  0 active torsions:
REMARK  status: ('A' for Active; 'I' for Inactive)
REMARK                            x       y       z     vdW  Elec       q    Type
REMARK                         _______ _______ _______ _____ _____    ______ ____
ROOT
ATOM      1  N   UNL     1      -6.384  10.467  18.018  0.00  0.00    +0.000 N 
ATOM      2  N   UNL     1      -6.927   9.298  16.217  0.00  0.00    +0.000 NA
ATOM      3  N   UNL     1      -8.750   6.998  16.306  0.00  0.00    +0.000 NA
ATOM      4  N   UNL     1      -9.824   6.298  18.847  0.00  0.00    +0.000 NA
ATOM      5  C   UNL     1      -7.237   9.499  18.477  0.00  0.00    +0.000 A 
ATOM      6  C   UNL     1      -7.566   8.775  17.331  0.00  0.00    +0.000 A 
ATOM      7  C   UNL     1      -8.453   7.676  17.447  0.00  0.00    +0.000 A 
ATOM      8  C   UNL     1      -8.980   7.339  18.718  0.00  0.00    +0.000 A 
ATOM      9  C   UNL     1      -6.215  10.314  16.651  0.00  0.00    +0.000 A 
ATOM     10  C   UNL     1      -7.742   9.192  19.742  0.00  0.00    +0.000 A 
ATOM     11  C   UNL     1      -8.613   8.100  19.820  0.00  0.00    +0.000 A 
ATOM     12  C   UNL     1      -5.796  11.496  18.826  0.00  0.00    +0.000 C 
ATOM     13  C   UNL     1      -9.596   5.959  16.457  0.00  0.00    +0.000 A 
ATOM     14  C   UNL     1     -10.119   5.619  17.701  0.00  0.00    +0.000 A 
ATOM     15  C   UNL     1      -9.976   5.160  15.243  0.00  0.00    +0.000 C 
ATOM     16  N   UNL     1      -5.429  11.105  15.887  0.00  0.00    +0.000 N 
ATOM     17  H   UNL     1      -5.524  11.045  14.877  0.00  0.00    +0.000 HD
ATOM     18  H   UNL     1      -5.083  11.995  16.240  0.00  0.00    +0.000 HD
ENDROOT
TORSDOF 0
ENDMDL
