MODEL 1
REMARK VINA RESULT:      -5.3      0.000      0.000
REMARK  Name = 
REMARK  21 active torsions:
REMARK  status: ('A' for Active; 'I' for Inactive)
REMARK    1  A    between atoms: O_3  and  C_27
REMARK    2  A    between atoms: O_3  and  C_28
REMARK    3  A    between atoms: N_6  and  CA_9
REMARK    4  A    between atoms: N_7  and  CA_15
REMARK    5  A    between atoms: N_8  and  CA_12
REMARK    6  A    between atoms: CA_9  and  CB_10
REMARK    7  A    between atoms: CA_9  and  C_16
REMARK    8  A    between atoms: CB_10  and  CG_11
REMARK    9  A    between atoms: CG_11  and  CD1_20
REMARK   10  A    between atoms: CG_11  and  CD2_21
REMARK   11  A    between atoms: CA_12  and  CB_13
REMARK   12  A    between atoms: CA_12  and  C_18
REMARK   13  A    between atoms: CB_13  and  CG_14
REMARK   14  A    between atoms: CG_14  and  CD1_22
REMARK   15  A    between atoms: CG_14  and  CD2_23
REMARK   16  A    between atoms: CA_15  and  CB_17
REMARK   17  A    between atoms: CA_15  and  C_26
REMARK   18  A    between atoms: CB_17  and  CG_19
REMARK   19  A    between atoms: CG_19  and  CD1_24
REMARK   20  A    between atoms: CG_19  and  CD2_25
REMARK   21  A    between atoms: C_28  and  C_29
REMARK                            x       y       z     vdW  Elec       q    Type
REMARK                         _______ _______ _______ _____ _____    ______ ____
ROOT
ATOM      1  O   UNL     1     -17.162   6.963  -3.325  0.00  0.00    +0.000 OA
ATOM      2  N   UNL     1     -15.199   6.376  -2.322  0.00  0.00    +0.000 N 
ATOM      3  C   UNL     1     -16.316   7.182  -2.463  0.00  0.00    +0.000 C 
ATOM      4  H   UNL     1     -14.860   6.306  -1.365  0.00  0.00    +0.000 HD
ENDROOT
BRANCH   2   5
ATOM      5  CA  UNL     1     -15.081   5.158  -3.124  0.00  0.00    +0.000 C 
BRANCH   5   8
ATOM      6  O   UNL     1     -13.632   3.768  -1.780  0.00  0.00    +0.000 OA
ATOM      7  N   UNL     1     -15.796   3.298  -1.562  0.00  0.00    +0.000 N 
ATOM      8  C   UNL     1     -14.792   4.037  -2.108  0.00  0.00    +0.000 C 
ATOM      9  H   UNL     1     -15.432   2.627  -0.893  0.00  0.00    +0.000 HD
BRANCH   7  10
ATOM     10  CA  UNL     1     -17.225   3.598  -1.476  0.00  0.00    +0.000 C 
BRANCH  10  12
ATOM     11  O   UNL     1     -18.274   5.430  -0.258  0.00  0.00    +0.000 OA
ATOM     12  C   UNL     1     -17.506   4.471  -0.252  0.00  0.00    +0.000 C 
ENDBRANCH  10  12
BRANCH  10  13
ATOM     13  CB  UNL     1     -18.091   2.330  -1.541  0.00  0.00    +0.000 C 
BRANCH  13  14
ATOM     14  CG  UNL     1     -19.072   2.197  -2.727  0.00  0.00    +0.000 C 
ATOM     15  CD1 UNL     1     -20.339   3.035  -2.568  0.00  0.00    +0.000 C 
ATOM     16  CD2 UNL     1     -18.357   2.593  -4.024  0.00  0.00    +0.000 C 
ENDBRANCH  13  14
ENDBRANCH  10  13
ENDBRANCH   7  10
ENDBRANCH   5   8
BRANCH   5  17
ATOM     17  CB  UNL     1     -13.914   5.293  -4.114  0.00  0.00    +0.000 C 
BRANCH  17  18
ATOM     18  CG  UNL     1     -14.322   5.749  -5.529  0.00  0.00    +0.000 C 
ATOM     19  CD1 UNL     1     -13.720   7.105  -5.899  0.00  0.00    +0.000 C 
ATOM     20  CD2 UNL     1     -13.881   4.701  -6.555  0.00  0.00    +0.000 C 
ENDBRANCH  17  18
ENDBRANCH   5  17
ENDBRANCH   2   5
BRANCH   3  21
ATOM     21  CA  UNL     1     -16.440   8.306  -1.405  0.00  0.00    +0.000 C 
BRANCH  21  23
ATOM     22  O   UNL     1     -18.435  10.303  -1.396  0.00  0.00    +0.000 OA
ATOM     23  N   UNL     1     -17.746   8.217  -0.737  0.00  0.00    +0.000 N 
ATOM     24  C   ACE A   0     -18.621   9.270  -0.772  0.00  0.00    +0.000 C 
ATOM     25  H   UNL     1     -17.823   7.597   0.057  0.00  0.00    +0.000 HD
BRANCH  24  26
ATOM     26  O   UNL     1     -19.681   9.099   0.053  0.00  0.00    +0.000 OA
BRANCH  26  27
ATOM     27  C   UNL     1     -19.927  10.170   0.973  0.00  0.00    +0.000 C 
BRANCH  27  28
ATOM     28  C   UNL     1     -21.415  10.349   1.157  0.00  0.00    +0.000 A 
ATOM     29  C   UNL     1     -21.911  11.155   2.191  0.00  0.00    +0.000 A 
ATOM     30  C   UNL     1     -22.325   9.666   0.336  0.00  0.00    +0.000 A 
ATOM     31  C   UNL     1     -23.287  11.296   2.383  0.00  0.00    +0.000 A 
ATOM     32  C   UNL     1     -23.700   9.807   0.529  0.00  0.00    +0.000 A 
ATOM     33  C   UNL     1     -24.181  10.623   1.552  0.00  0.00    +0.000 A 
ENDBRANCH  27  28
ENDBRANCH  26  27
ENDBRANCH  24  26
ENDBRANCH  21  23
BRANCH  21  34
ATOM     34  CB  UNL     1     -15.313   8.223  -0.360  0.00  0.00    +0.000 C 
BRANCH  34  35
ATOM     35  CG  UNL     1     -15.053   9.507   0.456  0.00  0.00    +0.000 C 
ATOM     36  CD1 UNL     1     -15.256  10.777  -0.371  0.00  0.00    +0.000 C 
ATOM     37  CD2 UNL     1     -15.982   9.534   1.674  0.00  0.00    +0.000 C 
ENDBRANCH  34  35
ENDBRANCH  21  34
ENDBRANCH   3  21
TORSDOF 15
ENDMDL
MODEL 2
REMARK VINA RESULT:      -5.2      3.080      6.283
REMARK  Name = 
REMARK  21 active torsions:
REMARK  status: ('A' for Active; 'I' for Inactive)
REMARK    1  A    between atoms: O_3  and  C_27
REMARK    2  A    between atoms: O_3  and  C_28
REMARK    3  A    between atoms: N_6  and  CA_9
REMARK    4  A    between atoms: N_7  and  CA_15
REMARK    5  A    between atoms: N_8  and  CA_12
REMARK    6  A    between atoms: CA_9  and  CB_10
REMARK    7  A    between atoms: CA_9  and  C_16
REMARK    8  A    between atoms: CB_10  and  CG_11
REMARK    9  A    between atoms: CG_11  and  CD1_20
REMARK   10  A    between atoms: CG_11  and  CD2_21
REMARK   11  A    between atoms: CA_12  and  CB_13
REMARK   12  A    between atoms: CA_12  and  C_18
REMARK   13  A    between atoms: CB_13  and  CG_14
REMARK   14  A    between atoms: CG_14  and  CD1_22
REMARK   15  A    between atoms: CG_14  and  CD2_23
REMARK   16  A    between atoms: CA_15  and  CB_17
REMARK   17  A    between atoms: CA_15  and  C_26
REMARK   18  A    between atoms: CB_17  and  CG_19
REMARK   19  A    between atoms: CG_19  and  CD1_24
REMARK   20  A    between atoms: CG_19  and  CD2_25
REMARK   21  A    between atoms: C_28  and  C_29
REMARK                            x       y       z     vdW  Elec       q    Type
REMARK                         _______ _______ _______ _____ _____    ______ ____
ROOT
ATOM      1  O   UNL     1     -20.041  10.486  -1.963  0.00  0.00    +0.000 OA
ATOM      2  N   UNL     1     -19.788   8.652  -0.630  0.00  0.00    +0.000 N 
ATOM      3  C   UNL     1     -20.547   9.645  -1.226  0.00  0.00    +0.000 C 
ATOM      4  H   UNL     1     -20.292   7.781  -0.483  0.00  0.00    +0.000 HD
ENDROOT
BRANCH   2   5
ATOM      5  CA  UNL     1     -18.375   8.512  -0.985  0.00  0.00    +0.000 C 
BRANCH   5   8
ATOM      6  O   UNL     1     -18.877   6.222  -1.571  0.00  0.00    +0.000 OA
ATOM      7  N   UNL     1     -17.624   7.287  -3.070  0.00  0.00    +0.000 N 
ATOM      8  C   UNL     1     -18.314   7.272  -1.897  0.00  0.00    +0.000 C 
ATOM      9  H   UNL     1     -17.714   6.401  -3.557  0.00  0.00    +0.000 HD
BRANCH   7  10
ATOM     10  CA  UNL     1     -17.179   8.430  -3.868  0.00  0.00    +0.000 C 
BRANCH  10  12
ATOM     11  O   UNL     1     -19.302   8.925  -4.956  0.00  0.00    +0.000 OA
ATOM     12  C   UNL     1     -18.113   8.633  -5.061  0.00  0.00    +0.000 C 
ENDBRANCH  10  12
BRANCH  10  13
ATOM     13  CB  UNL     1     -15.696   8.326  -4.256  0.00  0.00    +0.000 C 
BRANCH  13  14
ATOM     14  CG  UNL     1     -14.789   9.533  -3.934  0.00  0.00    +0.000 C 
ATOM     15  CD1 UNL     1     -14.195  10.200  -5.174  0.00  0.00    +0.000 C 
ATOM     16  CD2 UNL     1     -15.586  10.568  -3.131  0.00  0.00    +0.000 C 
ENDBRANCH  13  14
ENDBRANCH  10  13
ENDBRANCH   7  10
ENDBRANCH   5   8
BRANCH   5  17
ATOM     17  CB  UNL     1     -17.537   8.283   0.282  0.00  0.00    +0.000 C 
BRANCH  17  18
ATOM     18  CG  UNL     1     -16.258   9.139   0.368  0.00  0.00    +0.000 C 
ATOM     19  CD1 UNL     1     -15.872   9.463   1.812  0.00  0.00    +0.000 C 
ATOM     20  CD2 UNL     1     -15.099   8.404  -0.314  0.00  0.00    +0.000 C 
ENDBRANCH  17  18
ENDBRANCH   5  17
ENDBRANCH   2   5
BRANCH   3  21
ATOM     21  CA  UNL     1     -22.068   9.548  -0.952  0.00  0.00    +0.000 C 
BRANCH  21  23
ATOM     22  O   UNL     1     -24.281   7.865  -1.439  0.00  0.00    +0.000 OA
ATOM     23  N   UNL     1     -22.368   8.294  -0.249  0.00  0.00    +0.000 N 
ATOM     24  C   ACE A   0     -23.496   7.578  -0.549  0.00  0.00    +0.000 C 
ATOM     25  H   UNL     1     -22.004   8.184   0.688  0.00  0.00    +0.000 HD
BRANCH  24  26
ATOM     26  O   UNL     1     -23.721   6.565   0.321  0.00  0.00    +0.000 OA
BRANCH  26  27
ATOM     27  C   UNL     1     -25.043   6.505   0.872  0.00  0.00    +0.000 C 
BRANCH  27  28
ATOM     28  C   UNL     1     -25.003   6.893   2.330  0.00  0.00    +0.000 A 
ATOM     29  C   UNL     1     -24.957   5.908   3.326  0.00  0.00    +0.000 A 
ATOM     30  C   UNL     1     -25.072   8.240   2.715  0.00  0.00    +0.000 A 
ATOM     31  C   UNL     1     -24.952   6.264   4.677  0.00  0.00    +0.000 A 
ATOM     32  C   UNL     1     -25.068   8.595   4.065  0.00  0.00    +0.000 A 
ATOM     33  C   UNL     1     -25.007   7.606   5.046  0.00  0.00    +0.000 A 
ENDBRANCH  27  28
ENDBRANCH  26  27
ENDBRANCH  24  26
ENDBRANCH  21  23
BRANCH  21  34
ATOM     34  CB  UNL     1     -22.567  10.744  -0.121  0.00  0.00    +0.000 C 
BRANCH  34  35
ATOM     35  CG  UNL     1     -22.436  10.605   1.410  0.00  0.00    +0.000 C 
ATOM     36  CD1 UNL     1     -21.036  10.962   1.912  0.00  0.00    +0.000 C 
ATOM     37  CD2 UNL     1     -23.470  11.504   2.096  0.00  0.00    +0.000 C 
ENDBRANCH  34  35
ENDBRANCH  21  34
ENDBRANCH   3  21
TORSDOF 15
ENDMDL
MODEL 3
REMARK VINA RESULT:      -5.1      3.819      8.708
REMARK  Name = 
REMARK  21 active torsions:
REMARK  status: ('A' for Active; 'I' for Inactive)
REMARK    1  A    between atoms: O_3  and  C_27
REMARK    2  A    between atoms: O_3  and  C_28
REMARK    3  A    between atoms: N_6  and  CA_9
REMARK    4  A    between atoms: N_7  and  CA_15
REMARK    5  A    between atoms: N_8  and  CA_12
REMARK    6  A    between atoms: CA_9  and  CB_10
REMARK    7  A    between atoms: CA_9  and  C_16
REMARK    8  A    between atoms: CB_10  and  CG_11
REMARK    9  A    between atoms: CG_11  and  CD1_20
REMARK   10  A    between atoms: CG_11  and  CD2_21
REMARK   11  A    between atoms: CA_12  and  CB_13
REMARK   12  A    between atoms: CA_12  and  C_18
REMARK   13  A    between atoms: CB_13  and  CG_14
REMARK   14  A    between atoms: CG_14  and  CD1_22
REMARK   15  A    between atoms: CG_14  and  CD2_23
REMARK   16  A    between atoms: CA_15  and  CB_17
REMARK   17  A    between atoms: CA_15  and  C_26
REMARK   18  A    between atoms: CB_17  and  CG_19
REMARK   19  A    between atoms: CG_19  and  CD1_24
REMARK   20  A    between atoms: CG_19  and  CD2_25
REMARK   21  A    between atoms: C_28  and  C_29
REMARK                            x       y       z     vdW  Elec       q    Type
REMARK                         _______ _______ _______ _____ _____    ______ ____
ROOT
ATOM      1  O   UNL     1     -14.574   9.588  -3.600  0.00  0.00    +0.000 OA
ATOM      2  N   UNL     1     -16.462  10.864  -3.719  0.00  0.00    +0.000 N 
ATOM      3  C   UNL     1     -15.659   9.906  -3.123  0.00  0.00    +0.000 C 
ATOM      4  H   UNL     1     -17.026  11.395  -3.060  0.00  0.00    +0.000 HD
ENDROOT
BRANCH   2   5
ATOM      5  CA  UNL     1     -15.956  11.615  -4.868  0.00  0.00    +0.000 C 
BRANCH   5   8
ATOM      6  O   UNL     1     -17.199  13.672  -4.612  0.00  0.00    +0.000 OA
ATOM      7  N   UNL     1     -15.066  13.820  -3.996  0.00  0.00    +0.000 N 
ATOM      8  C   UNL     1     -16.114  13.097  -4.477  0.00  0.00    +0.000 C 
ATOM      9  H   UNL     1     -15.352  14.765  -3.762  0.00  0.00    +0.000 HD
BRANCH   7  10
ATOM     10  CA  UNL     1     -13.811  13.351  -3.408  0.00  0.00    +0.000 C 
BRANCH  10  12
ATOM     11  O   UNL     1     -13.755  14.197  -1.124  0.00  0.00    +0.000 OA
ATOM     12  C   UNL     1     -13.946  13.254  -1.889  0.00  0.00    +0.000 C 
ENDBRANCH  10  12
BRANCH  10  13
ATOM     13  CB  UNL     1     -12.606  14.187  -3.868  0.00  0.00    +0.000 C 
BRANCH  13  14
ATOM     14  CG  UNL     1     -11.403  13.430  -4.473  0.00  0.00    +0.000 C 
ATOM     15  CD1 UNL     1     -11.737  12.683  -5.762  0.00  0.00    +0.000 C 
ATOM     16  CD2 UNL     1     -10.262  14.419  -4.737  0.00  0.00    +0.000 C 
ENDBRANCH  13  14
ENDBRANCH  10  13
ENDBRANCH   7  10
ENDBRANCH   5   8
BRANCH   5  17
ATOM     17  CB  UNL     1     -16.800  11.300  -6.112  0.00  0.00    +0.000 C 
BRANCH  17  18
ATOM     18  CG  UNL     1     -16.085  10.437  -7.171  0.00  0.00    +0.000 C 
ATOM     19  CD1 UNL     1     -14.580  10.704  -7.218  0.00  0.00    +0.000 C 
ATOM     20  CD2 UNL     1     -16.328   8.954  -6.876  0.00  0.00    +0.000 C 
ENDBRANCH  17  18
ENDBRANCH   5  17
ENDBRANCH   2   5
BRANCH   3  21
ATOM     21  CA  UNL     1     -16.205   9.347  -1.785  0.00  0.00    +0.000 C 
BRANCH  21  23
ATOM     22  O   UNL     1     -18.125   7.322  -1.360  0.00  0.00    +0.000 OA
ATOM     23  N   UNL     1     -15.933   7.906  -1.701  0.00  0.00    +0.000 N 
ATOM     24  C   ACE A   0     -16.946   7.018  -1.455  0.00  0.00    +0.000 C 
ATOM     25  H   UNL     1     -15.008   7.620  -1.413  0.00  0.00    +0.000 HD
BRANCH  24  26
ATOM     26  O   UNL     1     -16.497   5.763  -1.212  0.00  0.00    +0.000 OA
BRANCH  26  27
ATOM     27  C   UNL     1     -16.212   4.973  -2.373  0.00  0.00    +0.000 C 
BRANCH  27  28
ATOM     28  C   UNL     1     -14.920   4.221  -2.170  0.00  0.00    +0.000 A 
ATOM     29  C   UNL     1     -13.688   4.845  -2.411  0.00  0.00    +0.000 A 
ATOM     30  C   UNL     1     -14.929   2.869  -1.795  0.00  0.00    +0.000 A 
ATOM     31  C   UNL     1     -12.492   4.141  -2.255  0.00  0.00    +0.000 A 
ATOM     32  C   UNL     1     -13.734   2.166  -1.640  0.00  0.00    +0.000 A 
ATOM     33  C   UNL     1     -12.515   2.802  -1.868  0.00  0.00    +0.000 A 
ENDBRANCH  27  28
ENDBRANCH  26  27
ENDBRANCH  24  26
ENDBRANCH  21  23
BRANCH  21  34
ATOM     34  CB  UNL     1     -15.579  10.067  -0.577  0.00  0.00    +0.000 C 
BRANCH  34  35
ATOM     35  CG  UNL     1     -16.490  10.234   0.656  0.00  0.00    +0.000 C 
ATOM     36  CD1 UNL     1     -17.975  10.236   0.291  0.00  0.00    +0.000 C 
ATOM     37  CD2 UNL     1     -16.210   9.107   1.656  0.00  0.00    +0.000 C 
ENDBRANCH  34  35
ENDBRANCH  21  34
ENDBRANCH   3  21
TORSDOF 15
ENDMDL
MODEL 4
REMARK VINA RESULT:      -5.0      2.683      4.019
REMARK  Name = 
REMARK  21 active torsions:
REMARK  status: ('A' for Active; 'I' for Inactive)
REMARK    1  A    between atoms: O_3  and  C_27
REMARK    2  A    between atoms: O_3  and  C_28
REMARK    3  A    between atoms: N_6  and  CA_9
REMARK    4  A    between atoms: N_7  and  CA_15
REMARK    5  A    between atoms: N_8  and  CA_12
REMARK    6  A    between atoms: CA_9  and  CB_10
REMARK    7  A    between atoms: CA_9  and  C_16
REMARK    8  A    between atoms: CB_10  and  CG_11
REMARK    9  A    between atoms: CG_11  and  CD1_20
REMARK   10  A    between atoms: CG_11  and  CD2_21
REMARK   11  A    between atoms: CA_12  and  CB_13
REMARK   12  A    between atoms: CA_12  and  C_18
REMARK   13  A    between atoms: CB_13  and  CG_14
REMARK   14  A    between atoms: CG_14  and  CD1_22
REMARK   15  A    between atoms: CG_14  and  CD2_23
REMARK   16  A    between atoms: CA_15  and  CB_17
REMARK   17  A    between atoms: CA_15  and  C_26
REMARK   18  A    between atoms: CB_17  and  CG_19
REMARK   19  A    between atoms: CG_19  and  CD1_24
REMARK   20  A    between atoms: CG_19  and  CD2_25
REMARK   21  A    between atoms: C_28  and  C_29
REMARK                            x       y       z     vdW  Elec       q    Type
REMARK                         _______ _______ _______ _____ _____    ______ ____
ROOT
ATOM      1  O   UNL     1     -16.171   5.146  -4.961  0.00  0.00    +0.000 OA
ATOM      2  N   UNL     1     -14.421   5.624  -3.578  0.00  0.00    +0.000 N 
ATOM      3  C   UNL     1     -15.605   5.943  -4.219  0.00  0.00    +0.000 C 
ATOM      4  H   UNL     1     -14.307   6.076  -2.674  0.00  0.00    +0.000 HD
ENDROOT
BRANCH   2   5
ATOM      5  CA  UNL     1     -13.892   4.262  -3.674  0.00  0.00    +0.000 C 
BRANCH   5   8
ATOM      6  O   UNL     1     -12.728   4.087  -1.564  0.00  0.00    +0.000 OA
ATOM      7  N   UNL     1     -14.682   3.022  -1.612  0.00  0.00    +0.000 N 
ATOM      8  C   UNL     1     -13.735   3.792  -2.216  0.00  0.00    +0.000 C 
ATOM      9  H   UNL     1     -14.433   2.829  -0.647  0.00  0.00    +0.000 HD
BRANCH   7  10
ATOM     10  CA  UNL     1     -16.083   2.820  -1.981  0.00  0.00    +0.000 C 
BRANCH  10  12
ATOM     11  O   UNL     1     -16.551   4.985  -0.965  0.00  0.00    +0.000 OA
ATOM     12  C   UNL     1     -16.960   3.879  -1.312  0.00  0.00    +0.000 C 
ENDBRANCH  10  12
BRANCH  10  13
ATOM     13  CB  UNL     1     -16.550   1.379  -1.721  0.00  0.00    +0.000 C 
BRANCH  13  14
ATOM     14  CG  UNL     1     -16.760   0.467  -2.950  0.00  0.00    +0.000 C 
ATOM     15  CD1 UNL     1     -15.829   0.789  -4.117  0.00  0.00    +0.000 C 
ATOM     16  CD2 UNL     1     -16.570  -0.996  -2.534  0.00  0.00    +0.000 C 
ENDBRANCH  13  14
ENDBRANCH  10  13
ENDBRANCH   7  10
ENDBRANCH   5   8
BRANCH   5  17
ATOM     17  CB  UNL     1     -12.528   4.279  -4.379  0.00  0.00    +0.000 C 
BRANCH  17  18
ATOM     18  CG  UNL     1     -12.347   3.188  -5.453  0.00  0.00    +0.000 C 
ATOM     19  CD1 UNL     1     -11.931   1.845  -4.853  0.00  0.00    +0.000 C 
ATOM     20  CD2 UNL     1     -13.653   3.012  -6.234  0.00  0.00    +0.000 C 
ENDBRANCH  17  18
ENDBRANCH   5  17
ENDBRANCH   2   5
BRANCH   3  21
ATOM     21  CA  UNL     1     -16.182   7.334  -3.857  0.00  0.00    +0.000 C 
BRANCH  21  23
ATOM     22  O   UNL     1     -18.928   7.983  -3.790  0.00  0.00    +0.000 OA
ATOM     23  N   UNL     1     -17.067   7.217  -2.691  0.00  0.00    +0.000 N 
ATOM     24  C   ACE A   0     -18.380   7.598  -2.770  0.00  0.00    +0.000 C 
ATOM     25  H   UNL     1     -16.643   7.262  -1.775  0.00  0.00    +0.000 HD
BRANCH  24  26
ATOM     26  O   UNL     1     -18.996   7.612  -1.563  0.00  0.00    +0.000 OA
BRANCH  26  27
ATOM     27  C   UNL     1     -19.063   8.890  -0.919  0.00  0.00    +0.000 C 
BRANCH  27  28
ATOM     28  C   UNL     1     -17.743   9.192  -0.251  0.00  0.00    +0.000 A 
ATOM     29  C   UNL     1     -17.433   8.630   0.995  0.00  0.00    +0.000 A 
ATOM     30  C   UNL     1     -16.831  10.083  -0.835  0.00  0.00    +0.000 A 
ATOM     31  C   UNL     1     -16.227   8.932   1.630  0.00  0.00    +0.000 A 
ATOM     32  C   UNL     1     -15.626  10.385  -0.200  0.00  0.00    +0.000 A 
ATOM     33  C   UNL     1     -15.324   9.809   1.033  0.00  0.00    +0.000 A 
ENDBRANCH  27  28
ENDBRANCH  26  27
ENDBRANCH  24  26
ENDBRANCH  21  23
BRANCH  21  34
ATOM     34  CB  UNL     1     -15.062   8.349  -3.562  0.00  0.00    +0.000 C 
BRANCH  34  35
ATOM     35  CG  UNL     1     -14.953   9.538  -4.539  0.00  0.00    +0.000 C 
ATOM     36  CD1 UNL     1     -16.242   9.767  -5.328  0.00  0.00    +0.000 C 
ATOM     37  CD2 UNL     1     -14.597  10.808  -3.759  0.00  0.00    +0.000 C 
ENDBRANCH  34  35
ENDBRANCH  21  34
ENDBRANCH   3  21
TORSDOF 15
ENDMDL
MODEL 5
REMARK VINA RESULT:      -5.0      3.835      7.619
REMARK  Name = 
REMARK  21 active torsions:
REMARK  status: ('A' for Active; 'I' for Inactive)
REMARK    1  A    between atoms: O_3  and  C_27
REMARK    2  A    between atoms: O_3  and  C_28
REMARK    3  A    between atoms: N_6  and  CA_9
REMARK    4  A    between atoms: N_7  and  CA_15
REMARK    5  A    between atoms: N_8  and  CA_12
REMARK    6  A    between atoms: CA_9  and  CB_10
REMARK    7  A    between atoms: CA_9  and  C_16
REMARK    8  A    between atoms: CB_10  and  CG_11
REMARK    9  A    between atoms: CG_11  and  CD1_20
REMARK   10  A    between atoms: CG_11  and  CD2_21
REMARK   11  A    between atoms: CA_12  and  CB_13
REMARK   12  A    between atoms: CA_12  and  C_18
REMARK   13  A    between atoms: CB_13  and  CG_14
REMARK   14  A    between atoms: CG_14  and  CD1_22
REMARK   15  A    between atoms: CG_14  and  CD2_23
REMARK   16  A    between atoms: CA_15  and  CB_17
REMARK   17  A    between atoms: CA_15  and  C_26
REMARK   18  A    between atoms: CB_17  and  CG_19
REMARK   19  A    between atoms: CG_19  and  CD1_24
REMARK   20  A    between atoms: CG_19  and  CD2_25
REMARK   21  A    between atoms: C_28  and  C_29
REMARK                            x       y       z     vdW  Elec       q    Type
REMARK                         _______ _______ _______ _____ _____    ______ ____
ROOT
ATOM      1  O   UNL     1     -17.787   0.509   0.226  0.00  0.00    +0.000 OA
ATOM      2  N   UNL     1     -16.558   0.065  -1.644  0.00  0.00    +0.000 N 
ATOM      3  C   UNL     1     -17.449   0.829  -0.910  0.00  0.00    +0.000 C 
ATOM      4  H   UNL     1     -15.983   0.606  -2.285  0.00  0.00    +0.000 HD
ENDROOT
BRANCH   2   5
ATOM      5  CA  UNL     1     -15.896  -1.078  -1.013  0.00  0.00    +0.000 C 
BRANCH   5   8
ATOM      6  O   UNL     1     -14.501  -1.880  -2.817  0.00  0.00    +0.000 OA
ATOM      7  N   UNL     1     -13.410  -0.682  -1.292  0.00  0.00    +0.000 N 
ATOM      8  C   UNL     1     -14.561  -1.232  -1.767  0.00  0.00    +0.000 C 
ATOM      9  H   UNL     1     -12.636  -0.855  -1.925  0.00  0.00    +0.000 HD
BRANCH   7  10
ATOM     10  CA  UNL     1     -13.232   0.394  -0.316  0.00  0.00    +0.000 C 
BRANCH  10  12
ATOM     11  O   UNL     1     -14.287   2.233  -1.516  0.00  0.00    +0.000 OA
ATOM     12  C   UNL     1     -13.272   1.751  -1.019  0.00  0.00    +0.000 C 
ENDBRANCH  10  12
BRANCH  10  13
ATOM     13  CB  UNL     1     -11.983   0.187   0.555  0.00  0.00    +0.000 C 
BRANCH  13  14
ATOM     14  CG  UNL     1     -10.776   1.116   0.301  0.00  0.00    +0.000 C 
ATOM     15  CD1 UNL     1      -9.974   1.437   1.561  0.00  0.00    +0.000 C 
ATOM     16  CD2 UNL     1      -9.852   0.475  -0.742  0.00  0.00    +0.000 C 
ENDBRANCH  13  14
ENDBRANCH  10  13
ENDBRANCH   7  10
ENDBRANCH   5   8
BRANCH   5  17
ATOM     17  CB  UNL     1     -16.753  -2.340  -1.185  0.00  0.00    +0.000 C 
BRANCH  17  18
ATOM     18  CG  UNL     1     -17.244  -2.967   0.134  0.00  0.00    +0.000 C 
ATOM     19  CD1 UNL     1     -17.309  -4.494   0.064  0.00  0.00    +0.000 C 
ATOM     20  CD2 UNL     1     -16.316  -2.552   1.280  0.00  0.00    +0.000 C 
ENDBRANCH  17  18
ENDBRANCH   5  17
ENDBRANCH   2   5
BRANCH   3  21
ATOM     21  CA  UNL     1     -17.904   2.136  -1.604  0.00  0.00    +0.000 C 
BRANCH  21  23
ATOM     22  O   UNL     1     -19.369   4.335  -0.609  0.00  0.00    +0.000 OA
ATOM     23  N   UNL     1     -17.345   3.295  -0.895  0.00  0.00    +0.000 N 
ATOM     24  C   ACE A   0     -18.154   4.323  -0.489  0.00  0.00    +0.000 C 
ATOM     25  H   UNL     1     -16.379   3.531  -1.072  0.00  0.00    +0.000 HD
BRANCH  24  26
ATOM     26  O   UNL     1     -17.458   5.392  -0.035  0.00  0.00    +0.000 OA
BRANCH  26  27
ATOM     27  C   UNL     1     -17.563   6.581  -0.827  0.00  0.00    +0.000 C 
BRANCH  27  28
ATOM     28  C   UNL     1     -16.730   7.677  -0.211  0.00  0.00    +0.000 A 
ATOM     29  C   UNL     1     -17.014   8.146   1.079  0.00  0.00    +0.000 A 
ATOM     30  C   UNL     1     -15.696   8.287  -0.938  0.00  0.00    +0.000 A 
ATOM     31  C   UNL     1     -16.265   9.183   1.640  0.00  0.00    +0.000 A 
ATOM     32  C   UNL     1     -14.948   9.324  -0.377  0.00  0.00    +0.000 A 
ATOM     33  C   UNL     1     -15.232   9.770   0.912  0.00  0.00    +0.000 A 
ENDBRANCH  27  28
ENDBRANCH  26  27
ENDBRANCH  24  26
ENDBRANCH  21  23
BRANCH  21  34
ATOM     34  CB  UNL     1     -17.472   2.171  -3.080  0.00  0.00    +0.000 C 
BRANCH  34  35
ATOM     35  CG  UNL     1     -18.511   2.727  -4.076  0.00  0.00    +0.000 C 
ATOM     36  CD1 UNL     1     -19.949   2.507  -3.604  0.00  0.00    +0.000 C 
ATOM     37  CD2 UNL     1     -18.265   4.225  -4.287  0.00  0.00    +0.000 C 
ENDBRANCH  34  35
ENDBRANCH  21  34
ENDBRANCH   3  21
TORSDOF 15
ENDMDL
MODEL 6
REMARK VINA RESULT:      -4.9      3.095      6.646
REMARK  Name = 
REMARK  21 active torsions:
REMARK  status: ('A' for Active; 'I' for Inactive)
REMARK    1  A    between atoms: O_3  and  C_27
REMARK    2  A    between atoms: O_3  and  C_28
REMARK    3  A    between atoms: N_6  and  CA_9
REMARK    4  A    between atoms: N_7  and  CA_15
REMARK    5  A    between atoms: N_8  and  CA_12
REMARK    6  A    between atoms: CA_9  and  CB_10
REMARK    7  A    between atoms: CA_9  and  C_16
REMARK    8  A    between atoms: CB_10  and  CG_11
REMARK    9  A    between atoms: CG_11  and  CD1_20
REMARK   10  A    between atoms: CG_11  and  CD2_21
REMARK   11  A    between atoms: CA_12  and  CB_13
REMARK   12  A    between atoms: CA_12  and  C_18
REMARK   13  A    between atoms: CB_13  and  CG_14
REMARK   14  A    between atoms: CG_14  and  CD1_22
REMARK   15  A    between atoms: CG_14  and  CD2_23
REMARK   16  A    between atoms: CA_15  and  CB_17
REMARK   17  A    between atoms: CA_15  and  C_26
REMARK   18  A    between atoms: CB_17  and  CG_19
REMARK   19  A    between atoms: CG_19  and  CD1_24
REMARK   20  A    between atoms: CG_19  and  CD2_25
REMARK   21  A    between atoms: C_28  and  C_29
REMARK                            x       y       z     vdW  Elec       q    Type
REMARK                         _______ _______ _______ _____ _____    ______ ____
ROOT
ATOM      1  O   UNL     1     -15.760   2.573  -4.794  0.00  0.00    +0.000 OA
ATOM      2  N   UNL     1     -15.028   4.259  -3.443  0.00  0.00    +0.000 N 
ATOM      3  C   UNL     1     -15.976   3.341  -3.861  0.00  0.00    +0.000 C 
ATOM      4  H   UNL     1     -15.068   4.466  -2.447  0.00  0.00    +0.000 HD
ENDROOT
BRANCH   2   5
ATOM      5  CA  UNL     1     -13.687   4.231  -4.029  0.00  0.00    +0.000 C 
BRANCH   5   8
ATOM      6  O   UNL     1     -13.055   4.599  -1.726  0.00  0.00    +0.000 OA
ATOM      7  N   UNL     1     -11.489   3.592  -2.945  0.00  0.00    +0.000 N 
ATOM      8  C   UNL     1     -12.728   4.145  -2.827  0.00  0.00    +0.000 C 
ATOM      9  H   UNL     1     -11.005   3.590  -2.053  0.00  0.00    +0.000 HD
BRANCH   7  10
ATOM     10  CA  UNL     1     -10.975   2.686  -3.972  0.00  0.00    +0.000 C 
BRANCH  10  12
ATOM     11  O   UNL     1     -10.600   0.343  -3.418  0.00  0.00    +0.000 OA
ATOM     12  C   UNL     1     -10.242   1.514  -3.319  0.00  0.00    +0.000 C 
ENDBRANCH  10  12
BRANCH  10  13
ATOM     13  CB  UNL     1     -10.140   3.422  -5.031  0.00  0.00    +0.000 C 
BRANCH  13  14
ATOM     14  CG  UNL     1      -9.536   4.789  -4.637  0.00  0.00    +0.000 C 
ATOM     15  CD1 UNL     1      -8.021   4.755  -4.447  0.00  0.00    +0.000 C 
ATOM     16  CD2 UNL     1      -9.894   5.829  -5.705  0.00  0.00    +0.000 C 
ENDBRANCH  13  14
ENDBRANCH  10  13
ENDBRANCH   7  10
ENDBRANCH   5   8
BRANCH   5  17
ATOM     17  CB  UNL     1     -13.435   5.523  -4.820  0.00  0.00    +0.000 C 
BRANCH  17  18
ATOM     18  CG  UNL     1     -13.585   5.379  -6.348  0.00  0.00    +0.000 C 
ATOM     19  CD1 UNL     1     -13.300   3.956  -6.829  0.00  0.00    +0.000 C 
ATOM     20  CD2 UNL     1     -15.003   5.781  -6.766  0.00  0.00    +0.000 C 
ENDBRANCH  17  18
ENDBRANCH   5  17
ENDBRANCH   2   5
BRANCH   3  21
ATOM     21  CA  UNL     1     -17.271   3.316  -3.012  0.00  0.00    +0.000 C 
BRANCH  21  23
ATOM     22  O   UNL     1     -17.776   4.172  -0.370  0.00  0.00    +0.000 OA
ATOM     23  N   UNL     1     -17.622   4.681  -2.601  0.00  0.00    +0.000 N 
ATOM     24  C   ACE A   0     -17.881   4.970  -1.287  0.00  0.00    +0.000 C 
ATOM     25  H   UNL     1     -18.068   5.276  -3.286  0.00  0.00    +0.000 HD
BRANCH  24  26
ATOM     26  O   UNL     1     -18.380   6.217  -1.113  0.00  0.00    +0.000 OA
BRANCH  26  27
ATOM     27  C   UNL     1     -17.629   7.274  -1.723  0.00  0.00    +0.000 C 
BRANCH  27  28
ATOM     28  C   UNL     1     -16.930   8.081  -0.656  0.00  0.00    +0.000 A 
ATOM     29  C   UNL     1     -15.724   8.738  -0.939  0.00  0.00    +0.000 A 
ATOM     30  C   UNL     1     -17.441   8.139   0.649  0.00  0.00    +0.000 A 
ATOM     31  C   UNL     1     -15.058   9.458   0.056  0.00  0.00    +0.000 A 
ATOM     32  C   UNL     1     -16.774   8.858   1.642  0.00  0.00    +0.000 A 
ATOM     33  C   UNL     1     -15.584   9.519   1.345  0.00  0.00    +0.000 A 
ENDBRANCH  27  28
ENDBRANCH  26  27
ENDBRANCH  24  26
ENDBRANCH  21  23
BRANCH  21  34
ATOM     34  CB  UNL     1     -18.442   2.687  -3.789  0.00  0.00    +0.000 C 
BRANCH  34  35
ATOM     35  CG  UNL     1     -19.440   1.860  -2.953  0.00  0.00    +0.000 C 
ATOM     36  CD1 UNL     1     -18.816   1.313  -1.669  0.00  0.00    +0.000 C 
ATOM     37  CD2 UNL     1     -20.655   2.726  -2.604  0.00  0.00    +0.000 C 
ENDBRANCH  34  35
ENDBRANCH  21  34
ENDBRANCH   3  21
TORSDOF 15
ENDMDL
MODEL 7
REMARK VINA RESULT:      -4.9     21.091     23.755
REMARK  Name = 
REMARK  21 active torsions:
REMARK  status: ('A' for Active; 'I' for Inactive)
REMARK    1  A    between atoms: O_3  and  C_27
REMARK    2  A    between atoms: O_3  and  C_28
REMARK    3  A    between atoms: N_6  and  CA_9
REMARK    4  A    between atoms: N_7  and  CA_15
REMARK    5  A    between atoms: N_8  and  CA_12
REMARK    6  A    between atoms: CA_9  and  CB_10
REMARK    7  A    between atoms: CA_9  and  C_16
REMARK    8  A    between atoms: CB_10  and  CG_11
REMARK    9  A    between atoms: CG_11  and  CD1_20
REMARK   10  A    between atoms: CG_11  and  CD2_21
REMARK   11  A    between atoms: CA_12  and  CB_13
REMARK   12  A    between atoms: CA_12  and  C_18
REMARK   13  A    between atoms: CB_13  and  CG_14
REMARK   14  A    between atoms: CG_14  and  CD1_22
REMARK   15  A    between atoms: CG_14  and  CD2_23
REMARK   16  A    between atoms: CA_15  and  CB_17
REMARK   17  A    between atoms: CA_15  and  C_26
REMARK   18  A    between atoms: CB_17  and  CG_19
REMARK   19  A    between atoms: CG_19  and  CD1_24
REMARK   20  A    between atoms: CG_19  and  CD2_25
REMARK   21  A    between atoms: C_28  and  C_29
REMARK                            x       y       z     vdW  Elec       q    Type
REMARK                         _______ _______ _______ _____ _____    ______ ____
ROOT
ATOM      1  O   UNL     1     -10.205   2.686  19.856  0.00  0.00    +0.000 OA
ATOM      2  N   UNL     1     -11.708   3.937  18.682  0.00  0.00    +0.000 N 
ATOM      3  C   UNL     1     -11.375   2.965  19.609  0.00  0.00    +0.000 C 
ATOM      4  H   UNL     1     -12.573   4.429  18.895  0.00  0.00    +0.000 HD
ENDROOT
BRANCH   2   5
ATOM      5  CA  UNL     1     -10.653   4.750  18.076  0.00  0.00    +0.000 C 
BRANCH   5   8
ATOM      6  O   UNL     1     -11.898   6.666  18.860  0.00  0.00    +0.000 OA
ATOM      7  N   UNL     1      -9.701   6.828  19.167  0.00  0.00    +0.000 N 
ATOM      8  C   UNL     1     -10.790   6.137  18.732  0.00  0.00    +0.000 C 
ATOM      9  H   UNL     1      -9.974   7.705  19.598  0.00  0.00    +0.000 HD
BRANCH   7  10
ATOM     10  CA  UNL     1      -8.356   6.338  19.472  0.00  0.00    +0.000 C 
BRANCH  10  12
ATOM     11  O   UNL     1      -8.439   7.066  21.796  0.00  0.00    +0.000 OA
ATOM     12  C   UNL     1      -8.185   6.180  20.983  0.00  0.00    +0.000 C 
ENDBRANCH  10  12
BRANCH  10  13
ATOM     13  CB  UNL     1      -7.263   7.195  18.815  0.00  0.00    +0.000 C 
BRANCH  13  14
ATOM     14  CG  UNL     1      -7.658   8.610  18.336  0.00  0.00    +0.000 C 
ATOM     15  CD1 UNL     1      -7.458   9.692  19.395  0.00  0.00    +0.000 C 
ATOM     16  CD2 UNL     1      -6.850   8.966  17.083  0.00  0.00    +0.000 C 
ENDBRANCH  13  14
ENDBRANCH  10  13
ENDBRANCH   7  10
ENDBRANCH   5   8
BRANCH   5  17
ATOM     17  CB  UNL     1     -10.876   4.853  16.560  0.00  0.00    +0.000 C 
BRANCH  17  18
ATOM     18  CG  UNL     1      -9.602   5.140  15.741  0.00  0.00    +0.000 C 
ATOM     19  CD1 UNL     1      -9.305   6.636  15.633  0.00  0.00    +0.000 C 
ATOM     20  CD2 UNL     1      -8.405   4.431  16.384  0.00  0.00    +0.000 C 
ENDBRANCH  17  18
ENDBRANCH   5  17
ENDBRANCH   2   5
BRANCH   3  21
ATOM     21  CA  UNL     1     -12.581   2.336  20.349  0.00  0.00    +0.000 C 
BRANCH  21  23
ATOM     22  O   UNL     1     -13.509   0.249  22.008  0.00  0.00    +0.000 OA
ATOM     23  N   UNL     1     -12.253   2.153  21.769  0.00  0.00    +0.000 N 
ATOM     24  C   ACE A   0     -12.795   1.118  22.483  0.00  0.00    +0.000 C 
ATOM     25  H   UNL     1     -11.993   2.974  22.298  0.00  0.00    +0.000 HD
BRANCH  24  26
ATOM     26  O   UNL     1     -12.550   1.212  23.812  0.00  0.00    +0.000 OA
BRANCH  26  27
ATOM     27  C   UNL     1     -13.709   1.308  24.649  0.00  0.00    +0.000 C 
BRANCH  27  28
ATOM     28  C   UNL     1     -14.080   2.759  24.838  0.00  0.00    +0.000 A 
ATOM     29  C   UNL     1     -13.087   3.722  25.064  0.00  0.00    +0.000 A 
ATOM     30  C   UNL     1     -15.424   3.159  24.849  0.00  0.00    +0.000 A 
ATOM     31  C   UNL     1     -13.430   5.060  25.271  0.00  0.00    +0.000 A 
ATOM     32  C   UNL     1     -15.766   4.497  25.056  0.00  0.00    +0.000 A 
ATOM     33  C   UNL     1     -14.769   5.447  25.266  0.00  0.00    +0.000 A 
ENDBRANCH  27  28
ENDBRANCH  26  27
ENDBRANCH  24  26
ENDBRANCH  21  23
BRANCH  21  34
ATOM     34  CB  UNL     1     -13.842   3.207  20.212  0.00  0.00    +0.000 C 
BRANCH  34  35
ATOM     35  CG  UNL     1     -14.220   4.048  21.450  0.00  0.00    +0.000 C 
ATOM     36  CD1 UNL     1     -13.335   5.284  21.610  0.00  0.00    +0.000 C 
ATOM     37  CD2 UNL     1     -15.688   4.477  21.348  0.00  0.00    +0.000 C 
ENDBRANCH  34  35
ENDBRANCH  21  34
ENDBRANCH   3  21
TORSDOF 15
ENDMDL
MODEL 8
REMARK VINA RESULT:      -4.8      5.993      9.027
REMARK  Name = 
REMARK  21 active torsions:
REMARK  status: ('A' for Active; 'I' for Inactive)
REMARK    1  A    between atoms: O_3  and  C_27
REMARK    2  A    between atoms: O_3  and  C_28
REMARK    3  A    between atoms: N_6  and  CA_9
REMARK    4  A    between atoms: N_7  and  CA_15
REMARK    5  A    between atoms: N_8  and  CA_12
REMARK    6  A    between atoms: CA_9  and  CB_10
REMARK    7  A    between atoms: CA_9  and  C_16
REMARK    8  A    between atoms: CB_10  and  CG_11
REMARK    9  A    between atoms: CG_11  and  CD1_20
REMARK   10  A    between atoms: CG_11  and  CD2_21
REMARK   11  A    between atoms: CA_12  and  CB_13
REMARK   12  A    between atoms: CA_12  and  C_18
REMARK   13  A    between atoms: CB_13  and  CG_14
REMARK   14  A    between atoms: CG_14  and  CD1_22
REMARK   15  A    between atoms: CG_14  and  CD2_23
REMARK   16  A    between atoms: CA_15  and  CB_17
REMARK   17  A    between atoms: CA_15  and  C_26
REMARK   18  A    between atoms: CB_17  and  CG_19
REMARK   19  A    between atoms: CG_19  and  CD1_24
REMARK   20  A    between atoms: CG_19  and  CD2_25
REMARK   21  A    between atoms: C_28  and  C_29
REMARK                            x       y       z     vdW  Elec       q    Type
REMARK                         _______ _______ _______ _____ _____    ______ ____
ROOT
ATOM      1  O   UNL     1     -15.334  15.099  -5.317  0.00  0.00    +0.000 OA
ATOM      2  N   UNL     1     -15.927  12.897  -5.237  0.00  0.00    +0.000 N 
ATOM      3  C   UNL     1     -15.094  13.959  -4.928  0.00  0.00    +0.000 C 
ATOM      4  H   UNL     1     -15.953  12.174  -4.523  0.00  0.00    +0.000 HD
ENDROOT
BRANCH   2   5
ATOM      5  CA  UNL     1     -17.192  13.149  -5.928  0.00  0.00    +0.000 C 
BRANCH   5   8
ATOM      6  O   UNL     1     -18.321  12.069  -4.085  0.00  0.00    +0.000 OA
ATOM      7  N   UNL     1     -19.212  14.021  -4.674  0.00  0.00    +0.000 N 
ATOM      8  C   UNL     1     -18.271  13.050  -4.834  0.00  0.00    +0.000 C 
ATOM      9  H   UNL     1     -19.822  13.811  -3.891  0.00  0.00    +0.000 HD
BRANCH   7  10
ATOM     10  CA  UNL     1     -19.199  15.407  -5.141  0.00  0.00    +0.000 C 
BRANCH  10  12
ATOM     11  O   UNL     1     -20.552  15.999  -3.204  0.00  0.00    +0.000 OA
ATOM     12  C   UNL     1     -19.724  16.336  -4.046  0.00  0.00    +0.000 C 
ENDBRANCH  10  12
BRANCH  10  13
ATOM     13  CB  UNL     1     -19.921  15.573  -6.488  0.00  0.00    +0.000 C 
BRANCH  13  14
ATOM     14  CG  UNL     1     -19.241  16.457  -7.556  0.00  0.00    +0.000 C 
ATOM     15  CD1 UNL     1     -18.728  15.674  -8.762  0.00  0.00    +0.000 C 
ATOM     16  CD2 UNL     1     -20.227  17.532  -8.028  0.00  0.00    +0.000 C 
ENDBRANCH  13  14
ENDBRANCH  10  13
ENDBRANCH   7  10
ENDBRANCH   5   8
BRANCH   5  17
ATOM     17  CB  UNL     1     -17.424  12.077  -7.003  0.00  0.00    +0.000 C 
BRANCH  17  18
ATOM     18  CG  UNL     1     -16.526  10.831  -6.872  0.00  0.00    +0.000 C 
ATOM     19  CD1 UNL     1     -17.321   9.577  -6.508  0.00  0.00    +0.000 C 
ATOM     20  CD2 UNL     1     -15.778  10.593  -8.188  0.00  0.00    +0.000 C 
ENDBRANCH  17  18
ENDBRANCH   5  17
ENDBRANCH   2   5
BRANCH   3  21
ATOM     21  CA  UNL     1     -13.908  13.602  -3.999  0.00  0.00    +0.000 C 
BRANCH  21  23
ATOM     22  O   UNL     1     -13.733  14.273  -1.263  0.00  0.00    +0.000 OA
ATOM     23  N   UNL     1     -14.385  12.781  -2.878  0.00  0.00    +0.000 N 
ATOM     24  C   ACE A   0     -14.211  13.197  -1.585  0.00  0.00    +0.000 C 
ATOM     25  H   UNL     1     -14.447  11.783  -3.022  0.00  0.00    +0.000 HD
BRANCH  24  26
ATOM     26  O   UNL     1     -14.524  12.240  -0.679  0.00  0.00    +0.000 OA
BRANCH  26  27
ATOM     27  C   UNL     1     -14.874  10.963  -1.226  0.00  0.00    +0.000 C 
BRANCH  27  28
ATOM     28  C   UNL     1     -15.851  10.268  -0.309  0.00  0.00    +0.000 A 
ATOM     29  C   UNL     1     -15.405   9.649   0.867  0.00  0.00    +0.000 A 
ATOM     30  C   UNL     1     -17.210  10.179  -0.645  0.00  0.00    +0.000 A 
ATOM     31  C   UNL     1     -16.302   8.978   1.701  0.00  0.00    +0.000 A 
ATOM     32  C   UNL     1     -18.106   9.509   0.189  0.00  0.00    +0.000 A 
ATOM     33  C   UNL     1     -17.652   8.909   1.362  0.00  0.00    +0.000 A 
ENDBRANCH  27  28
ENDBRANCH  26  27
ENDBRANCH  24  26
ENDBRANCH  21  23
BRANCH  21  34
ATOM     34  CB  UNL     1     -12.802  12.851  -4.761  0.00  0.00    +0.000 C 
BRANCH  34  35
ATOM     35  CG  UNL     1     -11.380  13.440  -4.643  0.00  0.00    +0.000 C 
ATOM     36  CD1 UNL     1     -10.438  12.917  -5.728  0.00  0.00    +0.000 C 
ATOM     37  CD2 UNL     1     -11.452  14.968  -4.720  0.00  0.00    +0.000 C 
ENDBRANCH  34  35
ENDBRANCH  21  34
ENDBRANCH   3  21
TORSDOF 15
ENDMDL
MODEL 9
REMARK VINA RESULT:      -4.8      4.136      7.406
REMARK  Name = 
REMARK  21 active torsions:
REMARK  status: ('A' for Active; 'I' for Inactive)
REMARK    1  A    between atoms: O_3  and  C_27
REMARK    2  A    between atoms: O_3  and  C_28
REMARK    3  A    between atoms: N_6  and  CA_9
REMARK    4  A    between atoms: N_7  and  CA_15
REMARK    5  A    between atoms: N_8  and  CA_12
REMARK    6  A    between atoms: CA_9  and  CB_10
REMARK    7  A    between atoms: CA_9  and  C_16
REMARK    8  A    between atoms: CB_10  and  CG_11
REMARK    9  A    between atoms: CG_11  and  CD1_20
REMARK   10  A    between atoms: CG_11  and  CD2_21
REMARK   11  A    between atoms: CA_12  and  CB_13
REMARK   12  A    between atoms: CA_12  and  C_18
REMARK   13  A    between atoms: CB_13  and  CG_14
REMARK   14  A    between atoms: CG_14  and  CD1_22
REMARK   15  A    between atoms: CG_14  and  CD2_23
REMARK   16  A    between atoms: CA_15  and  CB_17
REMARK   17  A    between atoms: CA_15  and  C_26
REMARK   18  A    between atoms: CB_17  and  CG_19
REMARK   19  A    between atoms: CG_19  and  CD1_24
REMARK   20  A    between atoms: CG_19  and  CD2_25
REMARK   21  A    between atoms: C_28  and  C_29
REMARK                            x       y       z     vdW  Elec       q    Type
REMARK                         _______ _______ _______ _____ _____    ______ ____
ROOT
ATOM      1  O   UNL     1     -15.358   0.061  -2.116  0.00  0.00    +0.000 OA
ATOM      2  N   UNL     1     -17.096   0.944  -0.931  0.00  0.00    +0.000 N 
ATOM      3  C   UNL     1     -15.927   1.051  -1.665  0.00  0.00    +0.000 C 
ATOM      4  H   UNL     1     -17.721   1.740  -1.036  0.00  0.00    +0.000 HD
ENDROOT
BRANCH   2   5
ATOM      5  CA  UNL     1     -17.749  -0.359  -0.799  0.00  0.00    +0.000 C 
BRANCH   5   8
ATOM      6  O   UNL     1     -19.575   0.868  -1.798  0.00  0.00    +0.000 OA
ATOM      7  N   UNL     1     -20.217  -0.889  -0.593  0.00  0.00    +0.000 N 
ATOM      8  C   UNL     1     -19.236  -0.093  -1.101  0.00  0.00    +0.000 C 
ATOM      9  H   UNL     1     -21.131  -0.589  -0.915  0.00  0.00    +0.000 HD
BRANCH   7  10
ATOM     10  CA  UNL     1     -20.122  -2.248  -0.060  0.00  0.00    +0.000 C 
BRANCH  10  12
ATOM     11  O   UNL     1     -19.289  -3.543  -1.947  0.00  0.00    +0.000 OA
ATOM     12  C   UNL     1     -20.221  -3.266  -1.196  0.00  0.00    +0.000 C 
ENDBRANCH  10  12
BRANCH  10  13
ATOM     13  CB  UNL     1     -21.124  -2.496   1.079  0.00  0.00    +0.000 C 
BRANCH  13  14
ATOM     14  CG  UNL     1     -21.239  -1.413   2.175  0.00  0.00    +0.000 C 
ATOM     15  CD1 UNL     1     -22.660  -1.223   2.701  0.00  0.00    +0.000 C 
ATOM     16  CD2 UNL     1     -20.307  -1.769   3.339  0.00  0.00    +0.000 C 
ENDBRANCH  13  14
ENDBRANCH  10  13
ENDBRANCH   7  10
ENDBRANCH   5   8
BRANCH   5  17
ATOM     17  CB  UNL     1     -17.582  -0.885   0.634  0.00  0.00    +0.000 C 
BRANCH  17  18
ATOM     18  CG  UNL     1     -16.637  -2.096   0.767  0.00  0.00    +0.000 C 
ATOM     19  CD1 UNL     1     -15.181  -1.677   0.970  0.00  0.00    +0.000 C 
ATOM     20  CD2 UNL     1     -17.082  -2.970   1.944  0.00  0.00    +0.000 C 
ENDBRANCH  17  18
ENDBRANCH   5  17
ENDBRANCH   2   5
BRANCH   3  21
ATOM     21  CA  UNL     1     -15.459   2.504  -1.929  0.00  0.00    +0.000 C 
BRANCH  21  23
ATOM     22  O   UNL     1     -16.794   4.877  -2.674  0.00  0.00    +0.000 OA
ATOM     23  N   UNL     1     -16.156   3.423  -1.019  0.00  0.00    +0.000 N 
ATOM     24  C   ACE A   0     -16.739   4.567  -1.494  0.00  0.00    +0.000 C 
ATOM     25  H   UNL     1     -15.859   3.440  -0.054  0.00  0.00    +0.000 HD
BRANCH  24  26
ATOM     26  O   UNL     1     -17.159   5.392  -0.505  0.00  0.00    +0.000 OA
BRANCH  26  27
ATOM     27  C   UNL     1     -17.632   6.676  -0.930  0.00  0.00    +0.000 C 
BRANCH  27  28
ATOM     28  C   UNL     1     -16.765   7.759  -0.337  0.00  0.00    +0.000 A 
ATOM     29  C   UNL     1     -16.954   8.175   0.988  0.00  0.00    +0.000 A 
ATOM     30  C   UNL     1     -15.796   8.408  -1.117  0.00  0.00    +0.000 A 
ATOM     31  C   UNL     1     -16.174   9.199   1.529  0.00  0.00    +0.000 A 
ATOM     32  C   UNL     1     -15.016   9.431  -0.576  0.00  0.00    +0.000 A 
ATOM     33  C   UNL     1     -15.205   9.826   0.748  0.00  0.00    +0.000 A 
ENDBRANCH  27  28
ENDBRANCH  26  27
ENDBRANCH  24  26
ENDBRANCH  21  23
BRANCH  21  34
ATOM     34  CB  UNL     1     -13.937   2.647  -1.750  0.00  0.00    +0.000 C 
BRANCH  34  35
ATOM     35  CG  UNL     1     -13.150   3.094  -3.000  0.00  0.00    +0.000 C 
ATOM     36  CD1 UNL     1     -13.672   2.446  -4.283  0.00  0.00    +0.000 C 
ATOM     37  CD2 UNL     1     -13.220   4.619  -3.130  0.00  0.00    +0.000 C 
ENDBRANCH  34  35
ENDBRANCH  21  34
ENDBRANCH   3  21
TORSDOF 15
ENDMDL
