MODEL 1
REMARK VINA RESULT:      -4.7      0.000      0.000
REMARK  Name = Monobenzone.pdbqt.pdb
REMARK  4 active torsions:
REMARK  status: ('A' for Active; 'I' for Inactive)
REMARK    1  A    between atoms: C_1  and  O_7
REMARK    2  A    between atoms: C_6  and  O_15
REMARK    3  A    between atoms: O_7  and  C_8
REMARK    4  A    between atoms: C_8  and  C_9
REMARK                            x       y       z     vdW  Elec       q    Type
REMARK                         _______ _______ _______ _____ _____    ______ ____
ROOT
ATOM      1  C   UNL     1     -14.352  13.357  -3.948  0.00  0.00    +0.000 A 
ATOM      2  C   UNL     1     -15.146  14.088  -4.834  0.00  0.00    +0.000 A 
ATOM      3  C   UNL     1     -13.280  12.608  -4.437  0.00  0.00    +0.000 A 
ATOM      4  C   UNL     1     -14.872  14.074  -6.199  0.00  0.00    +0.000 A 
ATOM      5  C   UNL     1     -13.002  12.589  -5.802  0.00  0.00    +0.000 A 
ATOM      6  C   UNL     1     -13.800  13.323  -6.672  0.00  0.00    +0.000 A 
ENDROOT
BRANCH   6   7
ATOM      7  O   UNL     1     -13.508  13.290  -8.004  0.00  0.00    +0.000 OA
ATOM      8  H   UNL     1     -14.318  13.052  -8.489  0.00  0.00    +0.000 HD
ENDBRANCH   6   7
BRANCH   1   9
ATOM      9  O   UNL     1     -14.544  13.310  -2.590  0.00  0.00    +0.000 OA
BRANCH   9  10
ATOM     10  C   UNL     1     -14.728  12.089  -2.093  0.00  0.00    +0.000 C 
BRANCH  10  11
ATOM     11  C   UNL     1     -14.910  10.781  -1.554  0.00  0.00    +0.000 A 
ATOM     12  C   UNL     1     -14.962   9.682  -2.408  0.00  0.00    +0.000 A 
ATOM     13  C   UNL     1     -15.145   8.404  -1.882  0.00  0.00    +0.000 A 
ATOM     14  C   UNL     1     -15.275   8.230  -0.507  0.00  0.00    +0.000 A 
ATOM     15  C   UNL     1     -15.222   9.331   0.345  0.00  0.00    +0.000 A 
ATOM     16  C   UNL     1     -15.039  10.608  -0.178  0.00  0.00    +0.000 A 
ENDBRANCH  10  11
ENDBRANCH   9  10
ENDBRANCH   1   9
TORSDOF 4
ENDMDL
MODEL 2
REMARK VINA RESULT:      -4.5     20.702     23.595
REMARK  Name = Monobenzone.pdbqt.pdb
REMARK  4 active torsions:
REMARK  status: ('A' for Active; 'I' for Inactive)
REMARK    1  A    between atoms: C_1  and  O_7
REMARK    2  A    between atoms: C_6  and  O_15
REMARK    3  A    between atoms: O_7  and  C_8
REMARK    4  A    between atoms: C_8  and  C_9
REMARK                            x       y       z     vdW  Elec       q    Type
REMARK                         _______ _______ _______ _____ _____    ______ ____
ROOT
ATOM      1  C   UNL     1     -10.405   4.467  17.422  0.00  0.00    +0.000 A 
ATOM      2  C   UNL     1     -10.580   5.049  16.164  0.00  0.00    +0.000 A 
ATOM      3  C   UNL     1      -9.173   3.904  17.758  0.00  0.00    +0.000 A 
ATOM      4  C   UNL     1      -9.530   5.070  15.248  0.00  0.00    +0.000 A 
ATOM      5  C   UNL     1      -8.121   3.921  16.846  0.00  0.00    +0.000 A 
ATOM      6  C   UNL     1      -8.308   4.505  15.598  0.00  0.00    +0.000 A 
ENDROOT
BRANCH   6   7
ATOM      7  O   UNL     1      -7.263   4.511  14.721  0.00  0.00    +0.000 OA
ATOM      8  H   UNL     1      -7.089   5.431  14.460  0.00  0.00    +0.000 HD
ENDBRANCH   6   7
BRANCH   1   9
ATOM      9  O   UNL     1     -11.378   4.399  18.388  0.00  0.00    +0.000 OA
BRANCH   9  10
ATOM     10  C   UNL     1     -11.241   5.274  19.381  0.00  0.00    +0.000 C 
BRANCH  10  11
ATOM     11  C   UNL     1     -11.109   6.220  20.440  0.00  0.00    +0.000 A 
ATOM     12  C   UNL     1     -11.861   6.068  21.602  0.00  0.00    +0.000 A 
ATOM     13  C   UNL     1     -11.736   6.996  22.635  0.00  0.00    +0.000 A 
ATOM     14  C   UNL     1     -10.859   8.069  22.504  0.00  0.00    +0.000 A 
ATOM     15  C   UNL     1     -10.107   8.218  21.340  0.00  0.00    +0.000 A 
ATOM     16  C   UNL     1     -10.231   7.293  20.307  0.00  0.00    +0.000 A 
ENDBRANCH  10  11
ENDBRANCH   9  10
ENDBRANCH   1   9
TORSDOF 4
ENDMDL
MODEL 3
REMARK VINA RESULT:      -4.4     14.719     15.768
REMARK  Name = Monobenzone.pdbqt.pdb
REMARK  4 active torsions:
REMARK  status: ('A' for Active; 'I' for Inactive)
REMARK    1  A    between atoms: C_1  and  O_7
REMARK    2  A    between atoms: C_6  and  O_15
REMARK    3  A    between atoms: O_7  and  C_8
REMARK    4  A    between atoms: C_8  and  C_9
REMARK                            x       y       z     vdW  Elec       q    Type
REMARK                         _______ _______ _______ _____ _____    ______ ____
ROOT
ATOM      1  C   UNL     1      -3.353  17.001   5.611  0.00  0.00    +0.000 A 
ATOM      2  C   UNL     1      -2.701  15.765   5.614  0.00  0.00    +0.000 A 
ATOM      3  C   UNL     1      -4.074  17.400   4.484  0.00  0.00    +0.000 A 
ATOM      4  C   UNL     1      -2.769  14.933   4.499  0.00  0.00    +0.000 A 
ATOM      5  C   UNL     1      -4.144  16.572   3.367  0.00  0.00    +0.000 A 
ATOM      6  C   UNL     1      -3.491  15.344   3.384  0.00  0.00    +0.000 A 
ENDROOT
BRANCH   6   7
ATOM      7  O   UNL     1      -3.575  14.550   2.278  0.00  0.00    +0.000 OA
ATOM      8  H   UNL     1      -3.613  15.122   1.492  0.00  0.00    +0.000 HD
ENDBRANCH   6   7
BRANCH   1   9
ATOM      9  O   UNL     1      -3.344  17.886   6.660  0.00  0.00    +0.000 OA
BRANCH   9  10
ATOM     10  C   UNL     1      -3.748  17.381   7.822  0.00  0.00    +0.000 C 
BRANCH  10  11
ATOM     11  C   UNL     1      -4.196  16.838   9.063  0.00  0.00    +0.000 A 
ATOM     12  C   UNL     1      -3.359  15.998   9.795  0.00  0.00    +0.000 A 
ATOM     13  C   UNL     1      -3.800  15.463  11.004  0.00  0.00    +0.000 A 
ATOM     14  C   UNL     1      -5.073  15.769  11.477  0.00  0.00    +0.000 A 
ATOM     15  C   UNL     1      -5.908  16.610  10.744  0.00  0.00    +0.000 A 
ATOM     16  C   UNL     1      -5.470  17.145   9.535  0.00  0.00    +0.000 A 
ENDBRANCH  10  11
ENDBRANCH   9  10
ENDBRANCH   1   9
TORSDOF 4
ENDMDL
MODEL 4
REMARK VINA RESULT:      -4.2     15.109     17.043
REMARK  Name = Monobenzone.pdbqt.pdb
REMARK  4 active torsions:
REMARK  status: ('A' for Active; 'I' for Inactive)
REMARK    1  A    between atoms: C_1  and  O_7
REMARK    2  A    between atoms: C_6  and  O_15
REMARK    3  A    between atoms: O_7  and  C_8
REMARK    4  A    between atoms: C_8  and  C_9
REMARK                            x       y       z     vdW  Elec       q    Type
REMARK                         _______ _______ _______ _____ _____    ______ ____
ROOT
ATOM      1  C   UNL     1      -3.640  16.644   9.339  0.00  0.00    +0.000 A 
ATOM      2  C   UNL     1      -4.950  17.128   9.325  0.00  0.00    +0.000 A 
ATOM      3  C   UNL     1      -3.235  15.774  10.353  0.00  0.00    +0.000 A 
ATOM      4  C   UNL     1      -5.851  16.746  10.315  0.00  0.00    +0.000 A 
ATOM      5  C   UNL     1      -4.132  15.389  11.347  0.00  0.00    +0.000 A 
ATOM      6  C   UNL     1      -5.434  15.878  11.319  0.00  0.00    +0.000 A 
ENDROOT
BRANCH   6   7
ATOM      7  O   UNL     1      -6.295  15.487  12.302  0.00  0.00    +0.000 OA
ATOM      8  H   UNL     1      -6.887  16.231  12.504  0.00  0.00    +0.000 HD
ENDBRANCH   6   7
BRANCH   1   9
ATOM      9  O   UNL     1      -2.683  16.964   8.408  0.00  0.00    +0.000 OA
BRANCH   9  10
ATOM     10  C   UNL     1      -3.105  16.954   7.146  0.00  0.00    +0.000 C 
BRANCH  10  11
ATOM     11  C   UNL     1      -3.549  16.931   5.791  0.00  0.00    +0.000 A 
ATOM     12  C   UNL     1      -3.729  18.127   5.100  0.00  0.00    +0.000 A 
ATOM     13  C   UNL     1      -4.168  18.104   3.778  0.00  0.00    +0.000 A 
ATOM     14  C   UNL     1      -4.425  16.887   3.151  0.00  0.00    +0.000 A 
ATOM     15  C   UNL     1      -4.244  15.692   3.844  0.00  0.00    +0.000 A 
ATOM     16  C   UNL     1      -3.806  15.713   5.165  0.00  0.00    +0.000 A 
ENDBRANCH  10  11
ENDBRANCH   9  10
ENDBRANCH   1   9
TORSDOF 4
ENDMDL
MODEL 5
REMARK VINA RESULT:      -4.2     13.420     15.019
REMARK  Name = Monobenzone.pdbqt.pdb
REMARK  4 active torsions:
REMARK  status: ('A' for Active; 'I' for Inactive)
REMARK    1  A    between atoms: C_1  and  O_7
REMARK    2  A    between atoms: C_6  and  O_15
REMARK    3  A    between atoms: O_7  and  C_8
REMARK    4  A    between atoms: C_8  and  C_9
REMARK                            x       y       z     vdW  Elec       q    Type
REMARK                         _______ _______ _______ _____ _____    ______ ____
ROOT
ATOM      1  C   UNL     1     -24.181  10.164   5.376  0.00  0.00    +0.000 A 
ATOM      2  C   UNL     1     -24.926   9.631   4.322  0.00  0.00    +0.000 A 
ATOM      3  C   UNL     1     -23.825   9.350   6.452  0.00  0.00    +0.000 A 
ATOM      4  C   UNL     1     -25.312   8.293   4.342  0.00  0.00    +0.000 A 
ATOM      5  C   UNL     1     -24.210   8.012   6.478  0.00  0.00    +0.000 A 
ATOM      6  C   UNL     1     -24.951   7.494   5.421  0.00  0.00    +0.000 A 
ENDROOT
BRANCH   6   7
ATOM      7  O   UNL     1     -25.315   6.180   5.467  0.00  0.00    +0.000 OA
ATOM      8  H   UNL     1     -26.231   6.106   5.147  0.00  0.00    +0.000 HD
ENDBRANCH   6   7
BRANCH   1   9
ATOM      9  O   UNL     1     -23.755  11.467   5.445  0.00  0.00    +0.000 OA
BRANCH   9  10
ATOM     10  C   UNL     1     -23.833  12.018   6.654  0.00  0.00    +0.000 C 
BRANCH  10  11
ATOM     11  C   UNL     1     -23.923  12.595   7.955  0.00  0.00    +0.000 A 
ATOM     12  C   UNL     1     -25.058  13.317   8.315  0.00  0.00    +0.000 A 
ATOM     13  C   UNL     1     -25.144  13.885   9.585  0.00  0.00    +0.000 A 
ATOM     14  C   UNL     1     -24.097  13.729  10.490  0.00  0.00    +0.000 A 
ATOM     15  C   UNL     1     -22.963  13.005  10.127  0.00  0.00    +0.000 A 
ATOM     16  C   UNL     1     -22.875  12.437   8.859  0.00  0.00    +0.000 A 
ENDBRANCH  10  11
ENDBRANCH   9  10
ENDBRANCH   1   9
TORSDOF 4
ENDMDL
MODEL 6
REMARK VINA RESULT:      -4.0     13.251     14.493
REMARK  Name = Monobenzone.pdbqt.pdb
REMARK  4 active torsions:
REMARK  status: ('A' for Active; 'I' for Inactive)
REMARK    1  A    between atoms: C_1  and  O_7
REMARK    2  A    between atoms: C_6  and  O_15
REMARK    3  A    between atoms: O_7  and  C_8
REMARK    4  A    between atoms: C_8  and  C_9
REMARK                            x       y       z     vdW  Elec       q    Type
REMARK                         _______ _______ _______ _____ _____    ______ ____
ROOT
ATOM      1  C   UNL     1      -2.415  15.718   4.274  0.00  0.00    +0.000 A 
ATOM      2  C   UNL     1      -1.603  16.627   4.957  0.00  0.00    +0.000 A 
ATOM      3  C   UNL     1      -1.852  14.565   3.725  0.00  0.00    +0.000 A 
ATOM      4  C   UNL     1      -0.239  16.385   5.092  0.00  0.00    +0.000 A 
ATOM      5  C   UNL     1      -0.488  14.319   3.856  0.00  0.00    +0.000 A 
ATOM      6  C   UNL     1       0.309  15.232   4.539  0.00  0.00    +0.000 A 
ENDROOT
BRANCH   6   7
ATOM      7  O   UNL     1       1.642  14.970   4.656  0.00  0.00    +0.000 OA
ATOM      8  H   UNL     1       1.858  14.897   5.602  0.00  0.00    +0.000 HD
ENDBRANCH   6   7
BRANCH   1   9
ATOM      9  O   UNL     1      -3.767  15.869   4.091  0.00  0.00    +0.000 OA
BRANCH   9  10
ATOM     10  C   UNL     1      -4.203  15.568   2.871  0.00  0.00    +0.000 C 
BRANCH  10  11
ATOM     11  C   UNL     1      -4.673  15.260   1.560  0.00  0.00    +0.000 A 
ATOM     12  C   UNL     1      -5.981  15.578   1.200  0.00  0.00    +0.000 A 
ATOM     13  C   UNL     1      -6.442  15.272  -0.079  0.00  0.00    +0.000 A 
ATOM     14  C   UNL     1      -5.595  14.651  -0.994  0.00  0.00    +0.000 A 
ATOM     15  C   UNL     1      -4.287  14.335  -0.632  0.00  0.00    +0.000 A 
ATOM     16  C   UNL     1      -3.825  14.639   0.646  0.00  0.00    +0.000 A 
ENDBRANCH  10  11
ENDBRANCH   9  10
ENDBRANCH   1   9
TORSDOF 4
ENDMDL
MODEL 7
REMARK VINA RESULT:      -3.8     17.335     19.772
REMARK  Name = Monobenzone.pdbqt.pdb
REMARK  4 active torsions:
REMARK  status: ('A' for Active; 'I' for Inactive)
REMARK    1  A    between atoms: C_1  and  O_7
REMARK    2  A    between atoms: C_6  and  O_15
REMARK    3  A    between atoms: O_7  and  C_8
REMARK    4  A    between atoms: C_8  and  C_9
REMARK                            x       y       z     vdW  Elec       q    Type
REMARK                         _______ _______ _______ _____ _____    ______ ____
ROOT
ATOM      1  C   UNL     1     -23.446  17.200  11.144  0.00  0.00    +0.000 A 
ATOM      2  C   UNL     1     -24.564  16.436  11.490  0.00  0.00    +0.000 A 
ATOM      3  C   UNL     1     -22.302  16.568  10.653  0.00  0.00    +0.000 A 
ATOM      4  C   UNL     1     -24.540  15.052  11.344  0.00  0.00    +0.000 A 
ATOM      5  C   UNL     1     -22.273  15.184  10.507  0.00  0.00    +0.000 A 
ATOM      6  C   UNL     1     -23.393  14.436  10.853  0.00  0.00    +0.000 A 
ENDROOT
BRANCH   6   7
ATOM      7  O   UNL     1     -23.342  13.082  10.701  0.00  0.00    +0.000 OA
ATOM      8  H   UNL     1     -22.885  12.885   9.865  0.00  0.00    +0.000 HD
ENDBRANCH   6   7
BRANCH   1   9
ATOM      9  O   UNL     1     -23.375  18.566  11.252  0.00  0.00    +0.000 OA
BRANCH   9  10
ATOM     10  C   UNL     1     -23.241  19.023  12.495  0.00  0.00    +0.000 C 
BRANCH  10  11
ATOM     11  C   UNL     1     -23.091  19.498  13.831  0.00  0.00    +0.000 A 
ATOM     12  C   UNL     1     -21.995  20.290  14.166  0.00  0.00    +0.000 A 
ATOM     13  C   UNL     1     -21.846  20.749  15.474  0.00  0.00    +0.000 A 
ATOM     14  C   UNL     1     -22.792  20.417  16.440  0.00  0.00    +0.000 A 
ATOM     15  C   UNL     1     -23.888  19.626  16.102  0.00  0.00    +0.000 A 
ATOM     16  C   UNL     1     -24.038  19.166  14.796  0.00  0.00    +0.000 A 
ENDBRANCH  10  11
ENDBRANCH   9  10
ENDBRANCH   1   9
TORSDOF 4
ENDMDL
MODEL 8
REMARK VINA RESULT:      -3.8     17.763     20.360
REMARK  Name = Monobenzone.pdbqt.pdb
REMARK  4 active torsions:
REMARK  status: ('A' for Active; 'I' for Inactive)
REMARK    1  A    between atoms: C_1  and  O_7
REMARK    2  A    between atoms: C_6  and  O_15
REMARK    3  A    between atoms: O_7  and  C_8
REMARK    4  A    between atoms: C_8  and  C_9
REMARK                            x       y       z     vdW  Elec       q    Type
REMARK                         _______ _______ _______ _____ _____    ______ ____
ROOT
ATOM      1  C   UNL     1     -22.217  20.196  14.277  0.00  0.00    +0.000 A 
ATOM      2  C   UNL     1     -21.891  20.774  15.507  0.00  0.00    +0.000 A 
ATOM      3  C   UNL     1     -23.344  19.380  14.173  0.00  0.00    +0.000 A 
ATOM      4  C   UNL     1     -22.687  20.538  16.625  0.00  0.00    +0.000 A 
ATOM      5  C   UNL     1     -24.143  19.141  15.288  0.00  0.00    +0.000 A 
ATOM      6  C   UNL     1     -23.808  19.723  16.506  0.00  0.00    +0.000 A 
ENDROOT
BRANCH   6   7
ATOM      7  O   UNL     1     -24.605  19.475  17.585  0.00  0.00    +0.000 OA
ATOM      8  H   UNL     1     -24.357  20.091  18.296  0.00  0.00    +0.000 HD
ENDBRANCH   6   7
BRANCH   1   9
ATOM      9  O   UNL     1     -21.495  20.370  13.122  0.00  0.00    +0.000 OA
BRANCH   9  10
ATOM     10  C   UNL     1     -21.392  19.285  12.359  0.00  0.00    +0.000 C 
BRANCH  10  11
ATOM     11  C   UNL     1     -21.266  18.124  11.539  0.00  0.00    +0.000 A 
ATOM     12  C   UNL     1     -21.923  18.067  10.312  0.00  0.00    +0.000 A 
ATOM     13  C   UNL     1     -21.804  16.931   9.514  0.00  0.00    +0.000 A 
ATOM     14  C   UNL     1     -21.029  15.857   9.944  0.00  0.00    +0.000 A 
ATOM     15  C   UNL     1     -20.372  15.917  11.171  0.00  0.00    +0.000 A 
ATOM     16  C   UNL     1     -20.490  17.051  11.970  0.00  0.00    +0.000 A 
ENDBRANCH  10  11
ENDBRANCH   9  10
ENDBRANCH   1   9
TORSDOF 4
ENDMDL
MODEL 9
REMARK VINA RESULT:      -3.6     15.114     16.190
REMARK  Name = Monobenzone.pdbqt.pdb
REMARK  4 active torsions:
REMARK  status: ('A' for Active; 'I' for Inactive)
REMARK    1  A    between atoms: C_1  and  O_7
REMARK    2  A    between atoms: C_6  and  O_15
REMARK    3  A    between atoms: O_7  and  C_8
REMARK    4  A    between atoms: C_8  and  C_9
REMARK                            x       y       z     vdW  Elec       q    Type
REMARK                         _______ _______ _______ _____ _____    ______ ____
ROOT
ATOM      1  C   UNL     1      -6.153  20.097   7.490  0.00  0.00    +0.000 A 
ATOM      2  C   UNL     1      -4.977  19.876   6.769  0.00  0.00    +0.000 A 
ATOM      3  C   UNL     1      -7.329  20.421   6.813  0.00  0.00    +0.000 A 
ATOM      4  C   UNL     1      -4.977  19.976   5.380  0.00  0.00    +0.000 A 
ATOM      5  C   UNL     1      -7.334  20.523   5.424  0.00  0.00    +0.000 A 
ATOM      6  C   UNL     1      -6.157  20.299   4.718  0.00  0.00    +0.000 A 
ENDROOT
BRANCH   6   7
ATOM      7  O   UNL     1      -6.185  20.404   3.358  0.00  0.00    +0.000 OA
ATOM      8  H   UNL     1      -6.674  19.642   3.003  0.00  0.00    +0.000 HD
ENDBRANCH   6   7
BRANCH   1   9
ATOM      9  O   UNL     1      -6.252  20.021   8.857  0.00  0.00    +0.000 OA
BRANCH   9  10
ATOM     10  C   UNL     1      -5.793  18.890   9.389  0.00  0.00    +0.000 C 
BRANCH  10  11
ATOM     11  C   UNL     1      -5.311  17.681   9.971  0.00  0.00    +0.000 A 
ATOM     12  C   UNL     1      -4.087  17.156   9.565  0.00  0.00    +0.000 A 
ATOM     13  C   UNL     1      -3.619  15.971  10.131  0.00  0.00    +0.000 A 
ATOM     14  C   UNL     1      -4.375  15.316  11.099  0.00  0.00    +0.000 A 
ATOM     15  C   UNL     1      -5.599  15.844  11.504  0.00  0.00    +0.000 A 
ATOM     16  C   UNL     1      -6.069  17.027  10.940  0.00  0.00    +0.000 A 
ENDBRANCH  10  11
ENDBRANCH   9  10
ENDBRANCH   1   9
TORSDOF 4
ENDMDL
