REMARK  Name = 
REMARK  5 active torsions:
REMARK  status: ('A' for Active; 'I' for Inactive)
REMARK    1  A    between atoms: O_4  and  C_15
REMARK    2  A    between atoms: C_6  and  C_13
REMARK    3  A    between atoms: C_7  and  C_12
REMARK    4  A    between atoms: C_8  and  C_14
REMARK    5  A    between atoms: C_12  and  C_15
REMARK                            x       y       z     vdW  Elec       q    Type
REMARK                         _______ _______ _______ _____ _____    ______ ____
ROOT
ATOM      1  C   UNL     1       1.164  -0.049   0.109  0.00  0.00    +0.000 A 
ATOM      2  C   UNL     1      -1.194   0.424   0.580  0.00  0.00    +0.000 A 
ATOM      3  C   UNL     1       1.391   1.326  -0.117  0.00  0.00    +0.000 A 
ATOM      4  C   UNL     1      -0.132  -0.481   0.455  0.00  0.00    +0.000 A 
ATOM      5  C   UNL     1      -0.957   1.781   0.342  0.00  0.00    +0.000 A 
ATOM      6  C   UNL     1       0.321   2.226  -0.000  0.00  0.00    +0.000 A 
ATOM      7  C   UNL     1       2.751   1.848  -0.495  0.00  0.00    +0.000 C 
ENDROOT
BRANCH   1  11
ATOM      8  F   UNL     1       3.296  -0.839   0.866  0.00  0.00    +0.000 F 
ATOM      9  F   UNL     1       1.877  -2.348   0.222  0.00  0.00    +0.000 F 
ATOM     10  F   UNL     1       2.850  -1.083  -1.250  0.00  0.00    +0.000 F 
ATOM     11  C   UNL     1       2.279  -1.066  -0.013  0.00  0.00    +0.000 C 
ENDBRANCH   1  11
BRANCH   2  12
ATOM     12  C   UNL     1      -2.580  -0.061   0.934  0.00  0.00    +0.000 C 
BRANCH  12  14
ATOM     13  O   UNL     1      -3.046  -0.602  -1.420  0.00  0.00    +0.000 OA
ATOM     14  C   UNL     1      -3.396  -0.503  -0.256  0.00  0.00    +0.000 C 
BRANCH  14  15
ATOM     15  O   UNL     1      -4.658  -0.831   0.097  0.00  0.00    +0.000 OA
ATOM     16  H   UNL     1      -5.072  -1.105  -0.750  0.00  0.00    +0.000 HD
ENDBRANCH  14  15
ENDBRANCH  12  14
ENDBRANCH   2  12
TORSDOF 4
