MODEL 1
REMARK VINA RESULT:      -6.1      0.000      0.000
REMARK  Name = 
REMARK  5 active torsions:
REMARK  status: ('A' for Active; 'I' for Inactive)
REMARK    1  A    between atoms: O_4  and  C_15
REMARK    2  A    between atoms: C_6  and  C_13
REMARK    3  A    between atoms: C_7  and  C_12
REMARK    4  A    between atoms: C_8  and  C_14
REMARK    5  A    between atoms: C_12  and  C_15
REMARK                            x       y       z     vdW  Elec       q    Type
REMARK                         _______ _______ _______ _____ _____    ______ ____
ROOT
ATOM      1  C   UNL     1     -14.457  11.827  -1.961  0.00  0.00    +0.000 A 
ATOM      2  C   UNL     1     -15.190  10.060  -0.429  0.00  0.00    +0.000 A 
ATOM      3  C   UNL     1     -14.550  10.924  -3.042  0.00  0.00    +0.000 A 
ATOM      4  C   UNL     1     -14.779  11.378  -0.664  0.00  0.00    +0.000 A 
ATOM      5  C   UNL     1     -15.266   9.174  -1.507  0.00  0.00    +0.000 A 
ATOM      6  C   UNL     1     -14.952   9.602  -2.798  0.00  0.00    +0.000 A 
ATOM      7  C   UNL     1     -14.214  11.341  -4.448  0.00  0.00    +0.000 C 
ENDROOT
BRANCH   1  11
ATOM      8  F   UNL     1     -12.706  13.366  -2.517  0.00  0.00    +0.000 F 
ATOM      9  F   UNL     1     -14.710  13.911  -3.144  0.00  0.00    +0.000 F 
ATOM     10  F   UNL     1     -14.167  14.026  -1.045  0.00  0.00    +0.000 F 
ATOM     11  C   UNL     1     -14.019  13.262  -2.164  0.00  0.00    +0.000 C 
ENDBRANCH   1  11
BRANCH   2  12
ATOM     12  C   UNL     1     -15.513   9.593   0.971  0.00  0.00    +0.000 C 
BRANCH  12  14
ATOM     13  O   UNL     1     -17.018   7.653   1.124  0.00  0.00    +0.000 OA
ATOM     14  C   UNL     1     -16.826   8.857   1.082  0.00  0.00    +0.000 C 
BRANCH  14  15
ATOM     15  O   UNL     1     -17.872   9.708   1.157  0.00  0.00    +0.000 OA
ATOM     16  H   UNL     1     -17.769  10.124   2.040  0.00  0.00    +0.000 HD
ENDBRANCH  14  15
ENDBRANCH  12  14
ENDBRANCH   2  12
TORSDOF 4
ENDMDL
MODEL 2
REMARK VINA RESULT:      -6.0      4.069      5.291
REMARK  Name = 
REMARK  5 active torsions:
REMARK  status: ('A' for Active; 'I' for Inactive)
REMARK    1  A    between atoms: O_4  and  C_15
REMARK    2  A    between atoms: C_6  and  C_13
REMARK    3  A    between atoms: C_7  and  C_12
REMARK    4  A    between atoms: C_8  and  C_14
REMARK    5  A    between atoms: C_12  and  C_15
REMARK                            x       y       z     vdW  Elec       q    Type
REMARK                         _______ _______ _______ _____ _____    ______ ____
ROOT
ATOM      1  C   UNL     1     -15.955   9.460  -0.018  0.00  0.00    +0.000 A 
ATOM      2  C   UNL     1     -14.736  11.251  -1.163  0.00  0.00    +0.000 A 
ATOM      3  C   UNL     1     -15.957   8.704  -1.211  0.00  0.00    +0.000 A 
ATOM      4  C   UNL     1     -15.342  10.729  -0.013  0.00  0.00    +0.000 A 
ATOM      5  C   UNL     1     -14.755  10.496  -2.339  0.00  0.00    +0.000 A 
ATOM      6  C   UNL     1     -15.357   9.237  -2.362  0.00  0.00    +0.000 A 
ATOM      7  C   UNL     1     -16.601   7.345  -1.281  0.00  0.00    +0.000 C 
ENDROOT
BRANCH   1  11
ATOM      8  F   UNL     1     -16.676   7.578   1.278  0.00  0.00    +0.000 F 
ATOM      9  F   UNL     1     -15.924   9.286   2.385  0.00  0.00    +0.000 F 
ATOM     10  F   UNL     1     -17.870   9.391   1.427  0.00  0.00    +0.000 F 
ATOM     11  C   UNL     1     -16.597   8.939   1.250  0.00  0.00    +0.000 C 
ENDBRANCH   1  11
BRANCH   2  12
ATOM     12  C   UNL     1     -14.099  12.621  -1.142  0.00  0.00    +0.000 C 
BRANCH  12  14
ATOM     13  O   UNL     1     -12.924  13.346  -3.178  0.00  0.00    +0.000 OA
ATOM     14  C   UNL     1     -13.938  13.241  -2.508  0.00  0.00    +0.000 C 
BRANCH  14  15
ATOM     15  O   UNL     1     -15.113  13.700  -2.991  0.00  0.00    +0.000 OA
ATOM     16  H   UNL     1     -15.461  12.944  -3.512  0.00  0.00    +0.000 HD
ENDBRANCH  14  15
ENDBRANCH  12  14
ENDBRANCH   2  12
TORSDOF 4
ENDMDL
MODEL 3
REMARK VINA RESULT:      -5.7      4.129      5.616
REMARK  Name = 
REMARK  5 active torsions:
REMARK  status: ('A' for Active; 'I' for Inactive)
REMARK    1  A    between atoms: O_4  and  C_15
REMARK    2  A    between atoms: C_6  and  C_13
REMARK    3  A    between atoms: C_7  and  C_12
REMARK    4  A    between atoms: C_8  and  C_14
REMARK    5  A    between atoms: C_12  and  C_15
REMARK                            x       y       z     vdW  Elec       q    Type
REMARK                         _______ _______ _______ _____ _____    ______ ____
ROOT
ATOM      1  C   UNL     1     -15.113   9.403  -1.781  0.00  0.00    +0.000 A 
ATOM      2  C   UNL     1     -14.422  11.544  -2.754  0.00  0.00    +0.000 A 
ATOM      3  C   UNL     1     -15.158  10.002  -0.504  0.00  0.00    +0.000 A 
ATOM      4  C   UNL     1     -14.743  10.187  -2.892  0.00  0.00    +0.000 A 
ATOM      5  C   UNL     1     -14.459  12.121  -1.481  0.00  0.00    +0.000 A 
ATOM      6  C   UNL     1     -14.825  11.359  -0.370  0.00  0.00    +0.000 A 
ATOM      7  C   UNL     1     -15.540   9.216   0.722  0.00  0.00    +0.000 C 
ENDROOT
BRANCH   1  11
ATOM      8  F   UNL     1     -16.729   7.642  -1.613  0.00  0.00    +0.000 F 
ATOM      9  F   UNL     1     -15.344   7.529  -3.278  0.00  0.00    +0.000 F 
ATOM     10  F   UNL     1     -14.649   7.106  -1.265  0.00  0.00    +0.000 F 
ATOM     11  C   UNL     1     -15.452   7.941  -1.983  0.00  0.00    +0.000 C 
ENDBRANCH   1  11
BRANCH   2  12
ATOM     12  C   UNL     1     -14.010  12.363  -3.954  0.00  0.00    +0.000 C 
BRANCH  12  14
ATOM     13  O   UNL     1     -13.747  14.798  -3.724  0.00  0.00    +0.000 OA
ATOM     14  C   UNL     1     -14.440  13.808  -3.886  0.00  0.00    +0.000 C 
BRANCH  14  15
ATOM     15  O   UNL     1     -15.774  13.940  -4.051  0.00  0.00    +0.000 OA
ATOM     16  H   UNL     1     -15.910  13.750  -5.004  0.00  0.00    +0.000 HD
ENDBRANCH  14  15
ENDBRANCH  12  14
ENDBRANCH   2  12
TORSDOF 4
ENDMDL
MODEL 4
REMARK VINA RESULT:      -5.4      3.746      4.963
REMARK  Name = 
REMARK  5 active torsions:
REMARK  status: ('A' for Active; 'I' for Inactive)
REMARK    1  A    between atoms: O_4  and  C_15
REMARK    2  A    between atoms: C_6  and  C_13
REMARK    3  A    between atoms: C_7  and  C_12
REMARK    4  A    between atoms: C_8  and  C_14
REMARK    5  A    between atoms: C_12  and  C_15
REMARK                            x       y       z     vdW  Elec       q    Type
REMARK                         _______ _______ _______ _____ _____    ______ ____
ROOT
ATOM      1  C   UNL     1     -15.050   9.183  -2.478  0.00  0.00    +0.000 A 
ATOM      2  C   UNL     1     -14.708  11.214  -1.151  0.00  0.00    +0.000 A 
ATOM      3  C   UNL     1     -15.398   8.479  -1.305  0.00  0.00    +0.000 A 
ATOM      4  C   UNL     1     -14.707  10.546  -2.382  0.00  0.00    +0.000 A 
ATOM      5  C   UNL     1     -15.043  10.502   0.004  0.00  0.00    +0.000 A 
ATOM      6  C   UNL     1     -15.387   9.151  -0.073  0.00  0.00    +0.000 A 
ATOM      7  C   UNL     1     -15.767   7.020  -1.342  0.00  0.00    +0.000 C 
ENDROOT
BRANCH   1  11
ATOM      8  F   UNL     1     -14.333   7.338  -3.829  0.00  0.00    +0.000 F 
ATOM      9  F   UNL     1     -16.277   8.180  -4.293  0.00  0.00    +0.000 F 
ATOM     10  F   UNL     1     -14.474   9.277  -4.806  0.00  0.00    +0.000 F 
ATOM     11  C   UNL     1     -15.035   8.506  -3.832  0.00  0.00    +0.000 C 
ENDBRANCH   1  11
BRANCH   2  12
ATOM     12  C   UNL     1     -14.320  12.672  -1.066  0.00  0.00    +0.000 C 
BRANCH  12  14
ATOM     13  O   UNL     1     -12.877  13.379  -2.928  0.00  0.00    +0.000 OA
ATOM     14  C   UNL     1     -13.972  13.290  -2.398  0.00  0.00    +0.000 C 
BRANCH  14  15
ATOM     15  O   UNL     1     -15.066  13.768  -3.029  0.00  0.00    +0.000 OA
ATOM     16  H   UNL     1     -15.396  12.995  -3.538  0.00  0.00    +0.000 HD
ENDBRANCH  14  15
ENDBRANCH  12  14
ENDBRANCH   2  12
TORSDOF 4
ENDMDL
MODEL 5
REMARK VINA RESULT:      -4.7     11.718     12.689
REMARK  Name = 
REMARK  5 active torsions:
REMARK  status: ('A' for Active; 'I' for Inactive)
REMARK    1  A    between atoms: O_4  and  C_15
REMARK    2  A    between atoms: C_6  and  C_13
REMARK    3  A    between atoms: C_7  and  C_12
REMARK    4  A    between atoms: C_8  and  C_14
REMARK    5  A    between atoms: C_12  and  C_15
REMARK                            x       y       z     vdW  Elec       q    Type
REMARK                         _______ _______ _______ _____ _____    ______ ____
ROOT
ATOM      1  C   UNL     1      -8.148   1.461   3.538  0.00  0.00    +0.000 A 
ATOM      2  C   UNL     1     -10.201   1.054   2.263  0.00  0.00    +0.000 A 
ATOM      3  C   UNL     1      -7.417   1.527   2.332  0.00  0.00    +0.000 A 
ATOM      4  C   UNL     1      -9.536   1.223   3.485  0.00  0.00    +0.000 A 
ATOM      5  C   UNL     1      -9.463   1.111   1.078  0.00  0.00    +0.000 A 
ATOM      6  C   UNL     1      -8.087   1.347   1.113  0.00  0.00    +0.000 A 
ATOM      7  C   UNL     1      -5.932   1.771   2.323  0.00  0.00    +0.000 C 
ENDROOT
BRANCH   1  11
ATOM      8  F   UNL     1      -7.097   2.926   5.116  0.00  0.00    +0.000 F 
ATOM      9  F   UNL     1      -8.267   1.295   5.939  0.00  0.00    +0.000 F 
ATOM     10  F   UNL     1      -6.345   0.887   5.014  0.00  0.00    +0.000 F 
ATOM     11  C   UNL     1      -7.475   1.637   4.882  0.00  0.00    +0.000 C 
ENDBRANCH   1  11
BRANCH   2  12
ATOM     12  C   UNL     1     -11.687   0.783   2.228  0.00  0.00    +0.000 C 
BRANCH  12  14
ATOM     13  O   UNL     1     -12.053  -0.885   0.457  0.00  0.00    +0.000 OA
ATOM     14  C   UNL     1     -12.179   0.241   0.908  0.00  0.00    +0.000 C 
BRANCH  14  15
ATOM     15  O   UNL     1     -12.849   1.178   0.202  0.00  0.00    +0.000 OA
ATOM     16  H   UNL     1     -12.153   1.824  -0.045  0.00  0.00    +0.000 HD
ENDBRANCH  14  15
ENDBRANCH  12  14
ENDBRANCH   2  12
TORSDOF 4
ENDMDL
MODEL 6
REMARK VINA RESULT:      -4.7     18.964     20.761
REMARK  Name = 
REMARK  5 active torsions:
REMARK  status: ('A' for Active; 'I' for Inactive)
REMARK    1  A    between atoms: O_4  and  C_15
REMARK    2  A    between atoms: C_6  and  C_13
REMARK    3  A    between atoms: C_7  and  C_12
REMARK    4  A    between atoms: C_8  and  C_14
REMARK    5  A    between atoms: C_12  and  C_15
REMARK                            x       y       z     vdW  Elec       q    Type
REMARK                         _______ _______ _______ _____ _____    ______ ____
ROOT
ATOM      1  C   UNL     1     -10.080   5.630  17.094  0.00  0.00    +0.000 A 
ATOM      2  C   UNL     1     -11.212   4.679  19.048  0.00  0.00    +0.000 A 
ATOM      3  C   UNL     1      -9.560   6.664  17.902  0.00  0.00    +0.000 A 
ATOM      4  C   UNL     1     -10.903   4.649  17.682  0.00  0.00    +0.000 A 
ATOM      5  C   UNL     1     -10.700   5.715  19.834  0.00  0.00    +0.000 A 
ATOM      6  C   UNL     1      -9.882   6.694  19.268  0.00  0.00    +0.000 A 
ATOM      7  C   UNL     1      -8.681   7.743  17.332  0.00  0.00    +0.000 C 
ENDROOT
BRANCH   1  11
ATOM      8  F   UNL     1     -10.633   4.736  14.940  0.00  0.00    +0.000 F 
ATOM      9  F   UNL     1      -9.848   6.758  14.977  0.00  0.00    +0.000 F 
ATOM     10  F   UNL     1      -8.524   5.079  15.352  0.00  0.00    +0.000 F 
ATOM     11  C   UNL     1      -9.774   5.553  15.613  0.00  0.00    +0.000 C 
ENDBRANCH   1  11
BRANCH   2  12
ATOM     12  C   UNL     1     -12.111   3.628  19.657  0.00  0.00    +0.000 C 
BRANCH  12  14
ATOM     13  O   UNL     1     -10.464   1.807  19.807  0.00  0.00    +0.000 OA
ATOM     14  C   UNL     1     -11.578   2.222  19.534  0.00  0.00    +0.000 C 
BRANCH  14  15
ATOM     15  O   UNL     1     -12.519   1.369  19.075  0.00  0.00    +0.000 OA
ATOM     16  H   UNL     1     -13.231   1.962  18.750  0.00  0.00    +0.000 HD
ENDBRANCH  14  15
ENDBRANCH  12  14
ENDBRANCH   2  12
TORSDOF 4
ENDMDL
MODEL 7
REMARK VINA RESULT:      -4.7     24.374     25.493
REMARK  Name = 
REMARK  5 active torsions:
REMARK  status: ('A' for Active; 'I' for Inactive)
REMARK    1  A    between atoms: O_4  and  C_15
REMARK    2  A    between atoms: C_6  and  C_13
REMARK    3  A    between atoms: C_7  and  C_12
REMARK    4  A    between atoms: C_8  and  C_14
REMARK    5  A    between atoms: C_12  and  C_15
REMARK                            x       y       z     vdW  Elec       q    Type
REMARK                         _______ _______ _______ _____ _____    ______ ____
ROOT
ATOM      1  C   UNL     1     -13.470  17.827  23.232  0.00  0.00    +0.000 A 
ATOM      2  C   UNL     1     -14.685  19.342  21.737  0.00  0.00    +0.000 A 
ATOM      3  C   UNL     1     -12.494  17.628  22.231  0.00  0.00    +0.000 A 
ATOM      4  C   UNL     1     -14.556  18.685  22.968  0.00  0.00    +0.000 A 
ATOM      5  C   UNL     1     -13.718  19.126  20.752  0.00  0.00    +0.000 A 
ATOM      6  C   UNL     1     -12.635  18.281  20.997  0.00  0.00    +0.000 A 
ATOM      7  C   UNL     1     -11.315  16.719  22.451  0.00  0.00    +0.000 C 
ENDROOT
BRANCH   1  11
ATOM      8  F   UNL     1     -13.384  15.781  24.477  0.00  0.00    +0.000 F 
ATOM      9  F   UNL     1     -12.238  17.444  25.267  0.00  0.00    +0.000 F 
ATOM     10  F   UNL     1     -14.404  17.460  25.412  0.00  0.00    +0.000 F 
ATOM     11  C   UNL     1     -13.375  17.140  24.578  0.00  0.00    +0.000 C 
ENDBRANCH   1  11
BRANCH   2  12
ATOM     12  C   UNL     1     -15.867  20.243  21.467  0.00  0.00    +0.000 C 
BRANCH  12  14
ATOM     13  O   UNL     1     -17.827  18.782  21.196  0.00  0.00    +0.000 OA
ATOM     14  C   UNL     1     -17.199  19.626  21.813  0.00  0.00    +0.000 C 
BRANCH  14  15
ATOM     15  O   UNL     1     -17.686  20.106  22.978  0.00  0.00    +0.000 OA
ATOM     16  H   UNL     1     -16.887  20.199  23.543  0.00  0.00    +0.000 HD
ENDBRANCH  14  15
ENDBRANCH  12  14
ENDBRANCH   2  12
TORSDOF 4
ENDMDL
MODEL 8
REMARK VINA RESULT:      -4.5     19.460     21.159
REMARK  Name = 
REMARK  5 active torsions:
REMARK  status: ('A' for Active; 'I' for Inactive)
REMARK    1  A    between atoms: O_4  and  C_15
REMARK    2  A    between atoms: C_6  and  C_13
REMARK    3  A    between atoms: C_7  and  C_12
REMARK    4  A    between atoms: C_8  and  C_14
REMARK    5  A    between atoms: C_12  and  C_15
REMARK                            x       y       z     vdW  Elec       q    Type
REMARK                         _______ _______ _______ _____ _____    ______ ____
ROOT
ATOM      1  C   UNL     1     -10.108   5.858  17.272  0.00  0.00    +0.000 A 
ATOM      2  C   UNL     1     -11.198   5.975  19.464  0.00  0.00    +0.000 A 
ATOM      3  C   UNL     1      -9.171   6.827  17.690  0.00  0.00    +0.000 A 
ATOM      4  C   UNL     1     -11.113   5.445  18.170  0.00  0.00    +0.000 A 
ATOM      5  C   UNL     1     -10.270   6.943  19.860  0.00  0.00    +0.000 A 
ATOM      6  C   UNL     1      -9.267   7.361  18.983  0.00  0.00    +0.000 A 
ATOM      7  C   UNL     1      -8.079   7.313  16.775  0.00  0.00    +0.000 C 
ENDROOT
BRANCH   1  11
ATOM      8  F   UNL     1      -9.008   4.401  15.719  0.00  0.00    +0.000 F 
ATOM      9  F   UNL     1     -11.168   4.529  15.563  0.00  0.00    +0.000 F 
ATOM     10  F   UNL     1      -9.937   6.191  14.901  0.00  0.00    +0.000 F 
ATOM     11  C   UNL     1     -10.058   5.255  15.884  0.00  0.00    +0.000 C 
ENDBRANCH   1  11
BRANCH   2  12
ATOM     12  C   UNL     1     -12.293   5.533  20.405  0.00  0.00    +0.000 C 
BRANCH  12  14
ATOM     13  O   UNL     1     -11.093   4.813  22.429  0.00  0.00    +0.000 OA
ATOM     14  C   UNL     1     -11.889   5.541  21.860  0.00  0.00    +0.000 C 
BRANCH  14  15
ATOM     15  O   UNL     1     -12.519   6.518  22.548  0.00  0.00    +0.000 OA
ATOM     16  H   UNL     1     -11.865   7.249  22.564  0.00  0.00    +0.000 HD
ENDBRANCH  14  15
ENDBRANCH  12  14
ENDBRANCH   2  12
TORSDOF 4
ENDMDL
MODEL 9
REMARK VINA RESULT:      -4.3     12.084     13.790
REMARK  Name = 
REMARK  5 active torsions:
REMARK  status: ('A' for Active; 'I' for Inactive)
REMARK    1  A    between atoms: O_4  and  C_15
REMARK    2  A    between atoms: C_6  and  C_13
REMARK    3  A    between atoms: C_7  and  C_12
REMARK    4  A    between atoms: C_8  and  C_14
REMARK    5  A    between atoms: C_12  and  C_15
REMARK                            x       y       z     vdW  Elec       q    Type
REMARK                         _______ _______ _______ _____ _____    ______ ____
ROOT
ATOM      1  C   UNL     1     -22.245  14.837   9.929  0.00  0.00    +0.000 A 
ATOM      2  C   UNL     1     -23.064  12.734   8.973  0.00  0.00    +0.000 A 
ATOM      3  C   UNL     1     -23.548  15.131  10.388  0.00  0.00    +0.000 A 
ATOM      4  C   UNL     1     -22.022  13.637   9.224  0.00  0.00    +0.000 A 
ATOM      5  C   UNL     1     -24.350  13.044   9.423  0.00  0.00    +0.000 A 
ATOM      6  C   UNL     1     -24.588  14.227  10.124  0.00  0.00    +0.000 A 
ATOM      7  C   UNL     1     -23.850  16.399  11.140  0.00  0.00    +0.000 C 
ENDROOT
BRANCH   1  11
ATOM      8  F   UNL     1     -20.983  16.154  11.483  0.00  0.00    +0.000 F 
ATOM      9  F   UNL     1     -19.872  15.249   9.855  0.00  0.00    +0.000 F 
ATOM     10  F   UNL     1     -21.181  16.936   9.462  0.00  0.00    +0.000 F 
ATOM     11  C   UNL     1     -21.087  15.780  10.176  0.00  0.00    +0.000 C 
ENDBRANCH   1  11
BRANCH   2  12
ATOM     12  C   UNL     1     -22.808  11.461   8.200  0.00  0.00    +0.000 C 
BRANCH  12  14
ATOM     13  O   UNL     1     -24.100  10.479   6.352  0.00  0.00    +0.000 OA
ATOM     14  C   UNL     1     -23.499  11.411   6.860  0.00  0.00    +0.000 C 
BRANCH  14  15
ATOM     15  O   UNL     1     -23.412  12.591   6.208  0.00  0.00    +0.000 OA
ATOM     16  H   UNL     1     -22.619  13.015   6.600  0.00  0.00    +0.000 HD
ENDBRANCH  14  15
ENDBRANCH  12  14
ENDBRANCH   2  12
TORSDOF 4
ENDMDL
