MODEL 1
REMARK VINA RESULT:      -6.1      0.000      0.000
REMARK  Name = OTSSP167.pdbqt.pdb
REMARK  7 active torsions:
REMARK  status: ('A' for Active; 'I' for Inactive)
REMARK    1  A    between atoms: C_5  and  N_19
REMARK    2  A    between atoms: C_7  and  C_31
REMARK    3  A    between atoms: C_11  and  C_13
REMARK    4  A    between atoms: C_18  and  O_34
REMARK    5  A    between atoms: N_19  and  C_21
REMARK    6  A    between atoms: C_24  and  C_27
REMARK    7  A    between atoms: C_27  and  N_28
REMARK                            x       y       z     vdW  Elec       q    Type
REMARK                         _______ _______ _______ _____ _____    ______ ____
ROOT
ATOM      1  N   UNL     1     -15.011  11.799  -3.083  0.00  0.00    +0.000 NA
ATOM      2  N   UNL     1     -13.299  15.025  -3.215  0.00  0.00    +0.000 NA
ATOM      3  C   UNL     1     -14.752  13.345  -4.946  0.00  0.00    +0.000 A 
ATOM      4  C   UNL     1     -14.550  12.969  -3.591  0.00  0.00    +0.000 A 
ATOM      5  C   UNL     1     -14.205  14.568  -5.388  0.00  0.00    +0.000 A 
ATOM      6  C   UNL     1     -13.809  13.859  -2.785  0.00  0.00    +0.000 A 
ATOM      7  C   UNL     1     -13.503  15.356  -4.503  0.00  0.00    +0.000 A 
ATOM      8  C   UNL     1     -13.596  13.497  -1.467  0.00  0.00    +0.000 A 
ATOM      9  C   UNL     1     -14.796  11.474  -1.784  0.00  0.00    +0.000 A 
ATOM     10  C   UNL     1     -14.084  12.308  -0.945  0.00  0.00    +0.000 A 
ENDROOT
BRANCH   9  13
ATOM     11 CL   UNL     1     -16.240   6.656  -2.966  0.00  0.00    +0.000 Cl
ATOM     12 CL   UNL     1     -16.889   8.701   2.043  0.00  0.00    +0.000 Cl
ATOM     13  C   UNL     1     -15.374  10.205  -1.333  0.00  0.00    +0.000 A 
ATOM     14  C   UNL     1     -15.818  10.024  -0.018  0.00  0.00    +0.000 A 
ATOM     15  C   UNL     1     -15.517   9.127  -2.216  0.00  0.00    +0.000 A 
ATOM     16  C   UNL     1     -16.081   7.921  -1.809  0.00  0.00    +0.000 A 
ATOM     17  C   UNL     1     -16.379   8.818   0.403  0.00  0.00    +0.000 A 
ATOM     18  C   UNL     1     -16.515   7.758  -0.494  0.00  0.00    +0.000 A 
BRANCH  18  19
ATOM     19  O   UNL     1     -17.070   6.577  -0.077  0.00  0.00    +0.000 OA
ATOM     20  H   UNL     1     -17.018   5.937  -0.812  0.00  0.00    +0.000 HD
ENDBRANCH  18  19
ENDBRANCH   9  13
BRANCH   5  21
ATOM     21  C   UNL     1     -14.310  15.036  -6.768  0.00  0.00    +0.000 C 
ATOM     22  O   UNL     1     -13.869  14.448  -7.741  0.00  0.00    +0.000 OA
ATOM     23  C   UNL     1     -14.937  16.338  -7.164  0.00  0.00    +0.000 C 
ENDBRANCH   5  21
BRANCH   3  24
ATOM     24  N   UNL     1     -15.570  12.594  -5.850  0.00  0.00    +0.000 N 
ATOM     25  H   UNL     1     -16.273  13.148  -6.346  0.00  0.00    +0.000 HD
BRANCH  24  26
ATOM     26  C   UNL     1     -15.267  11.415  -6.472  0.00  0.00    +0.000 A 
ATOM     27  C   UNL     1     -16.050  10.257  -6.125  0.00  0.00    +0.000 A 
ATOM     28  C   UNL     1     -15.510   8.818  -5.914  0.00  0.00    +0.000 A 
ATOM     29  C   UNL     1     -14.125   8.431  -6.026  0.00  0.00    +0.000 A 
ATOM     30  C   UNL     1     -13.335   9.593  -6.348  0.00  0.00    +0.000 A 
ATOM     31  C   UNL     1     -13.879  11.028  -6.557  0.00  0.00    +0.000 A 
BRANCH  29  32
ATOM     32  C   UNL     1     -13.638   7.107  -5.972  0.00  0.00    +0.000 C 
BRANCH  32  33
ATOM     33  N   UNL     1     -13.140   5.743  -5.935  0.00  0.00    +0.000 NA
ATOM     34  C   UNL     1     -13.283   5.265  -4.569  0.00  0.00    +0.000 C 
ATOM     35  C   UNL     1     -11.716   5.793  -6.222  0.00  0.00    +0.000 C 
ENDBRANCH  32  33
ENDBRANCH  29  32
ENDBRANCH  24  26
ENDBRANCH   3  24
TORSDOF 7
ENDMDL
MODEL 2
REMARK VINA RESULT:      -5.7     23.743     26.252
REMARK  Name = OTSSP167.pdbqt.pdb
REMARK  7 active torsions:
REMARK  status: ('A' for Active; 'I' for Inactive)
REMARK    1  A    between atoms: C_5  and  N_19
REMARK    2  A    between atoms: C_7  and  C_31
REMARK    3  A    between atoms: C_11  and  C_13
REMARK    4  A    between atoms: C_18  and  O_34
REMARK    5  A    between atoms: N_19  and  C_21
REMARK    6  A    between atoms: C_24  and  C_27
REMARK    7  A    between atoms: C_27  and  N_28
REMARK                            x       y       z     vdW  Elec       q    Type
REMARK                         _______ _______ _______ _____ _____    ______ ____
ROOT
ATOM      1  N   UNL     1     -12.847   4.494  20.389  0.00  0.00    +0.000 NA
ATOM      2  N   UNL     1     -10.611   2.129  18.728  0.00  0.00    +0.000 NA
ATOM      3  C   UNL     1     -10.746   4.897  19.224  0.00  0.00    +0.000 A 
ATOM      4  C   UNL     1     -11.768   4.036  19.706  0.00  0.00    +0.000 A 
ATOM      5  C   UNL     1      -9.681   4.327  18.497  0.00  0.00    +0.000 A 
ATOM      6  C   UNL     1     -11.634   2.661  19.415  0.00  0.00    +0.000 A 
ATOM      7  C   UNL     1      -9.658   2.968  18.281  0.00  0.00    +0.000 A 
ATOM      8  C   UNL     1     -12.629   1.815  19.870  0.00  0.00    +0.000 A 
ATOM      9  C   UNL     1     -13.803   3.641  20.830  0.00  0.00    +0.000 A 
ATOM     10  C   UNL     1     -13.723   2.285  20.582  0.00  0.00    +0.000 A 
ENDROOT
BRANCH   9  13
ATOM     11 CL   UNL     1     -15.511   5.465  25.353  0.00  0.00    +0.000 Cl
ATOM     12 CL   UNL     1     -18.683   5.341  20.924  0.00  0.00    +0.000 Cl
ATOM     13  C   UNL     1     -14.902   4.241  21.591  0.00  0.00    +0.000 A 
ATOM     14  C   UNL     1     -16.147   4.501  21.007  0.00  0.00    +0.000 A 
ATOM     15  C   UNL     1     -14.744   4.566  22.945  0.00  0.00    +0.000 A 
ATOM     16  C   UNL     1     -15.784   5.120  23.688  0.00  0.00    +0.000 A 
ATOM     17  C   UNL     1     -17.193   5.062  21.741  0.00  0.00    +0.000 A 
ATOM     18  C   UNL     1     -17.016   5.373  23.089  0.00  0.00    +0.000 A 
BRANCH  18  19
ATOM     19  O   UNL     1     -18.048   5.920  23.805  0.00  0.00    +0.000 OA
ATOM     20  H   UNL     1     -18.030   6.887  23.680  0.00  0.00    +0.000 HD
ENDBRANCH  18  19
ENDBRANCH   9  13
BRANCH   5  21
ATOM     21  C   UNL     1      -8.600   5.119  17.915  0.00  0.00    +0.000 C 
ATOM     22  O   UNL     1      -8.753   6.088  17.191  0.00  0.00    +0.000 OA
ATOM     23  C   UNL     1      -7.145   4.808  18.095  0.00  0.00    +0.000 C 
ENDBRANCH   5  21
BRANCH   3  24
ATOM     24  N   UNL     1     -10.696   6.295  19.531  0.00  0.00    +0.000 N 
ATOM     25  H   UNL     1     -11.447   6.849  19.110  0.00  0.00    +0.000 HD
BRANCH  24  26
ATOM     26  C   UNL     1     -10.120   6.895  20.616  0.00  0.00    +0.000 A 
ATOM     27  C   UNL     1     -10.995   7.503  21.586  0.00  0.00    +0.000 A 
ATOM     28  C   UNL     1     -10.763   8.857  22.305  0.00  0.00    +0.000 A 
ATOM     29  C   UNL     1      -9.625   9.719  22.095  0.00  0.00    +0.000 A 
ATOM     30  C   UNL     1      -8.760   9.126  21.106  0.00  0.00    +0.000 A 
ATOM     31  C   UNL     1      -8.997   7.774  20.389  0.00  0.00    +0.000 A 
BRANCH  29  32
ATOM     32  C   UNL     1      -9.332  10.883  22.839  0.00  0.00    +0.000 C 
BRANCH  32  33
ATOM     33  N   UNL     1      -9.023  12.088  23.589  0.00  0.00    +0.000 NA
ATOM     34  C   UNL     1      -9.501  13.219  22.809  0.00  0.00    +0.000 C 
ATOM     35  C   UNL     1      -7.575  12.198  23.656  0.00  0.00    +0.000 C 
ENDBRANCH  32  33
ENDBRANCH  29  32
ENDBRANCH  24  26
ENDBRANCH   3  24
TORSDOF 7
ENDMDL
MODEL 3
REMARK VINA RESULT:      -5.7      4.107      8.962
REMARK  Name = OTSSP167.pdbqt.pdb
REMARK  7 active torsions:
REMARK  status: ('A' for Active; 'I' for Inactive)
REMARK    1  A    between atoms: C_5  and  N_19
REMARK    2  A    between atoms: C_7  and  C_31
REMARK    3  A    between atoms: C_11  and  C_13
REMARK    4  A    between atoms: C_18  and  O_34
REMARK    5  A    between atoms: N_19  and  C_21
REMARK    6  A    between atoms: C_24  and  C_27
REMARK    7  A    between atoms: C_27  and  N_28
REMARK                            x       y       z     vdW  Elec       q    Type
REMARK                         _______ _______ _______ _____ _____    ______ ____
ROOT
ATOM      1  N   UNL     1     -15.520   8.989  -2.771  0.00  0.00    +0.000 NA
ATOM      2  N   UNL     1     -16.166   5.583  -3.923  0.00  0.00    +0.000 NA
ATOM      3  C   UNL     1     -16.641   7.151  -1.634  0.00  0.00    +0.000 A 
ATOM      4  C   UNL     1     -15.974   7.711  -2.756  0.00  0.00    +0.000 A 
ATOM      5  C   UNL     1     -17.047   5.803  -1.704  0.00  0.00    +0.000 A 
ATOM      6  C   UNL     1     -15.768   6.864  -3.865  0.00  0.00    +0.000 A 
ATOM      7  C   UNL     1     -16.793   5.077  -2.846  0.00  0.00    +0.000 A 
ATOM      8  C   UNL     1     -15.109   7.396  -4.959  0.00  0.00    +0.000 A 
ATOM      9  C   UNL     1     -14.885   9.488  -3.860  0.00  0.00    +0.000 A 
ATOM     10  C   UNL     1     -14.661   8.709  -4.978  0.00  0.00    +0.000 A 
ENDROOT
BRANCH   9  13
ATOM     11 CL   UNL     1     -13.122  13.678  -6.316  0.00  0.00    +0.000 Cl
ATOM     12 CL   UNL     1     -14.098  13.690  -0.955  0.00  0.00    +0.000 Cl
ATOM     13  C   UNL     1     -14.474  10.892  -3.780  0.00  0.00    +0.000 A 
ATOM     14  C   UNL     1     -14.469  11.591  -2.568  0.00  0.00    +0.000 A 
ATOM     15  C   UNL     1     -14.055  11.583  -4.925  0.00  0.00    +0.000 A 
ATOM     16  C   UNL     1     -13.644  12.913  -4.865  0.00  0.00    +0.000 A 
ATOM     17  C   UNL     1     -14.064  12.925  -2.497  0.00  0.00    +0.000 A 
ATOM     18  C   UNL     1     -13.647  13.593  -3.648  0.00  0.00    +0.000 A 
BRANCH  18  19
ATOM     19  O   UNL     1     -13.247  14.901  -3.572  0.00  0.00    +0.000 OA
ATOM     20  H   UNL     1     -12.743  15.019  -2.745  0.00  0.00    +0.000 HD
ENDBRANCH  18  19
ENDBRANCH   9  13
BRANCH   5  21
ATOM     21  C   UNL     1     -17.700   5.108  -0.596  0.00  0.00    +0.000 C 
ATOM     22  O   UNL     1     -17.546   5.373   0.584  0.00  0.00    +0.000 OA
ATOM     23  C   UNL     1     -18.614   3.933  -0.768  0.00  0.00    +0.000 C 
ENDBRANCH   5  21
BRANCH   3  24
ATOM     24  N   UNL     1     -17.010   7.919  -0.483  0.00  0.00    +0.000 N 
ATOM     25  H   UNL     1     -16.320   7.907   0.274  0.00  0.00    +0.000 HD
BRANCH  24  26
ATOM     26  C   UNL     1     -17.864   8.985  -0.424  0.00  0.00    +0.000 A 
ATOM     27  C   UNL     1     -18.086   9.592   0.864  0.00  0.00    +0.000 A 
ATOM     28  C   UNL     1     -19.446  10.092   1.417  0.00  0.00    +0.000 A 
ATOM     29  C   UNL     1     -20.703  10.011   0.714  0.00  0.00    +0.000 A 
ATOM     30  C   UNL     1     -20.489   9.381  -0.565  0.00  0.00    +0.000 A 
ATOM     31  C   UNL     1     -19.128   8.881  -1.112  0.00  0.00    +0.000 A 
BRANCH  29  32
ATOM     32  C   UNL     1     -21.920  10.583   1.145  0.00  0.00    +0.000 C 
BRANCH  32  33
ATOM     33  N   UNL     1     -23.181  11.160   1.576  0.00  0.00    +0.000 NA
ATOM     34  C   UNL     1     -22.990  12.598   1.674  0.00  0.00    +0.000 C 
ATOM     35  C   UNL     1     -23.444  10.673   2.920  0.00  0.00    +0.000 C 
ENDBRANCH  32  33
ENDBRANCH  29  32
ENDBRANCH  24  26
ENDBRANCH   3  24
TORSDOF 7
ENDMDL
MODEL 4
REMARK VINA RESULT:      -5.6     22.164     24.630
REMARK  Name = OTSSP167.pdbqt.pdb
REMARK  7 active torsions:
REMARK  status: ('A' for Active; 'I' for Inactive)
REMARK    1  A    between atoms: C_5  and  N_19
REMARK    2  A    between atoms: C_7  and  C_31
REMARK    3  A    between atoms: C_11  and  C_13
REMARK    4  A    between atoms: C_18  and  O_34
REMARK    5  A    between atoms: N_19  and  C_21
REMARK    6  A    between atoms: C_24  and  C_27
REMARK    7  A    between atoms: C_27  and  N_28
REMARK                            x       y       z     vdW  Elec       q    Type
REMARK                         _______ _______ _______ _____ _____    ______ ____
ROOT
ATOM      1  N   UNL     1      -8.922   2.950  17.928  0.00  0.00    +0.000 NA
ATOM      2  N   UNL     1      -5.537   1.701  17.351  0.00  0.00    +0.000 NA
ATOM      3  C   UNL     1      -7.179   3.808  16.461  0.00  0.00    +0.000 A 
ATOM      4  C   UNL     1      -7.665   2.883  17.423  0.00  0.00    +0.000 A 
ATOM      5  C   UNL     1      -5.867   3.635  15.973  0.00  0.00    +0.000 A 
ATOM      6  C   UNL     1      -6.787   1.852  17.818  0.00  0.00    +0.000 A 
ATOM      7  C   UNL     1      -5.103   2.589  16.439  0.00  0.00    +0.000 A 
ATOM      8  C   UNL     1      -7.255   0.938  18.746  0.00  0.00    +0.000 A 
ATOM      9  C   UNL     1      -9.352   2.047  18.844  0.00  0.00    +0.000 A 
ATOM     10  C   UNL     1      -8.536   1.019  19.274  0.00  0.00    +0.000 A 
ENDROOT
BRANCH   9  13
ATOM     11 CL   UNL     1     -13.898  -0.067  20.091  0.00  0.00    +0.000 Cl
ATOM     12 CL   UNL     1     -12.998   5.287  20.554  0.00  0.00    +0.000 Cl
ATOM     13  C   UNL     1     -10.713   2.240  19.351  0.00  0.00    +0.000 A 
ATOM     14  C   UNL     1     -11.200   3.507  19.691  0.00  0.00    +0.000 A 
ATOM     15  C   UNL     1     -11.584   1.153  19.499  0.00  0.00    +0.000 A 
ATOM     16  C   UNL     1     -12.887   1.320  19.962  0.00  0.00    +0.000 A 
ATOM     17  C   UNL     1     -12.501   3.686  20.162  0.00  0.00    +0.000 A 
ATOM     18  C   UNL     1     -13.353   2.590  20.299  0.00  0.00    +0.000 A 
BRANCH  18  19
ATOM     19  O   UNL     1     -14.631   2.772  20.757  0.00  0.00    +0.000 OA
ATOM     20  H   UNL     1     -14.679   3.642  21.195  0.00  0.00    +0.000 HD
ENDBRANCH  18  19
ENDBRANCH   9  13
BRANCH   5  21
ATOM     21  C   UNL     1      -5.277   4.496  14.950  0.00  0.00    +0.000 C 
ATOM     22  O   UNL     1      -5.886   4.992  14.017  0.00  0.00    +0.000 OA
ATOM     23  C   UNL     1      -3.821   4.843  14.888  0.00  0.00    +0.000 C 
ENDBRANCH   5  21
BRANCH   3  24
ATOM     24  N   UNL     1      -7.918   4.962  16.046  0.00  0.00    +0.000 N 
ATOM     25  H   UNL     1      -8.539   4.803  15.247  0.00  0.00    +0.000 HD
BRANCH  24  26
ATOM     26  C   UNL     1      -8.264   6.052  16.796  0.00  0.00    +0.000 A 
ATOM     27  C   UNL     1      -7.629   6.207  18.080  0.00  0.00    +0.000 A 
ATOM     28  C   UNL     1      -8.316   6.672  19.389  0.00  0.00    +0.000 A 
ATOM     29  C   UNL     1      -9.713   7.012  19.513  0.00  0.00    +0.000 A 
ATOM     30  C   UNL     1     -10.357   6.833  18.235  0.00  0.00    +0.000 A 
ATOM     31  C   UNL     1      -9.666   6.366  16.930  0.00  0.00    +0.000 A 
BRANCH  29  32
ATOM     32  C   UNL     1     -10.322   7.567  20.660  0.00  0.00    +0.000 C 
BRANCH  32  33
ATOM     33  N   UNL     1     -10.952   8.119  21.846  0.00  0.00    +0.000 NA
ATOM     34  C   UNL     1     -10.255   9.353  22.174  0.00  0.00    +0.000 C 
ATOM     35  C   UNL     1     -10.710   7.191  22.938  0.00  0.00    +0.000 C 
ENDBRANCH  32  33
ENDBRANCH  29  32
ENDBRANCH  24  26
ENDBRANCH   3  24
TORSDOF 7
ENDMDL
MODEL 5
REMARK VINA RESULT:      -5.6      2.233      4.061
REMARK  Name = OTSSP167.pdbqt.pdb
REMARK  7 active torsions:
REMARK  status: ('A' for Active; 'I' for Inactive)
REMARK    1  A    between atoms: C_5  and  N_19
REMARK    2  A    between atoms: C_7  and  C_31
REMARK    3  A    between atoms: C_11  and  C_13
REMARK    4  A    between atoms: C_18  and  O_34
REMARK    5  A    between atoms: N_19  and  C_21
REMARK    6  A    between atoms: C_24  and  C_27
REMARK    7  A    between atoms: C_27  and  N_28
REMARK                            x       y       z     vdW  Elec       q    Type
REMARK                         _______ _______ _______ _____ _____    ______ ____
ROOT
ATOM      1  N   UNL     1     -14.541  11.666  -3.170  0.00  0.00    +0.000 NA
ATOM      2  N   UNL     1     -13.162  15.049  -3.086  0.00  0.00    +0.000 NA
ATOM      3  C   UNL     1     -13.957  13.152  -5.009  0.00  0.00    +0.000 A 
ATOM      4  C   UNL     1     -14.075  12.857  -3.624  0.00  0.00    +0.000 A 
ATOM      5  C   UNL     1     -13.432  14.406  -5.381  0.00  0.00    +0.000 A 
ATOM      6  C   UNL     1     -13.654  13.855  -2.720  0.00  0.00    +0.000 A 
ATOM      7  C   UNL     1     -13.058  15.302  -4.404  0.00  0.00    +0.000 A 
ATOM      8  C   UNL     1     -13.754  13.573  -1.370  0.00  0.00    +0.000 A 
ATOM      9  C   UNL     1     -14.637  11.420  -1.840  0.00  0.00    +0.000 A 
ATOM     10  C   UNL     1     -14.246  12.361  -0.907  0.00  0.00    +0.000 A 
ENDROOT
BRANCH   9  13
ATOM     11 CL   UNL     1     -17.030   8.547   1.725  0.00  0.00    +0.000 Cl
ATOM     12 CL   UNL     1     -15.502   6.477  -3.078  0.00  0.00    +0.000 Cl
ATOM     13  C   UNL     1     -15.191  10.117  -1.464  0.00  0.00    +0.000 A 
ATOM     14  C   UNL     1     -15.121   9.012  -2.319  0.00  0.00    +0.000 A 
ATOM     15  C   UNL     1     -15.802   9.930  -0.217  0.00  0.00    +0.000 A 
ATOM     16  C   UNL     1     -16.317   8.694   0.165  0.00  0.00    +0.000 A 
ATOM     17  C   UNL     1     -15.639   7.770  -1.949  0.00  0.00    +0.000 A 
ATOM     18  C   UNL     1     -16.240   7.605  -0.701  0.00  0.00    +0.000 A 
BRANCH  18  19
ATOM     19  O   UNL     1     -16.743   6.382  -0.342  0.00  0.00    +0.000 OA
ATOM     20  H   UNL     1     -17.555   6.526   0.180  0.00  0.00    +0.000 HD
ENDBRANCH  18  19
ENDBRANCH   9  13
BRANCH   5  21
ATOM     21  C   UNL     1     -13.221  14.802  -6.772  0.00  0.00    +0.000 C 
ATOM     22  O   UNL     1     -12.607  14.150  -7.599  0.00  0.00    +0.000 OA
ATOM     23  C   UNL     1     -13.697  16.098  -7.354  0.00  0.00    +0.000 C 
ENDBRANCH   5  21
BRANCH   3  24
ATOM     24  N   UNL     1     -14.440  12.279  -6.036  0.00  0.00    +0.000 N 
ATOM     25  H   UNL     1     -13.756  11.593  -6.367  0.00  0.00    +0.000 HD
BRANCH  24  26
ATOM     26  C   UNL     1     -15.735  11.925  -6.295  0.00  0.00    +0.000 A 
ATOM     27  C   UNL     1     -16.775  12.803  -5.822  0.00  0.00    +0.000 A 
ATOM     28  C   UNL     1     -18.118  12.368  -5.181  0.00  0.00    +0.000 A 
ATOM     29  C   UNL     1     -18.519  11.000  -4.953  0.00  0.00    +0.000 A 
ATOM     30  C   UNL     1     -17.470  10.120  -5.402  0.00  0.00    +0.000 A 
ATOM     31  C   UNL     1     -16.129  10.560  -6.041  0.00  0.00    +0.000 A 
BRANCH  29  32
ATOM     32  C   UNL     1     -19.790  10.585  -4.499  0.00  0.00    +0.000 C 
BRANCH  32  33
ATOM     33  N   UNL     1     -21.104  10.177  -4.032  0.00  0.00    +0.000 NA
ATOM     34  C   UNL     1     -22.088  10.954  -4.768  0.00  0.00    +0.000 C 
ATOM     35  C   UNL     1     -21.210  10.569  -2.636  0.00  0.00    +0.000 C 
ENDBRANCH  32  33
ENDBRANCH  29  32
ENDBRANCH  24  26
ENDBRANCH   3  24
TORSDOF 7
ENDMDL
MODEL 6
REMARK VINA RESULT:      -5.4     13.801     16.595
REMARK  Name = OTSSP167.pdbqt.pdb
REMARK  7 active torsions:
REMARK  status: ('A' for Active; 'I' for Inactive)
REMARK    1  A    between atoms: C_5  and  N_19
REMARK    2  A    between atoms: C_7  and  C_31
REMARK    3  A    between atoms: C_11  and  C_13
REMARK    4  A    between atoms: C_18  and  O_34
REMARK    5  A    between atoms: N_19  and  C_21
REMARK    6  A    between atoms: C_24  and  C_27
REMARK    7  A    between atoms: C_27  and  N_28
REMARK                            x       y       z     vdW  Elec       q    Type
REMARK                         _______ _______ _______ _____ _____    ______ ____
ROOT
ATOM      1  N   UNL     1      -2.899  16.560   7.012  0.00  0.00    +0.000 NA
ATOM      2  N   UNL     1       0.294  16.961   5.281  0.00  0.00    +0.000 NA
ATOM      3  C   UNL     1      -2.247  15.861   4.773  0.00  0.00    +0.000 A 
ATOM      4  C   UNL     1      -1.978  16.486   6.019  0.00  0.00    +0.000 A 
ATOM      5  C   UNL     1      -1.213  15.807   3.815  0.00  0.00    +0.000 A 
ATOM      6  C   UNL     1      -0.681  17.012   6.203  0.00  0.00    +0.000 A 
ATOM      7  C   UNL     1       0.013  16.361   4.110  0.00  0.00    +0.000 A 
ATOM      8  C   UNL     1      -0.405  17.613   7.418  0.00  0.00    +0.000 A 
ATOM      9  C   UNL     1      -2.604  17.163   8.189  0.00  0.00    +0.000 A 
ATOM     10  C   UNL     1      -1.354  17.702   8.425  0.00  0.00    +0.000 A 
ENDROOT
BRANCH   9  13
ATOM     11 CL   UNL     1      -6.299  19.961  10.474  0.00  0.00    +0.000 Cl
ATOM     12 CL   UNL     1      -5.356  14.775  11.856  0.00  0.00    +0.000 Cl
ATOM     13  C   UNL     1      -3.687  17.221   9.174  0.00  0.00    +0.000 A 
ATOM     14  C   UNL     1      -4.012  16.121   9.977  0.00  0.00    +0.000 A 
ATOM     15  C   UNL     1      -4.431  18.394   9.356  0.00  0.00    +0.000 A 
ATOM     16  C   UNL     1      -5.452  18.472  10.301  0.00  0.00    +0.000 A 
ATOM     17  C   UNL     1      -5.037  16.186  10.922  0.00  0.00    +0.000 A 
ATOM     18  C   UNL     1      -5.763  17.365  11.089  0.00  0.00    +0.000 A 
BRANCH  18  19
ATOM     19  O   UNL     1      -6.765  17.425  12.021  0.00  0.00    +0.000 OA
ATOM     20  H   UNL     1      -7.350  18.172  11.795  0.00  0.00    +0.000 HD
ENDBRANCH  18  19
ENDBRANCH   9  13
BRANCH   5  21
ATOM     21  C   UNL     1      -1.360  15.150   2.519  0.00  0.00    +0.000 C 
ATOM     22  O   UNL     1      -1.511  13.950   2.355  0.00  0.00    +0.000 OA
ATOM     23  C   UNL     1      -1.293  15.867   1.205  0.00  0.00    +0.000 C 
ENDBRANCH   5  21
BRANCH   3  24
ATOM     24  N   UNL     1      -3.545  15.377   4.407  0.00  0.00    +0.000 N 
ATOM     25  H   UNL     1      -3.869  14.576   4.957  0.00  0.00    +0.000 HD
BRANCH  24  26
ATOM     26  C   UNL     1      -4.557  16.068   3.801  0.00  0.00    +0.000 A 
ATOM     27  C   UNL     1      -4.959  15.643   2.484  0.00  0.00    +0.000 A 
ATOM     28  C   UNL     1      -5.321  16.571   1.296  0.00  0.00    +0.000 A 
ATOM     29  C   UNL     1      -5.297  18.013   1.337  0.00  0.00    +0.000 A 
ATOM     30  C   UNL     1      -4.870  18.441   2.646  0.00  0.00    +0.000 A 
ATOM     31  C   UNL     1      -4.508  17.510   3.830  0.00  0.00    +0.000 A 
BRANCH  29  32
ATOM     32  C   UNL     1      -5.754  18.869   0.311  0.00  0.00    +0.000 C 
BRANCH  32  33
ATOM     33  N   UNL     1      -6.210  19.742  -0.757  0.00  0.00    +0.000 NA
ATOM     34  C   UNL     1      -7.247  20.599  -0.204  0.00  0.00    +0.000 C 
ATOM     35  C   UNL     1      -6.841  18.904  -1.763  0.00  0.00    +0.000 C 
ENDBRANCH  32  33
ENDBRANCH  29  32
ENDBRANCH  24  26
ENDBRANCH   3  24
TORSDOF 7
ENDMDL
MODEL 7
REMARK VINA RESULT:      -5.3      2.498      3.436
REMARK  Name = OTSSP167.pdbqt.pdb
REMARK  7 active torsions:
REMARK  status: ('A' for Active; 'I' for Inactive)
REMARK    1  A    between atoms: C_5  and  N_19
REMARK    2  A    between atoms: C_7  and  C_31
REMARK    3  A    between atoms: C_11  and  C_13
REMARK    4  A    between atoms: C_18  and  O_34
REMARK    5  A    between atoms: N_19  and  C_21
REMARK    6  A    between atoms: C_24  and  C_27
REMARK    7  A    between atoms: C_27  and  N_28
REMARK                            x       y       z     vdW  Elec       q    Type
REMARK                         _______ _______ _______ _____ _____    ______ ____
ROOT
ATOM      1  N   UNL     1     -15.037   9.623  -2.477  0.00  0.00    +0.000 NA
ATOM      2  N   UNL     1     -14.403  12.804  -0.796  0.00  0.00    +0.000 NA
ATOM      3  C   UNL     1     -14.493  11.799  -3.424  0.00  0.00    +0.000 A 
ATOM      4  C   UNL     1     -14.759  10.941  -2.324  0.00  0.00    +0.000 A 
ATOM      5  C   UNL     1     -14.183  13.149  -3.159  0.00  0.00    +0.000 A 
ATOM      6  C   UNL     1     -14.692  11.515  -1.036  0.00  0.00    +0.000 A 
ATOM      7  C   UNL     1     -14.152  13.594  -1.856  0.00  0.00    +0.000 A 
ATOM      8  C   UNL     1     -14.938  10.686   0.043  0.00  0.00    +0.000 A 
ATOM      9  C   UNL     1     -15.284   8.835  -1.402  0.00  0.00    +0.000 A 
ATOM     10  C   UNL     1     -15.239   9.341  -0.118  0.00  0.00    +0.000 A 
ENDROOT
BRANCH   9  13
ATOM     11 CL   UNL     1     -14.685   4.746  -4.503  0.00  0.00    +0.000 Cl
ATOM     12 CL   UNL     1     -17.891   4.566  -0.100  0.00  0.00    +0.000 Cl
ATOM     13  C   UNL     1     -15.612   7.436  -1.689  0.00  0.00    +0.000 A 
ATOM     14  C   UNL     1     -16.487   6.703  -0.878  0.00  0.00    +0.000 A 
ATOM     15  C   UNL     1     -15.067   6.785  -2.803  0.00  0.00    +0.000 A 
ATOM     16  C   UNL     1     -15.382   5.461  -3.101  0.00  0.00    +0.000 A 
ATOM     17  C   UNL     1     -16.805   5.375  -1.164  0.00  0.00    +0.000 A 
ATOM     18  C   UNL     1     -16.253   4.747  -2.280  0.00  0.00    +0.000 A 
BRANCH  18  19
ATOM     19  O   UNL     1     -16.573   3.444  -2.558  0.00  0.00    +0.000 OA
ATOM     20  H   UNL     1     -15.747   2.924  -2.583  0.00  0.00    +0.000 HD
ENDBRANCH  18  19
ENDBRANCH   9  13
BRANCH   5  21
ATOM     21  C   UNL     1     -13.847  14.111  -4.206  0.00  0.00    +0.000 C 
ATOM     22  O   UNL     1     -14.645  14.606  -4.984  0.00  0.00    +0.000 OA
ATOM     23  C   UNL     1     -12.454  14.582  -4.493  0.00  0.00    +0.000 C 
ENDBRANCH   5  21
BRANCH   3  24
ATOM     24  N   UNL     1     -14.626  11.382  -4.787  0.00  0.00    +0.000 N 
ATOM     25  H   UNL     1     -15.299  11.928  -5.334  0.00  0.00    +0.000 HD
BRANCH  24  26
ATOM     26  C   UNL     1     -13.709  10.721  -5.556  0.00  0.00    +0.000 A 
ATOM     27  C   UNL     1     -13.199  11.401  -6.719  0.00  0.00    +0.000 A 
ATOM     28  C   UNL     1     -12.939  10.765  -8.109  0.00  0.00    +0.000 A 
ATOM     29  C   UNL     1     -13.185   9.383  -8.444  0.00  0.00    +0.000 A 
ATOM     30  C   UNL     1     -13.719   8.706  -7.289  0.00  0.00    +0.000 A 
ATOM     31  C   UNL     1     -13.978   9.346  -5.903  0.00  0.00    +0.000 A 
BRANCH  29  32
ATOM     32  C   UNL     1     -12.826   8.760  -9.659  0.00  0.00    +0.000 C 
BRANCH  32  33
ATOM     33  N   UNL     1     -12.440   8.115 -10.903  0.00  0.00    +0.000 NA
ATOM     34  C   UNL     1     -13.566   7.307 -11.342  0.00  0.00    +0.000 C 
ATOM     35  C   UNL     1     -11.353   7.200 -10.597  0.00  0.00    +0.000 C 
ENDBRANCH  32  33
ENDBRANCH  29  32
ENDBRANCH  24  26
ENDBRANCH   3  24
TORSDOF 7
ENDMDL
MODEL 8
REMARK VINA RESULT:      -5.3      2.925      4.280
REMARK  Name = OTSSP167.pdbqt.pdb
REMARK  7 active torsions:
REMARK  status: ('A' for Active; 'I' for Inactive)
REMARK    1  A    between atoms: C_5  and  N_19
REMARK    2  A    between atoms: C_7  and  C_31
REMARK    3  A    between atoms: C_11  and  C_13
REMARK    4  A    between atoms: C_18  and  O_34
REMARK    5  A    between atoms: N_19  and  C_21
REMARK    6  A    between atoms: C_24  and  C_27
REMARK    7  A    between atoms: C_27  and  N_28
REMARK                            x       y       z     vdW  Elec       q    Type
REMARK                         _______ _______ _______ _____ _____    ______ ____
ROOT
ATOM      1  N   UNL     1     -14.995   9.150  -2.373  0.00  0.00    +0.000 NA
ATOM      2  N   UNL     1     -14.601  12.499  -0.966  0.00  0.00    +0.000 NA
ATOM      3  C   UNL     1     -14.428  11.243  -3.480  0.00  0.00    +0.000 A 
ATOM      4  C   UNL     1     -14.768  10.486  -2.327  0.00  0.00    +0.000 A 
ATOM      5  C   UNL     1     -14.180  12.622  -3.324  0.00  0.00    +0.000 A 
ATOM      6  C   UNL     1     -14.833  11.183  -1.102  0.00  0.00    +0.000 A 
ATOM      7  C   UNL     1     -14.278  13.191  -2.073  0.00  0.00    +0.000 A 
ATOM      8  C   UNL     1     -15.152  10.453   0.029  0.00  0.00    +0.000 A 
ATOM      9  C   UNL     1     -15.316   8.461  -1.250  0.00  0.00    +0.000 A 
ATOM     10  C   UNL     1     -15.400   9.090  -0.023  0.00  0.00    +0.000 A 
ENDROOT
BRANCH   9  13
ATOM     11 CL   UNL     1     -13.844   3.960  -3.316  0.00  0.00    +0.000 Cl
ATOM     12 CL   UNL     1     -18.374   4.399  -0.319  0.00  0.00    +0.000 Cl
ATOM     13  C   UNL     1     -15.579   7.030  -1.424  0.00  0.00    +0.000 A 
ATOM     14  C   UNL     1     -16.707   6.415  -0.868  0.00  0.00    +0.000 A 
ATOM     15  C   UNL     1     -14.709   6.226  -2.172  0.00  0.00    +0.000 A 
ATOM     16  C   UNL     1     -14.953   4.868  -2.363  0.00  0.00    +0.000 A 
ATOM     17  C   UNL     1     -16.958   5.055  -1.048  0.00  0.00    +0.000 A 
ATOM     18  C   UNL     1     -16.081   4.273  -1.799  0.00  0.00    +0.000 A 
BRANCH  18  19
ATOM     19  O   UNL     1     -16.335   2.938  -1.976  0.00  0.00    +0.000 OA
ATOM     20  H   UNL     1     -15.572   2.434  -1.637  0.00  0.00    +0.000 HD
ENDBRANCH  18  19
ENDBRANCH   9  13
BRANCH   5  21
ATOM     21  C   UNL     1     -13.778  13.490  -4.428  0.00  0.00    +0.000 C 
ATOM     22  O   UNL     1     -12.924  13.219  -5.256  0.00  0.00    +0.000 OA
ATOM     23  C   UNL     1     -14.334  14.862  -4.659  0.00  0.00    +0.000 C 
ENDBRANCH   5  21
BRANCH   3  24
ATOM     24  N   UNL     1     -14.427  10.692  -4.802  0.00  0.00    +0.000 N 
ATOM     25  H   UNL     1     -13.558  10.218  -5.063  0.00  0.00    +0.000 HD
BRANCH  24  26
ATOM     26  C   UNL     1     -15.504  10.306  -5.550  0.00  0.00    +0.000 A 
ATOM     27  C   UNL     1     -16.762  10.961  -5.298  0.00  0.00    +0.000 A 
ATOM     28  C   UNL     1     -18.154  10.281  -5.251  0.00  0.00    +0.000 A 
ATOM     29  C   UNL     1     -18.391   8.871  -5.446  0.00  0.00    +0.000 A 
ATOM     30  C   UNL     1     -17.132   8.208  -5.673  0.00  0.00    +0.000 A 
ATOM     31  C   UNL     1     -15.743   8.892  -5.718  0.00  0.00    +0.000 A 
BRANCH  29  32
ATOM     32  C   UNL     1     -19.661   8.260  -5.542  0.00  0.00    +0.000 C 
BRANCH  32  33
ATOM     33  N   UNL     1     -20.974   7.646  -5.630  0.00  0.00    +0.000 NA
ATOM     34  C   UNL     1     -21.957   8.680  -5.351  0.00  0.00    +0.000 C 
ATOM     35  C   UNL     1     -21.069   6.668  -4.559  0.00  0.00    +0.000 C 
ENDBRANCH  32  33
ENDBRANCH  29  32
ENDBRANCH  24  26
ENDBRANCH   3  24
TORSDOF 7
ENDMDL
MODEL 9
REMARK VINA RESULT:      -5.3      4.956      8.883
REMARK  Name = OTSSP167.pdbqt.pdb
REMARK  7 active torsions:
REMARK  status: ('A' for Active; 'I' for Inactive)
REMARK    1  A    between atoms: C_5  and  N_19
REMARK    2  A    between atoms: C_7  and  C_31
REMARK    3  A    between atoms: C_11  and  C_13
REMARK    4  A    between atoms: C_18  and  O_34
REMARK    5  A    between atoms: N_19  and  C_21
REMARK    6  A    between atoms: C_24  and  C_27
REMARK    7  A    between atoms: C_27  and  N_28
REMARK                            x       y       z     vdW  Elec       q    Type
REMARK                         _______ _______ _______ _____ _____    ______ ____
ROOT
ATOM      1  N   UNL     1     -15.536   4.781  -1.775  0.00  0.00    +0.000 NA
ATOM      2  N   UNL     1     -17.449   1.677  -2.016  0.00  0.00    +0.000 NA
ATOM      3  C   UNL     1     -14.776   2.522  -2.276  0.00  0.00    +0.000 A 
ATOM      4  C   UNL     1     -15.792   3.460  -1.949  0.00  0.00    +0.000 A 
ATOM      5  C   UNL     1     -15.148   1.176  -2.468  0.00  0.00    +0.000 A 
ATOM      6  C   UNL     1     -17.108   2.964  -1.839  0.00  0.00    +0.000 A 
ATOM      7  C   UNL     1     -16.469   0.811  -2.328  0.00  0.00    +0.000 A 
ATOM      8  C   UNL     1     -18.106   3.870  -1.531  0.00  0.00    +0.000 A 
ATOM      9  C   UNL     1     -16.532   5.646  -1.465  0.00  0.00    +0.000 A 
ATOM     10  C   UNL     1     -17.840   5.218  -1.338  0.00  0.00    +0.000 A 
ENDROOT
BRANCH   9  13
ATOM     11 CL   UNL     1     -14.617   9.993  -3.497  0.00  0.00    +0.000 Cl
ATOM     12 CL   UNL     1     -15.977   9.641   1.768  0.00  0.00    +0.000 Cl
ATOM     13  C   UNL     1     -16.135   7.041  -1.261  0.00  0.00    +0.000 A 
ATOM     14  C   UNL     1     -16.220   7.656  -0.006  0.00  0.00    +0.000 A 
ATOM     15  C   UNL     1     -15.638   7.809  -2.323  0.00  0.00    +0.000 A 
ATOM     16  C   UNL     1     -15.238   9.131  -2.143  0.00  0.00    +0.000 A 
ATOM     17  C   UNL     1     -15.829   8.982   0.184  0.00  0.00    +0.000 A 
ATOM     18  C   UNL     1     -15.333   9.727  -0.886  0.00  0.00    +0.000 A 
BRANCH  18  19
ATOM     19  O   UNL     1     -14.946  11.026  -0.692  0.00  0.00    +0.000 OA
ATOM     20  H   UNL     1     -13.985  11.039  -0.528  0.00  0.00    +0.000 HD
ENDBRANCH  18  19
ENDBRANCH   9  13
BRANCH   5  21
ATOM     21  C   UNL     1     -14.199   0.133  -2.852  0.00  0.00    +0.000 C 
ATOM     22  O   UNL     1     -13.297  -0.287  -2.146  0.00  0.00    +0.000 OA
ATOM     23  C   UNL     1     -14.181  -0.527  -4.197  0.00  0.00    +0.000 C 
ENDBRANCH   5  21
BRANCH   3  24
ATOM     24  N   UNL     1     -13.386   2.862  -2.318  0.00  0.00    +0.000 N 
ATOM     25  H   UNL     1     -12.861   2.606  -1.477  0.00  0.00    +0.000 HD
BRANCH  24  26
ATOM     26  C   UNL     1     -12.597   3.031  -3.422  0.00  0.00    +0.000 A 
ATOM     27  C   UNL     1     -11.169   2.989  -3.234  0.00  0.00    +0.000 A 
ATOM     28  C   UNL     1     -10.130   3.918  -3.913  0.00  0.00    +0.000 A 
ATOM     29  C   UNL     1     -10.450   4.980  -4.837  0.00  0.00    +0.000 A 
ATOM     30  C   UNL     1     -11.880   5.041  -5.007  0.00  0.00    +0.000 A 
ATOM     31  C   UNL     1     -12.914   4.112  -4.325  0.00  0.00    +0.000 A 
BRANCH  29  32
ATOM     32  C   UNL     1      -9.511   5.741  -5.566  0.00  0.00    +0.000 C 
BRANCH  32  33
ATOM     33  N   UNL     1      -8.542   6.510  -6.328  0.00  0.00    +0.000 NA
ATOM     34  C   UNL     1      -9.283   7.315  -7.286  0.00  0.00    +0.000 C 
ATOM     35  C   UNL     1      -7.744   5.566  -7.092  0.00  0.00    +0.000 C 
ENDBRANCH  32  33
ENDBRANCH  29  32
ENDBRANCH  24  26
ENDBRANCH   3  24
TORSDOF 7
ENDMDL
