MODEL 1
REMARK VINA RESULT:      -6.8      0.000      0.000
REMARK  Name = 
REMARK  0 active torsions:
REMARK  status: ('A' for Active; 'I' for Inactive)
REMARK                            x       y       z     vdW  Elec       q    Type
REMARK                         _______ _______ _______ _____ _____    ______ ____
ROOT
ATOM      1  O   UNL     1     -17.763   9.216  -1.431  0.00  0.00    +0.000 OA
ATOM      2  O   UNL     1     -14.381  11.588  -4.607  0.00  0.00    +0.000 OA
ATOM      3  N   UNL     1     -17.118   8.148  -0.872  0.00  0.00    +0.000 N 
ATOM      4  N   UNL     1     -14.748  10.558  -2.567  0.00  0.00    +0.000 N 
ATOM      5  C   UNL     1     -15.590   8.205  -1.057  0.00  0.00    +0.000 C 
ATOM      6  C   UNL     1     -14.942   9.419  -0.361  0.00  0.00    +0.000 C 
ATOM      7  C   UNL     1     -15.156   8.110  -2.525  0.00  0.00    +0.000 C 
ATOM      8  C   UNL     1     -15.157  10.738  -1.156  0.00  0.00    +0.000 C 
ATOM      9  C   UNL     1     -15.365   9.453   1.119  0.00  0.00    +0.000 C 
ATOM     10  C   UNL     1     -15.366   9.428  -3.268  0.00  0.00    +0.000 C 
ATOM     11  C   UNL     1     -17.435   8.129   0.609  0.00  0.00    +0.000 C 
ATOM     12  C   UNL     1     -15.811   6.917  -3.234  0.00  0.00    +0.000 C 
ATOM     13  C   UNL     1     -17.645   6.881  -1.514  0.00  0.00    +0.000 C 
ATOM     14  C   UNL     1     -16.873   9.359   1.311  0.00  0.00    +0.000 C 
ATOM     15  C   UNL     1     -17.314   6.831  -3.000  0.00  0.00    +0.000 C 
ATOM     16  C   UNL     1     -14.416  11.906  -0.484  0.00  0.00    +0.000 C 
ATOM     17  C   UNL     1     -14.487  13.144  -1.357  0.00  0.00    +0.000 C 
ATOM     18  C   UNL     1     -14.382  11.637  -3.375  0.00  0.00    +0.000 C 
ATOM     19  C   UNL     1     -13.814  12.853  -2.679  0.00  0.00    +0.000 C 
ENDROOT
TORSDOF 0
ENDMDL
MODEL 2
REMARK VINA RESULT:      -5.6     20.035     21.199
REMARK  Name = 
REMARK  0 active torsions:
REMARK  status: ('A' for Active; 'I' for Inactive)
REMARK                            x       y       z     vdW  Elec       q    Type
REMARK                         _______ _______ _______ _____ _____    ______ ____
ROOT
ATOM      1  O   UNL     1      -6.589   5.699  18.014  0.00  0.00    +0.000 OA
ATOM      2  O   UNL     1     -10.164   1.972  18.701  0.00  0.00    +0.000 OA
ATOM      3  N   UNL     1      -6.620   6.058  16.695  0.00  0.00    +0.000 N 
ATOM      4  N   UNL     1      -9.620   3.996  17.719  0.00  0.00    +0.000 N 
ATOM      5  C   UNL     1      -7.877   5.549  15.965  0.00  0.00    +0.000 C 
ATOM      6  C   UNL     1      -9.184   6.140  16.529  0.00  0.00    +0.000 C 
ATOM      7  C   UNL     1      -7.949   4.019  15.883  0.00  0.00    +0.000 C 
ATOM      8  C   UNL     1      -9.606   5.469  17.867  0.00  0.00    +0.000 C 
ATOM      9  C   UNL     1      -9.090   7.677  16.552  0.00  0.00    +0.000 C 
ATOM     10  C   UNL     1      -8.383   3.397  17.210  0.00  0.00    +0.000 C 
ATOM     11  C   UNL     1      -6.584   7.570  16.618  0.00  0.00    +0.000 C 
ATOM     12  C   UNL     1      -6.646   3.417  15.342  0.00  0.00    +0.000 C 
ATOM     13  C   UNL     1      -5.391   5.491  16.015  0.00  0.00    +0.000 C 
ATOM     14  C   UNL     1      -7.831   8.187  17.240  0.00  0.00    +0.000 C 
ATOM     15  C   UNL     1      -5.401   3.967  16.028  0.00  0.00    +0.000 C 
ATOM     16  C   UNL     1     -10.961   6.014  18.347  0.00  0.00    +0.000 C 
ATOM     17  C   UNL     1     -11.444   5.232  19.553  0.00  0.00    +0.000 C 
ATOM     18  C   UNL     1     -10.385   3.176  18.551  0.00  0.00    +0.000 C 
ATOM     19  C   UNL     1     -11.628   3.784  19.160  0.00  0.00    +0.000 C 
ENDROOT
TORSDOF 0
ENDMDL
MODEL 3
REMARK VINA RESULT:      -5.2     19.834     22.213
REMARK  Name = 
REMARK  0 active torsions:
REMARK  status: ('A' for Active; 'I' for Inactive)
REMARK                            x       y       z     vdW  Elec       q    Type
REMARK                         _______ _______ _______ _____ _____    ______ ____
ROOT
ATOM      1  O   UNL     1      -8.261   5.404  18.728  0.00  0.00    +0.000 OA
ATOM      2  O   UNL     1     -11.515   1.350  19.077  0.00  0.00    +0.000 OA
ATOM      3  N   UNL     1      -8.933   6.415  18.101  0.00  0.00    +0.000 N 
ATOM      4  N   UNL     1     -11.223   3.638  19.261  0.00  0.00    +0.000 N 
ATOM      5  C   UNL     1     -10.455   6.178  18.043  0.00  0.00    +0.000 C 
ATOM      6  C   UNL     1     -11.111   6.120  19.436  0.00  0.00    +0.000 C 
ATOM      7  C   UNL     1     -10.843   4.961  17.194  0.00  0.00    +0.000 C 
ATOM      8  C   UNL     1     -10.857   4.762  20.152  0.00  0.00    +0.000 C 
ATOM      9  C   UNL     1     -10.735   7.379  20.239  0.00  0.00    +0.000 C 
ATOM     10  C   UNL     1     -10.596   3.647  17.936  0.00  0.00    +0.000 C 
ATOM     11  C   UNL     1      -8.664   7.699  18.857  0.00  0.00    +0.000 C 
ATOM     12  C   UNL     1     -10.179   4.996  15.812  0.00  0.00    +0.000 C 
ATOM     13  C   UNL     1      -8.400   6.543  16.689  0.00  0.00    +0.000 C 
ATOM     14  C   UNL     1      -9.235   7.641  20.269  0.00  0.00    +0.000 C 
ATOM     15  C   UNL     1      -8.684   5.290  15.871  0.00  0.00    +0.000 C 
ATOM     16  C   UNL     1     -11.606   4.705  21.492  0.00  0.00    +0.000 C 
ATOM     17  C   UNL     1     -11.495   3.318  22.096  0.00  0.00    +0.000 C 
ATOM     18  C   UNL     1     -11.552   2.376  19.759  0.00  0.00    +0.000 C 
ATOM     19  C   UNL     1     -12.129   2.319  21.156  0.00  0.00    +0.000 C 
ENDROOT
TORSDOF 0
ENDMDL
MODEL 4
REMARK VINA RESULT:      -5.1      2.085      4.987
REMARK  Name = 
REMARK  0 active torsions:
REMARK  status: ('A' for Active; 'I' for Inactive)
REMARK                            x       y       z     vdW  Elec       q    Type
REMARK                         _______ _______ _______ _____ _____    ______ ____
ROOT
ATOM      1  O   UNL     1     -14.660   8.568  -1.138  0.00  0.00    +0.000 OA
ATOM      2  O   UNL     1     -16.812   4.954  -4.213  0.00  0.00    +0.000 OA
ATOM      3  N   UNL     1     -15.550   9.600  -1.035  0.00  0.00    +0.000 N 
ATOM      4  N   UNL     1     -17.101   6.474  -2.492  0.00  0.00    +0.000 N 
ATOM      5  C   UNL     1     -16.963   9.224  -1.520  0.00  0.00    +0.000 C 
ATOM      6  C   UNL     1     -17.612   8.106  -0.681  0.00  0.00    +0.000 C 
ATOM      7  C   UNL     1     -17.020   8.899  -3.018  0.00  0.00    +0.000 C 
ATOM      8  C   UNL     1     -17.043   6.701  -1.030  0.00  0.00    +0.000 C 
ATOM      9  C   UNL     1     -17.576   8.490   0.810  0.00  0.00    +0.000 C 
ATOM     10  C   UNL     1     -16.470   7.506  -3.320  0.00  0.00    +0.000 C 
ATOM     11  C   UNL     1     -15.622  10.016   0.419  0.00  0.00    +0.000 C 
ATOM     12  C   UNL     1     -16.358   9.996  -3.863  0.00  0.00    +0.000 C 
ATOM     13  C   UNL     1     -15.037  10.760  -1.864  0.00  0.00    +0.000 C 
ATOM     14  C   UNL     1     -16.189   8.899   1.287  0.00  0.00    +0.000 C 
ATOM     15  C   UNL     1     -14.985  10.407  -3.345  0.00  0.00    +0.000 C 
ATOM     16  C   UNL     1     -17.781   5.604  -0.246  0.00  0.00    +0.000 C 
ATOM     17  C   UNL     1     -17.341   4.233  -0.722  0.00  0.00    +0.000 C 
ATOM     18  C   UNL     1     -17.117   5.191  -3.042  0.00  0.00    +0.000 C 
ATOM     19  C   UNL     1     -17.688   4.084  -2.185  0.00  0.00    +0.000 C 
ENDROOT
TORSDOF 0
ENDMDL
MODEL 5
REMARK VINA RESULT:      -5.1     15.142     16.364
REMARK  Name = 
REMARK  0 active torsions:
REMARK  status: ('A' for Active; 'I' for Inactive)
REMARK                            x       y       z     vdW  Elec       q    Type
REMARK                         _______ _______ _______ _____ _____    ______ ____
ROOT
ATOM      1  O   UNL     1       0.989   5.878   0.876  0.00  0.00    +0.000 OA
ATOM      2  O   UNL     1      -3.156   2.867  -0.073  0.00  0.00    +0.000 OA
ATOM      3  N   UNL     1       0.535   7.024   1.467  0.00  0.00    +0.000 N 
ATOM      4  N   UNL     1      -2.072   4.285   1.400  0.00  0.00    +0.000 N 
ATOM      5  C   UNL     1      -0.916   6.904   1.972  0.00  0.00    +0.000 C 
ATOM      6  C   UNL     1      -1.085   5.841   3.076  0.00  0.00    +0.000 C 
ATOM      7  C   UNL     1      -1.933   6.701   0.843  0.00  0.00    +0.000 C 
ATOM      8  C   UNL     1      -1.092   4.394   2.504  0.00  0.00    +0.000 C 
ATOM      9  C   UNL     1      -0.078   6.107   4.210  0.00  0.00    +0.000 C 
ATOM     10  C   UNL     1      -1.923   5.265   0.319  0.00  0.00    +0.000 C 
ATOM     11  C   UNL     1       1.440   7.340   2.638  0.00  0.00    +0.000 C 
ATOM     12  C   UNL     1      -1.761   7.741  -0.271  0.00  0.00    +0.000 C 
ATOM     13  C   UNL     1       0.612   8.148   0.454  0.00  0.00    +0.000 C 
ATOM     14  C   UNL     1       1.353   6.263   3.713  0.00  0.00    +0.000 C 
ATOM     15  C   UNL     1      -0.316   7.898  -0.728  0.00  0.00    +0.000 C 
ATOM     16  C   UNL     1      -1.360   3.370   3.618  0.00  0.00    +0.000 C 
ATOM     17  C   UNL     1      -1.539   1.985   3.025  0.00  0.00    +0.000 C 
ATOM     18  C   UNL     1      -2.633   3.062   1.026  0.00  0.00    +0.000 C 
ATOM     19  C   UNL     1      -2.730   1.997   2.095  0.00  0.00    +0.000 C 
ENDROOT
TORSDOF 0
ENDMDL
MODEL 6
REMARK VINA RESULT:      -5.0     19.807     21.650
REMARK  Name = 
REMARK  0 active torsions:
REMARK  status: ('A' for Active; 'I' for Inactive)
REMARK                            x       y       z     vdW  Elec       q    Type
REMARK                         _______ _______ _______ _____ _____    ______ ____
ROOT
ATOM      1  O   UNL     1      -5.478   3.863  18.020  0.00  0.00    +0.000 OA
ATOM      2  O   UNL     1     -10.599   3.124  18.633  0.00  0.00    +0.000 OA
ATOM      3  N   UNL     1      -5.078   3.099  16.959  0.00  0.00    +0.000 N 
ATOM      4  N   UNL     1      -8.837   3.455  17.169  0.00  0.00    +0.000 N 
ATOM      5  C   UNL     1      -6.258   2.593  16.107  0.00  0.00    +0.000 C 
ATOM      6  C   UNL     1      -7.059   3.733  15.447  0.00  0.00    +0.000 C 
ATOM      7  C   UNL     1      -7.181   1.631  16.865  0.00  0.00    +0.000 C 
ATOM      8  C   UNL     1      -8.004   4.449  16.453  0.00  0.00    +0.000 C 
ATOM      9  C   UNL     1      -6.105   4.648  14.658  0.00  0.00    +0.000 C 
ATOM     10  C   UNL     1      -8.105   2.371  17.831  0.00  0.00    +0.000 C 
ATOM     11  C   UNL     1      -4.168   3.941  16.089  0.00  0.00    +0.000 C 
ATOM     12  C   UNL     1      -6.392   0.504  17.544  0.00  0.00    +0.000 C 
ATOM     13  C   UNL     1      -4.307   1.909  17.489  0.00  0.00    +0.000 C 
ATOM     14  C   UNL     1      -4.916   5.122  15.484  0.00  0.00    +0.000 C 
ATOM     15  C   UNL     1      -5.191   1.005  18.338  0.00  0.00    +0.000 C 
ATOM     16  C   UNL     1      -8.857   5.510  15.740  0.00  0.00    +0.000 C 
ATOM     17  C   UNL     1      -9.893   6.078  16.691  0.00  0.00    +0.000 C 
ATOM     18  C   UNL     1     -10.059   3.797  17.752  0.00  0.00    +0.000 C 
ATOM     19  C   UNL     1     -10.807   4.962  17.145  0.00  0.00    +0.000 C 
ENDROOT
TORSDOF 0
ENDMDL
MODEL 7
REMARK VINA RESULT:      -5.0     19.210     21.129
REMARK  Name = 
REMARK  0 active torsions:
REMARK  status: ('A' for Active; 'I' for Inactive)
REMARK                            x       y       z     vdW  Elec       q    Type
REMARK                         _______ _______ _______ _____ _____    ______ ____
ROOT
ATOM      1  O   UNL     1      -5.416   3.789  17.940  0.00  0.00    +0.000 OA
ATOM      2  O   UNL     1      -9.866   4.873  15.454  0.00  0.00    +0.000 OA
ATOM      3  N   UNL     1      -4.399   3.936  17.039  0.00  0.00    +0.000 N 
ATOM      4  N   UNL     1      -7.651   5.434  15.824  0.00  0.00    +0.000 N 
ATOM      5  C   UNL     1      -4.828   4.690  15.766  0.00  0.00    +0.000 C 
ATOM      6  C   UNL     1      -5.272   6.140  16.045  0.00  0.00    +0.000 C 
ATOM      7  C   UNL     1      -5.879   3.935  14.943  0.00  0.00    +0.000 C 
ATOM      8  C   UNL     1      -6.702   6.212  16.653  0.00  0.00    +0.000 C 
ATOM      9  C   UNL     1      -4.173   6.877  16.832  0.00  0.00    +0.000 C 
ATOM     10  C   UNL     1      -7.272   4.043  15.561  0.00  0.00    +0.000 C 
ATOM     11  C   UNL     1      -3.281   4.703  17.713  0.00  0.00    +0.000 C 
ATOM     12  C   UNL     1      -5.457   2.484  14.677  0.00  0.00    +0.000 C 
ATOM     13  C   UNL     1      -3.900   2.559  16.651  0.00  0.00    +0.000 C 
ATOM     14  C   UNL     1      -3.718   6.118  18.072  0.00  0.00    +0.000 C 
ATOM     15  C   UNL     1      -4.977   1.759  15.929  0.00  0.00    +0.000 C 
ATOM     16  C   UNL     1      -7.148   7.673  16.825  0.00  0.00    +0.000 C 
ATOM     17  C   UNL     1      -8.603   7.731  17.252  0.00  0.00    +0.000 C 
ATOM     18  C   UNL     1      -9.024   5.690  15.833  0.00  0.00    +0.000 C 
ATOM     19  C   UNL     1      -9.457   7.097  16.177  0.00  0.00    +0.000 C 
ENDROOT
TORSDOF 0
ENDMDL
MODEL 8
REMARK VINA RESULT:      -5.0      2.498      4.667
REMARK  Name = 
REMARK  0 active torsions:
REMARK  status: ('A' for Active; 'I' for Inactive)
REMARK                            x       y       z     vdW  Elec       q    Type
REMARK                         _______ _______ _______ _____ _____    ______ ____
ROOT
ATOM      1  O   UNL     1     -16.855   8.226  -4.238  0.00  0.00    +0.000 OA
ATOM      2  O   UNL     1     -18.799   8.876   0.552  0.00  0.00    +0.000 OA
ATOM      3  N   UNL     1     -16.951   9.427  -4.885  0.00  0.00    +0.000 N 
ATOM      4  N   UNL     1     -17.490   9.730  -1.154  0.00  0.00    +0.000 N 
ATOM      5  C   UNL     1     -17.235  10.601  -3.929  0.00  0.00    +0.000 C 
ATOM      6  C   UNL     1     -16.105  10.834  -2.906  0.00  0.00    +0.000 C 
ATOM      7  C   UNL     1     -18.599  10.500  -3.237  0.00  0.00    +0.000 C 
ATOM      8  C   UNL     1     -16.135   9.795  -1.748  0.00  0.00    +0.000 C 
ATOM      9  C   UNL     1     -14.760  10.976  -3.642  0.00  0.00    +0.000 C 
ATOM     10  C   UNL     1     -18.586   9.484  -2.096  0.00  0.00    +0.000 C 
ATOM     11  C   UNL     1     -15.642   9.680  -5.602  0.00  0.00    +0.000 C 
ATOM     12  C   UNL     1     -19.729  10.248  -4.244  0.00  0.00    +0.000 C 
ATOM     13  C   UNL     1     -18.071   9.337  -5.900  0.00  0.00    +0.000 C 
ATOM     14  C   UNL     1     -14.491   9.837  -4.616  0.00  0.00    +0.000 C 
ATOM     15  C   UNL     1     -19.420   9.124  -5.225  0.00  0.00    +0.000 C 
ATOM     16  C   UNL     1     -15.059  10.117  -0.699  0.00  0.00    +0.000 C 
ATOM     17  C   UNL     1     -15.211   9.207   0.505  0.00  0.00    +0.000 C 
ATOM     18  C   UNL     1     -17.705   9.275   0.149  0.00  0.00    +0.000 C 
ATOM     19  C   UNL     1     -16.567   9.440   1.130  0.00  0.00    +0.000 C 
ENDROOT
TORSDOF 0
ENDMDL
MODEL 9
REMARK VINA RESULT:      -4.8     11.647     14.034
REMARK  Name = 
REMARK  0 active torsions:
REMARK  status: ('A' for Active; 'I' for Inactive)
REMARK                            x       y       z     vdW  Elec       q    Type
REMARK                         _______ _______ _______ _____ _____    ______ ____
ROOT
ATOM      1  O   UNL     1      -5.631  14.200   1.028  0.00  0.00    +0.000 OA
ATOM      2  O   UNL     1      -3.775  17.170   4.886  0.00  0.00    +0.000 OA
ATOM      3  N   UNL     1      -5.307  14.812  -0.151  0.00  0.00    +0.000 N 
ATOM      4  N   UNL     1      -3.418  16.235   2.799  0.00  0.00    +0.000 N 
ATOM      5  C   UNL     1      -4.242  15.912   0.017  0.00  0.00    +0.000 C 
ATOM      6  C   UNL     1      -2.890  15.371   0.524  0.00  0.00    +0.000 C 
ATOM      7  C   UNL     1      -4.723  17.093   0.869  0.00  0.00    +0.000 C 
ATOM      8  C   UNL     1      -2.912  15.063   2.048  0.00  0.00    +0.000 C 
ATOM      9  C   UNL     1      -2.420  14.219  -0.384  0.00  0.00    +0.000 C 
ATOM     10  C   UNL     1      -4.714  16.759   2.361  0.00  0.00    +0.000 C 
ATOM     11  C   UNL     1      -4.780  13.756  -1.100  0.00  0.00    +0.000 C 
ATOM     12  C   UNL     1      -6.078  17.626   0.388  0.00  0.00    +0.000 C 
ATOM     13  C   UNL     1      -6.563  15.427  -0.732  0.00  0.00    +0.000 C 
ATOM     14  C   UNL     1      -3.482  13.147  -0.584  0.00  0.00    +0.000 C 
ATOM     15  C   UNL     1      -7.112  16.528   0.166  0.00  0.00    +0.000 C 
ATOM     16  C   UNL     1      -1.523  14.621   2.535  0.00  0.00    +0.000 C 
ATOM     17  C   UNL     1      -1.512  14.493   4.046  0.00  0.00    +0.000 C 
ATOM     18  C   UNL     1      -3.114  16.437   4.148  0.00  0.00    +0.000 C 
ATOM     19  C   UNL     1      -1.821  15.841   4.656  0.00  0.00    +0.000 C 
ENDROOT
TORSDOF 0
ENDMDL
