MODEL 1
REMARK VINA RESULT:      -5.7      0.000      0.000
REMARK  Name = 
REMARK  23 active torsions:
REMARK  status: ('A' for Active; 'I' for Inactive)
REMARK    1  A    between atoms: O_2  and  C_17
REMARK    2  A    between atoms: O_2  and  C_36
REMARK    3  A    between atoms: O_3  and  C_20
REMARK    4  A    between atoms: O_3  and  C_37
REMARK    5  A    between atoms: O_4  and  C_21
REMARK    6  A    between atoms: O_5  and  C_22
REMARK    7  A    between atoms: O_6  and  C_30
REMARK    8  A    between atoms: O_6  and  C_39
REMARK    9  A    between atoms: O_8  and  C_31
REMARK   10  A    between atoms: O_8  and  C_40
REMARK   11  A    between atoms: O_13  and  C_42
REMARK   12  A    between atoms: N_15  and  C_46
REMARK   13  A    between atoms: C_18  and  C_29
REMARK   14  A    between atoms: C_24  and  C_33
REMARK   15  A    between atoms: C_24  and  C_34
REMARK   16  A    between atoms: C_32  and  C_35
REMARK   17  A    between atoms: C_36  and  C_38
REMARK   18  A    between atoms: C_37  and  C_41
REMARK   19  A    between atoms: C_39  and  C_43
REMARK   20  A    between atoms: C_40  and  C_42
REMARK   21  A    between atoms: C_42  and  C_46
REMARK   22  A    between atoms: C_46  and  C_50
REMARK   23  A    between atoms: C_53  and  C_56
REMARK                            x       y       z     vdW  Elec       q    Type
REMARK                         _______ _______ _______ _____ _____    ______ ____
ROOT
ATOM      1  O   UNL     1      -8.019   5.049  15.150  0.00  0.00    +0.000 OA
ATOM      2  O   UNL     1      -5.641   0.993  19.877  0.00  0.00    +0.000 OA
ATOM      3  C   UNL     1      -8.879   3.060  17.823  0.00  0.00    +0.000 C 
ATOM      4  C   UNL     1      -8.756   4.409  17.055  0.00  0.00    +0.000 C 
ATOM      5  C   UNL     1      -7.249   2.806  18.761  0.00  0.00    +0.000 C 
ATOM      6  C   UNL     1      -7.638   3.955  16.029  0.00  0.00    +0.000 C 
ATOM      7  C   UNL     1     -10.537   2.881  18.656  0.00  0.00    +0.000 C 
ATOM      8  C   UNL     1     -11.512   1.709  19.780  0.00  0.00    +0.000 C 
ATOM      9  C   UNL     1      -6.148   2.767  17.621  0.00  0.00    +0.000 C 
ATOM     10  C   UNL     1      -6.226   3.912  16.567  0.00  0.00    +0.000 C 
ATOM     11  C   UNL     1     -10.924   0.308  20.695  0.00  0.00    +0.000 C 
ATOM     12  C   UNL     1      -9.388   4.863  15.680  0.00  0.00    +0.000 C 
ATOM     13  C   UNL     1      -6.817   1.408  19.943  0.00  0.00    +0.000 C 
ATOM     14  C   UNL     1     -12.055   2.610  20.983  0.00  0.00    +0.000 C 
ATOM     15  C   UNL     1      -9.682   0.690  21.638  0.00  0.00    +0.000 C 
ATOM     16  C   UNL     1      -6.832   4.079  19.611  0.00  0.00    +0.000 C 
ATOM     17  C   UNL     1      -7.942   0.515  21.220  0.00  0.00    +0.000 C 
ATOM     18  C   UNL     1     -11.220   2.643  22.342  0.00  0.00    +0.000 C 
ATOM     19  C   UNL     1     -10.027   1.644  22.567  0.00  0.00    +0.000 C 
ATOM     20  C   UNL     1     -12.132  -0.143  21.660  0.00  0.00    +0.000 C 
ATOM     21  C   UNL     1     -10.800  -1.075  19.977  0.00  0.00    +0.000 C 
ATOM     22  C   UNL     1      -9.139   1.994  23.735  0.00  0.00    +0.000 C 
ENDROOT
BRANCH   9  23
ATOM     23  O   UNL     1      -6.262   1.537  16.906  0.00  0.00    +0.000 OA
ATOM     24  H   UNL     1      -6.011   0.829  17.535  0.00  0.00    +0.000 HD
ENDBRANCH   9  23
BRANCH   8  25
ATOM     25  O   UNL     1     -12.665   1.308  19.014  0.00  0.00    +0.000 OA
ATOM     26  H   UNL     1     -13.401   1.912  19.217  0.00  0.00    +0.000 HD
ENDBRANCH   8  25
BRANCH  18  27
ATOM     27  O   UNL     1     -10.669   3.984  22.498  0.00  0.00    +0.000 OA
BRANCH  27  29
ATOM     28  O   UNL     1     -10.653   4.855  24.587  0.00  0.00    +0.000 OA
ATOM     29  C   UNL     1     -11.192   4.751  23.490  0.00  0.00    +0.000 C 
BRANCH  29  30
ATOM     30  C   UNL     1     -12.574   5.334  23.180  0.00  0.00    +0.000 C 
BRANCH  30  31
ATOM     31  O   UNL     1     -12.805   6.657  23.675  0.00  0.00    +0.000 OA
ATOM     32  H   UNL     1     -13.024   7.203  22.897  0.00  0.00    +0.000 HD
ENDBRANCH  30  31
BRANCH  30  33
ATOM     33  C   UNL     1     -13.646   4.351  23.728  0.00  0.00    +0.000 C 
BRANCH  33  34
ATOM     34  C   UNL     1     -15.000   4.623  23.089  0.00  0.00    +0.000 A 
ATOM     35  C   UNL     1     -16.075   5.037  23.896  0.00  0.00    +0.000 A 
ATOM     36  C   UNL     1     -15.225   4.444  21.715  0.00  0.00    +0.000 A 
ATOM     37  C   UNL     1     -17.332   5.281  23.341  0.00  0.00    +0.000 A 
ATOM     38  C   UNL     1     -16.482   4.691  21.161  0.00  0.00    +0.000 A 
ATOM     39  C   UNL     1     -17.534   5.111  21.973  0.00  0.00    +0.000 A 
ENDBRANCH  33  34
BRANCH  33  41
ATOM     40  O   UNL     1     -13.108   3.855  27.270  0.00  0.00    +0.000 OA
ATOM     41  N   UNL     1     -13.727   4.445  25.192  0.00  0.00    +0.000 N 
ATOM     42  C   UNL     1     -13.411   3.504  26.134  0.00  0.00    +0.000 C 
ATOM     43  H   UNL     1     -13.753   5.393  25.555  0.00  0.00    +0.000 HD
BRANCH  42  44
ATOM     44  C   UNL     1     -13.388   2.067  25.780  0.00  0.00    +0.000 A 
ATOM     45  C   UNL     1     -14.569   1.350  25.562  0.00  0.00    +0.000 A 
ATOM     46  C   UNL     1     -12.153   1.409  25.737  0.00  0.00    +0.000 A 
ATOM     47  C   UNL     1     -14.509  -0.007  25.241  0.00  0.00    +0.000 A 
ATOM     48  C   UNL     1     -12.096   0.053  25.419  0.00  0.00    +0.000 A 
ATOM     49  C   UNL     1     -13.273  -0.651  25.162  0.00  0.00    +0.000 A 
ENDBRANCH  42  44
ENDBRANCH  33  41
ENDBRANCH  30  33
ENDBRANCH  29  30
ENDBRANCH  27  29
ENDBRANCH  18  27
BRANCH  17  50
ATOM     50  O   UNL     1      -7.732  -0.913  21.238  0.00  0.00    +0.000 OA
BRANCH  50  52
ATOM     51  O   UNL     1      -5.836  -1.770  22.064  0.00  0.00    +0.000 OA
ATOM     52  C   UNL     1      -7.034  -1.544  22.209  0.00  0.00    +0.000 C 
ATOM     53  C   UNL     1      -7.787  -2.031  23.411  0.00  0.00    +0.000 C 
ENDBRANCH  50  52
ENDBRANCH  17  50
BRANCH   7  54
ATOM     54  O   UNL     1      -9.947   3.366  19.728  0.00  0.00    +0.000 OA
BRANCH  54  56
ATOM     55  O   UNL     1     -11.368   4.291  18.650  0.00  0.00    +0.000 OA
ATOM     56  C   UNL     1     -10.624   4.555  19.588  0.00  0.00    +0.000 C 
BRANCH  56  57
ATOM     57  C   UNL     1     -10.144   6.177  20.483  0.00  0.00    +0.000 A 
ATOM     58  C   UNL     1     -11.024   7.327  20.677  0.00  0.00    +0.000 A 
ATOM     59  C   UNL     1      -8.936   6.453  21.193  0.00  0.00    +0.000 A 
ATOM     60  C   UNL     1     -10.752   8.499  21.426  0.00  0.00    +0.000 A 
ATOM     61  C   UNL     1      -8.643   7.623  21.949  0.00  0.00    +0.000 A 
ATOM     62  C   UNL     1      -9.552   8.647  22.070  0.00  0.00    +0.000 A 
ENDBRANCH  56  57
ENDBRANCH  54  56
ENDBRANCH   7  54
BRANCH   4  63
ATOM     63  O   UNL     1      -8.364   5.500  17.920  0.00  0.00    +0.000 OA
BRANCH  63  65
ATOM     64  O   UNL     1      -9.517   7.343  17.400  0.00  0.00    +0.000 OA
ATOM     65  C   UNL     1      -8.425   6.808  17.581  0.00  0.00    +0.000 C 
ATOM     66  C   UNL     1      -7.159   7.558  17.316  0.00  0.00    +0.000 C 
ENDBRANCH  63  65
ENDBRANCH   4  63
TORSDOF 17
ENDMDL
MODEL 2
REMARK VINA RESULT:      -5.7      3.244      9.511
REMARK  Name = 
REMARK  23 active torsions:
REMARK  status: ('A' for Active; 'I' for Inactive)
REMARK    1  A    between atoms: O_2  and  C_17
REMARK    2  A    between atoms: O_2  and  C_36
REMARK    3  A    between atoms: O_3  and  C_20
REMARK    4  A    between atoms: O_3  and  C_37
REMARK    5  A    between atoms: O_4  and  C_21
REMARK    6  A    between atoms: O_5  and  C_22
REMARK    7  A    between atoms: O_6  and  C_30
REMARK    8  A    between atoms: O_6  and  C_39
REMARK    9  A    between atoms: O_8  and  C_31
REMARK   10  A    between atoms: O_8  and  C_40
REMARK   11  A    between atoms: O_13  and  C_42
REMARK   12  A    between atoms: N_15  and  C_46
REMARK   13  A    between atoms: C_18  and  C_29
REMARK   14  A    between atoms: C_24  and  C_33
REMARK   15  A    between atoms: C_24  and  C_34
REMARK   16  A    between atoms: C_32  and  C_35
REMARK   17  A    between atoms: C_36  and  C_38
REMARK   18  A    between atoms: C_37  and  C_41
REMARK   19  A    between atoms: C_39  and  C_43
REMARK   20  A    between atoms: C_40  and  C_42
REMARK   21  A    between atoms: C_42  and  C_46
REMARK   22  A    between atoms: C_46  and  C_50
REMARK   23  A    between atoms: C_53  and  C_56
REMARK                            x       y       z     vdW  Elec       q    Type
REMARK                         _______ _______ _______ _____ _____    ______ ____
ROOT
ATOM      1  O   UNL     1     -12.634   6.795  23.613  0.00  0.00    +0.000 OA
ATOM      2  O   UNL     1      -7.156   9.079  20.575  0.00  0.00    +0.000 OA
ATOM      3  C   UNL     1     -10.635   6.470  20.831  0.00  0.00    +0.000 C 
ATOM      4  C   UNL     1     -11.309   5.977  22.145  0.00  0.00    +0.000 C 
ATOM      5  C   UNL     1      -9.006   7.308  21.324  0.00  0.00    +0.000 C 
ATOM      6  C   UNL     1     -11.629   7.402  22.755  0.00  0.00    +0.000 C 
ATOM      7  C   UNL     1     -10.718   5.186  19.481  0.00  0.00    +0.000 C 
ATOM      8  C   UNL     1     -10.163   4.874  17.697  0.00  0.00    +0.000 C 
ATOM      9  C   UNL     1      -9.454   8.499  22.271  0.00  0.00    +0.000 C 
ATOM     10  C   UNL     1     -10.465   8.123  23.396  0.00  0.00    +0.000 C 
ATOM     11  C   UNL     1      -9.009   5.801  16.719  0.00  0.00    +0.000 C 
ATOM     12  C   UNL     1     -12.837   5.824  22.516  0.00  0.00    +0.000 C 
ATOM     13  C   UNL     1      -7.697   8.024  20.178  0.00  0.00    +0.000 C 
ATOM     14  C   UNL     1      -9.428   3.456  17.712  0.00  0.00    +0.000 C 
ATOM     15  C   UNL     1      -7.598   5.972  17.464  0.00  0.00    +0.000 C 
ATOM     16  C   UNL     1      -8.125   6.405  22.285  0.00  0.00    +0.000 C 
ATOM     17  C   UNL     1      -7.097   7.373  18.474  0.00  0.00    +0.000 C 
ATOM     18  C   UNL     1      -7.837   3.426  17.834  0.00  0.00    +0.000 C 
ATOM     19  C   UNL     1      -7.006   4.756  17.714  0.00  0.00    +0.000 C 
ATOM     20  C   UNL     1      -8.742   4.932  15.389  0.00  0.00    +0.000 C 
ATOM     21  C   UNL     1      -9.505   7.070  15.954  0.00  0.00    +0.000 C 
ATOM     22  C   UNL     1      -5.571   4.630  18.161  0.00  0.00    +0.000 C 
ENDROOT
BRANCH   9  23
ATOM     23  O   UNL     1     -10.070   9.515  21.481  0.00  0.00    +0.000 OA
ATOM     24  H   UNL     1      -9.366   9.887  20.912  0.00  0.00    +0.000 HD
ENDBRANCH   9  23
BRANCH   8  25
ATOM     25  O   UNL     1     -11.375   4.701  16.939  0.00  0.00    +0.000 OA
ATOM     26  H   UNL     1     -11.813   5.566  16.847  0.00  0.00    +0.000 HD
ENDBRANCH   8  25
BRANCH  18  27
ATOM     27  O   UNL     1      -7.497   2.843  19.125  0.00  0.00    +0.000 OA
BRANCH  27  29
ATOM     28  O   UNL     1      -6.006   1.287  19.816  0.00  0.00    +0.000 OA
ATOM     29  C   UNL     1      -6.963   1.594  19.114  0.00  0.00    +0.000 C 
BRANCH  29  30
ATOM     30  C   UNL     1      -7.546   0.665  18.045  0.00  0.00    +0.000 C 
BRANCH  30  31
ATOM     31  O   UNL     1      -8.451  -0.334  18.529  0.00  0.00    +0.000 OA
ATOM     32  H   UNL     1      -9.340   0.067  18.494  0.00  0.00    +0.000 HD
ENDBRANCH  30  31
BRANCH  30  33
ATOM     33  C   UNL     1      -6.364   0.004  17.282  0.00  0.00    +0.000 C 
BRANCH  33  34
ATOM     34  C   UNL     1      -5.541   1.057  16.553  0.00  0.00    +0.000 A 
ATOM     35  C   UNL     1      -6.117   1.765  15.484  0.00  0.00    +0.000 A 
ATOM     36  C   UNL     1      -4.205   1.325  16.892  0.00  0.00    +0.000 A 
ATOM     37  C   UNL     1      -5.384   2.727  14.787  0.00  0.00    +0.000 A 
ATOM     38  C   UNL     1      -3.474   2.288  16.196  0.00  0.00    +0.000 A 
ATOM     39  C   UNL     1      -4.064   2.990  15.145  0.00  0.00    +0.000 A 
ENDBRANCH  33  34
BRANCH  33  41
ATOM     40  O   UNL     1      -6.842  -3.067  15.434  0.00  0.00    +0.000 OA
ATOM     41  N   UNL     1      -6.861  -1.015  16.349  0.00  0.00    +0.000 N 
ATOM     42  C   UNL     1      -6.204  -2.092  15.820  0.00  0.00    +0.000 C 
ATOM     43  H   UNL     1      -7.873  -1.092  16.305  0.00  0.00    +0.000 HD
BRANCH  42  44
ATOM     44  C   UNL     1      -4.725  -2.111  15.753  0.00  0.00    +0.000 A 
ATOM     45  C   UNL     1      -3.951  -2.534  16.838  0.00  0.00    +0.000 A 
ATOM     46  C   UNL     1      -4.102  -1.625  14.598  0.00  0.00    +0.000 A 
ATOM     47  C   UNL     1      -2.559  -2.528  16.743  0.00  0.00    +0.000 A 
ATOM     48  C   UNL     1      -2.711  -1.617  14.506  0.00  0.00    +0.000 A 
ATOM     49  C   UNL     1      -1.941  -2.078  15.575  0.00  0.00    +0.000 A 
ENDBRANCH  42  44
ENDBRANCH  33  41
ENDBRANCH  30  33
ENDBRANCH  29  30
ENDBRANCH  27  29
ENDBRANCH  18  27
BRANCH  17  50
ATOM     50  O   UNL     1      -6.908   8.433  17.512  0.00  0.00    +0.000 OA
BRANCH  50  52
ATOM     51  O   UNL     1      -4.672   8.396  17.601  0.00  0.00    +0.000 OA
ATOM     52  C   UNL     1      -5.695   8.953  17.215  0.00  0.00    +0.000 C 
ATOM     53  C   UNL     1      -5.653  10.262  16.486  0.00  0.00    +0.000 C 
ENDBRANCH  50  52
ENDBRANCH  17  50
BRANCH   7  54
ATOM     54  O   UNL     1      -9.519   4.820  19.884  0.00  0.00    +0.000 OA
BRANCH  54  56
ATOM     55  O   UNL     1     -11.198   3.727  20.040  0.00  0.00    +0.000 OA
ATOM     56  C   UNL     1     -10.026   3.647  20.392  0.00  0.00    +0.000 C 
BRANCH  56  57
ATOM     57  C   UNL     1      -9.080   2.500  21.597  0.00  0.00    +0.000 A 
ATOM     58  C   UNL     1      -9.302   1.063  21.744  0.00  0.00    +0.000 A 
ATOM     59  C   UNL     1      -7.956   2.834  22.413  0.00  0.00    +0.000 A 
ATOM     60  C   UNL     1      -8.554   0.156  22.536  0.00  0.00    +0.000 A 
ATOM     61  C   UNL     1      -7.194   1.939  23.216  0.00  0.00    +0.000 A 
ATOM     62  C   UNL     1      -7.489   0.598  23.277  0.00  0.00    +0.000 A 
ENDBRANCH  56  57
ENDBRANCH  54  56
ENDBRANCH   7  54
BRANCH   4  63
ATOM     63  O   UNL     1     -10.417   5.170  22.950  0.00  0.00    +0.000 OA
BRANCH  63  65
ATOM     64  O   UNL     1     -11.550   3.388  23.684  0.00  0.00    +0.000 OA
ATOM     65  C   UNL     1     -10.817   4.341  23.941  0.00  0.00    +0.000 C 
ATOM     66  C   UNL     1     -10.457   4.661  25.356  0.00  0.00    +0.000 C 
ENDBRANCH  63  65
ENDBRANCH   4  63
TORSDOF 17
ENDMDL
MODEL 3
REMARK VINA RESULT:      -5.6      5.398      8.234
REMARK  Name = 
REMARK  23 active torsions:
REMARK  status: ('A' for Active; 'I' for Inactive)
REMARK    1  A    between atoms: O_2  and  C_17
REMARK    2  A    between atoms: O_2  and  C_36
REMARK    3  A    between atoms: O_3  and  C_20
REMARK    4  A    between atoms: O_3  and  C_37
REMARK    5  A    between atoms: O_4  and  C_21
REMARK    6  A    between atoms: O_5  and  C_22
REMARK    7  A    between atoms: O_6  and  C_30
REMARK    8  A    between atoms: O_6  and  C_39
REMARK    9  A    between atoms: O_8  and  C_31
REMARK   10  A    between atoms: O_8  and  C_40
REMARK   11  A    between atoms: O_13  and  C_42
REMARK   12  A    between atoms: N_15  and  C_46
REMARK   13  A    between atoms: C_18  and  C_29
REMARK   14  A    between atoms: C_24  and  C_33
REMARK   15  A    between atoms: C_24  and  C_34
REMARK   16  A    between atoms: C_32  and  C_35
REMARK   17  A    between atoms: C_36  and  C_38
REMARK   18  A    between atoms: C_37  and  C_41
REMARK   19  A    between atoms: C_39  and  C_43
REMARK   20  A    between atoms: C_40  and  C_42
REMARK   21  A    between atoms: C_42  and  C_46
REMARK   22  A    between atoms: C_46  and  C_50
REMARK   23  A    between atoms: C_53  and  C_56
REMARK                            x       y       z     vdW  Elec       q    Type
REMARK                         _______ _______ _______ _____ _____    ______ ____
ROOT
ATOM      1  O   UNL     1       0.182   5.544  13.453  0.00  0.00    +0.000 OA
ATOM      2  O   UNL     1      -1.000   0.804  17.991  0.00  0.00    +0.000 OA
ATOM      3  C   UNL     1      -2.275   3.944  15.254  0.00  0.00    +0.000 C 
ATOM      4  C   UNL     1      -1.425   5.173  14.818  0.00  0.00    +0.000 C 
ATOM      5  C   UNL     1      -1.341   3.099  16.673  0.00  0.00    +0.000 C 
ATOM      6  C   UNL     1      -0.201   4.368  14.218  0.00  0.00    +0.000 C 
ATOM      7  C   UNL     1      -4.090   4.359  15.374  0.00  0.00    +0.000 C 
ATOM      8  C   UNL     1      -5.756   3.595  15.849  0.00  0.00    +0.000 C 
ATOM      9  C   UNL     1       0.049   2.688  16.031  0.00  0.00    +0.000 C 
ATOM     10  C   UNL     1       0.777   3.807  15.225  0.00  0.00    +0.000 C 
ATOM     11  C   UNL     1      -6.073   2.057  16.674  0.00  0.00    +0.000 C 
ATOM     12  C   UNL     1      -1.264   5.854  13.402  0.00  0.00    +0.000 C 
ATOM     13  C   UNL     1      -1.900   1.615  17.685  0.00  0.00    +0.000 C 
ATOM     14  C   UNL     1      -6.415   4.605  16.897  0.00  0.00    +0.000 C 
ATOM     15  C   UNL     1      -5.268   1.945  18.058  0.00  0.00    +0.000 C 
ATOM     16  C   UNL     1      -0.916   4.117  17.813  0.00  0.00    +0.000 C 
ATOM     17  C   UNL     1      -3.666   1.162  18.290  0.00  0.00    +0.000 C 
ATOM     18  C   UNL     1      -6.239   4.306  18.454  0.00  0.00    +0.000 C 
ATOM     19  C   UNL     1      -5.630   2.939  18.937  0.00  0.00    +0.000 C 
ATOM     20  C   UNL     1      -7.643   2.053  17.036  0.00  0.00    +0.000 C 
ATOM     21  C   UNL     1      -6.124   0.739  15.836  0.00  0.00    +0.000 C 
ATOM     22  C   UNL     1      -5.230   2.920  20.391  0.00  0.00    +0.000 C 
ENDROOT
BRANCH   9  23
ATOM     23  O   UNL     1      -0.157   1.598  15.133  0.00  0.00    +0.000 OA
ATOM     24  H   UNL     1      -0.677   0.931  15.626  0.00  0.00    +0.000 HD
ENDBRANCH   9  23
BRANCH   8  25
ATOM     25  O   UNL     1      -6.563   3.654  14.658  0.00  0.00    +0.000 OA
ATOM     26  H   UNL     1      -7.280   4.297  14.797  0.00  0.00    +0.000 HD
ENDBRANCH   8  25
BRANCH  18  27
ATOM     27  O   UNL     1      -5.398   5.354  19.020  0.00  0.00    +0.000 OA
BRANCH  27  29
ATOM     28  O   UNL     1      -6.621   5.762  20.879  0.00  0.00    +0.000 OA
ATOM     29  C   UNL     1      -5.977   6.184  19.925  0.00  0.00    +0.000 C 
BRANCH  29  30
ATOM     30  C   UNL     1      -5.895   7.671  19.566  0.00  0.00    +0.000 C 
BRANCH  30  31
ATOM     31  O   UNL     1      -5.932   8.573  20.678  0.00  0.00    +0.000 OA
ATOM     32  H   UNL     1      -6.190   9.440  20.314  0.00  0.00    +0.000 HD
ENDBRANCH  30  31
BRANCH  30  33
ATOM     33  C   UNL     1      -7.042   7.990  18.567  0.00  0.00    +0.000 C 
BRANCH  33  34
ATOM     34  C   UNL     1      -6.731   9.254  17.778  0.00  0.00    +0.000 A 
ATOM     35  C   UNL     1      -6.781  10.501  18.424  0.00  0.00    +0.000 A 
ATOM     36  C   UNL     1      -6.425   9.220  16.408  0.00  0.00    +0.000 A 
ATOM     37  C   UNL     1      -6.513  11.679  17.724  0.00  0.00    +0.000 A 
ATOM     38  C   UNL     1      -6.156  10.398  15.710  0.00  0.00    +0.000 A 
ATOM     39  C   UNL     1      -6.198  11.627  16.368  0.00  0.00    +0.000 A 
ENDBRANCH  33  34
BRANCH  33  41
ATOM     40  O   UNL     1     -10.241   7.286  20.100  0.00  0.00    +0.000 OA
ATOM     41  N   UNL     1      -8.321   8.115  19.279  0.00  0.00    +0.000 N 
ATOM     42  C   UNL     1      -9.448   7.348  19.165  0.00  0.00    +0.000 C 
ATOM     43  H   UNL     1      -8.276   8.649  20.141  0.00  0.00    +0.000 HD
BRANCH  42  44
ATOM     44  C   UNL     1      -9.696   6.554  17.941  0.00  0.00    +0.000 A 
ATOM     45  C   UNL     1     -10.047   5.202  18.007  0.00  0.00    +0.000 A 
ATOM     46  C   UNL     1      -9.502   7.166  16.697  0.00  0.00    +0.000 A 
ATOM     47  C   UNL     1     -10.263   4.483  16.830  0.00  0.00    +0.000 A 
ATOM     48  C   UNL     1      -9.715   6.444  15.523  0.00  0.00    +0.000 A 
ATOM     49  C   UNL     1     -10.105   5.105  15.592  0.00  0.00    +0.000 A 
ENDBRANCH  42  44
ENDBRANCH  33  41
ENDBRANCH  30  33
ENDBRANCH  29  30
ENDBRANCH  27  29
ENDBRANCH  18  27
BRANCH  17  50
ATOM     50  O   UNL     1      -3.955  -0.246  18.150  0.00  0.00    +0.000 OA
BRANCH  50  52
ATOM     51  O   UNL     1      -2.773  -1.807  19.235  0.00  0.00    +0.000 OA
ATOM     52  C   UNL     1      -3.798  -1.135  19.157  0.00  0.00    +0.000 C 
ATOM     53  C   UNL     1      -4.942  -1.330  20.105  0.00  0.00    +0.000 C 
ENDBRANCH  50  52
ENDBRANCH  17  50
BRANCH   7  54
ATOM     54  O   UNL     1      -3.860   4.575  16.652  0.00  0.00    +0.000 OA
BRANCH  54  56
ATOM     55  O   UNL     1      -4.485   5.966  15.344  0.00  0.00    +0.000 OA
ATOM     56  C   UNL     1      -3.999   5.931  16.469  0.00  0.00    +0.000 C 
BRANCH  56  57
ATOM     57  C   UNL     1      -3.251   7.255  17.631  0.00  0.00    +0.000 A 
ATOM     58  C   UNL     1      -2.502   6.978  18.855  0.00  0.00    +0.000 A 
ATOM     59  C   UNL     1      -3.195   8.666  17.418  0.00  0.00    +0.000 A 
ATOM     60  C   UNL     1      -1.837   7.916  19.684  0.00  0.00    +0.000 A 
ATOM     61  C   UNL     1      -2.534   9.623  18.239  0.00  0.00    +0.000 A 
ATOM     62  C   UNL     1      -1.850   9.250  19.371  0.00  0.00    +0.000 A 
ENDBRANCH  56  57
ENDBRANCH  54  56
ENDBRANCH   7  54
BRANCH   4  63
ATOM     63  O   UNL     1      -1.087   6.030  15.933  0.00  0.00    +0.000 OA
BRANCH  63  65
ATOM     64  O   UNL     1      -0.788   8.108  15.163  0.00  0.00    +0.000 OA
ATOM     65  C   UNL     1      -0.364   7.169  15.834  0.00  0.00    +0.000 C 
ATOM     66  C   UNL     1       1.000   7.229  16.445  0.00  0.00    +0.000 C 
ENDBRANCH  63  65
ENDBRANCH   4  63
TORSDOF 17
ENDMDL
MODEL 4
REMARK VINA RESULT:      -5.5      2.624      4.757
REMARK  Name = 
REMARK  23 active torsions:
REMARK  status: ('A' for Active; 'I' for Inactive)
REMARK    1  A    between atoms: O_2  and  C_17
REMARK    2  A    between atoms: O_2  and  C_36
REMARK    3  A    between atoms: O_3  and  C_20
REMARK    4  A    between atoms: O_3  and  C_37
REMARK    5  A    between atoms: O_4  and  C_21
REMARK    6  A    between atoms: O_5  and  C_22
REMARK    7  A    between atoms: O_6  and  C_30
REMARK    8  A    between atoms: O_6  and  C_39
REMARK    9  A    between atoms: O_8  and  C_31
REMARK   10  A    between atoms: O_8  and  C_40
REMARK   11  A    between atoms: O_13  and  C_42
REMARK   12  A    between atoms: N_15  and  C_46
REMARK   13  A    between atoms: C_18  and  C_29
REMARK   14  A    between atoms: C_24  and  C_33
REMARK   15  A    between atoms: C_24  and  C_34
REMARK   16  A    between atoms: C_32  and  C_35
REMARK   17  A    between atoms: C_36  and  C_38
REMARK   18  A    between atoms: C_37  and  C_41
REMARK   19  A    between atoms: C_39  and  C_43
REMARK   20  A    between atoms: C_40  and  C_42
REMARK   21  A    between atoms: C_42  and  C_46
REMARK   22  A    between atoms: C_46  and  C_50
REMARK   23  A    between atoms: C_53  and  C_56
REMARK                            x       y       z     vdW  Elec       q    Type
REMARK                         _______ _______ _______ _____ _____    ______ ____
ROOT
ATOM      1  O   UNL     1      -3.370  10.128  17.699  0.00  0.00    +0.000 OA
ATOM      2  O   UNL     1      -4.427   3.546  17.807  0.00  0.00    +0.000 OA
ATOM      3  C   UNL     1      -5.788   7.680  17.637  0.00  0.00    +0.000 C 
ATOM      4  C   UNL     1      -5.045   8.909  18.238  0.00  0.00    +0.000 C 
ATOM      5  C   UNL     1      -4.901   6.129  18.276  0.00  0.00    +0.000 C 
ATOM      6  C   UNL     1      -3.686   8.731  17.445  0.00  0.00    +0.000 C 
ATOM      7  C   UNL     1      -7.640   7.870  17.733  0.00  0.00    +0.000 C 
ATOM      8  C   UNL     1      -9.247   6.944  17.346  0.00  0.00    +0.000 C 
ATOM      9  C   UNL     1      -3.419   6.279  17.732  0.00  0.00    +0.000 C 
ATOM     10  C   UNL     1      -2.750   7.667  17.969  0.00  0.00    +0.000 C 
ATOM     11  C   UNL     1      -9.464   5.239  16.909  0.00  0.00    +0.000 C 
ATOM     12  C   UNL     1      -4.830  10.361  17.653  0.00  0.00    +0.000 C 
ATOM     13  C   UNL     1      -5.380   4.335  17.978  0.00  0.00    +0.000 C 
ATOM     14  C   UNL     1     -10.112   6.993  18.688  0.00  0.00    +0.000 C 
ATOM     15  C   UNL     1      -8.784   4.257  17.981  0.00  0.00    +0.000 C 
ATOM     16  C   UNL     1      -4.703   6.147  19.849  0.00  0.00    +0.000 C 
ATOM     17  C   UNL     1      -7.133   3.554  17.876  0.00  0.00    +0.000 C 
ATOM     18  C   UNL     1     -10.049   5.742  19.676  0.00  0.00    +0.000 C 
ATOM     19  C   UNL     1      -9.338   4.412  19.231  0.00  0.00    +0.000 C 
ATOM     20  C   UNL     1     -11.050   4.960  16.947  0.00  0.00    +0.000 C 
ATOM     21  C   UNL     1      -9.286   4.805  15.418  0.00  0.00    +0.000 C 
ATOM     22  C   UNL     1      -9.075   3.444  20.358  0.00  0.00    +0.000 C 
ENDROOT
BRANCH   9  23
ATOM     23  O   UNL     1      -3.415   6.051  16.323  0.00  0.00    +0.000 OA
ATOM     24  H   UNL     1      -2.533   5.686  16.106  0.00  0.00    +0.000 HD
ENDBRANCH   9  23
BRANCH   8  25
ATOM     25  O   UNL     1      -9.940   7.759  16.381  0.00  0.00    +0.000 OA
ATOM     26  H   UNL     1      -9.486   8.617  16.312  0.00  0.00    +0.000 HD
ENDBRANCH   8  25
BRANCH  18  27
ATOM     27  O   UNL     1      -9.389   6.171  20.903  0.00  0.00    +0.000 OA
BRANCH  27  29
ATOM     28  O   UNL     1      -9.551   5.444  23.040  0.00  0.00    +0.000 OA
ATOM     29  C   UNL     1     -10.067   5.979  22.064  0.00  0.00    +0.000 C 
BRANCH  29  30
ATOM     30  C   UNL     1     -11.555   6.336  21.997  0.00  0.00    +0.000 C 
BRANCH  30  31
ATOM     31  O   UNL     1     -11.886   7.664  22.416  0.00  0.00    +0.000 OA
ATOM     32  H   UNL     1     -12.859   7.725  22.380  0.00  0.00    +0.000 HD
ENDBRANCH  30  31
BRANCH  30  33
ATOM     33  C   UNL     1     -12.340   5.288  22.834  0.00  0.00    +0.000 C 
BRANCH  33  34
ATOM     34  C   UNL     1     -12.639   4.050  22.001  0.00  0.00    +0.000 A 
ATOM     35  C   UNL     1     -12.088   2.813  22.379  0.00  0.00    +0.000 A 
ATOM     36  C   UNL     1     -13.427   4.106  20.840  0.00  0.00    +0.000 A 
ATOM     37  C   UNL     1     -12.333   1.663  21.628  0.00  0.00    +0.000 A 
ATOM     38  C   UNL     1     -13.672   2.954  20.091  0.00  0.00    +0.000 A 
ATOM     39  C   UNL     1     -13.128   1.733  20.486  0.00  0.00    +0.000 A 
ENDBRANCH  33  34
BRANCH  33  41
ATOM     40  O   UNL     1     -15.008   6.363  25.026  0.00  0.00    +0.000 OA
ATOM     41  N   UNL     1     -13.577   5.878  23.363  0.00  0.00    +0.000 N 
ATOM     42  C   UNL     1     -14.285   5.534  24.483  0.00  0.00    +0.000 C 
ATOM     43  H   UNL     1     -13.781   6.813  23.023  0.00  0.00    +0.000 HD
BRANCH  42  44
ATOM     44  C   UNL     1     -14.148   4.183  25.071  0.00  0.00    +0.000 A 
ATOM     45  C   UNL     1     -13.152   3.893  26.009  0.00  0.00    +0.000 A 
ATOM     46  C   UNL     1     -14.998   3.167  24.617  0.00  0.00    +0.000 A 
ATOM     47  C   UNL     1     -13.047   2.604  26.535  0.00  0.00    +0.000 A 
ATOM     48  C   UNL     1     -14.889   1.880  25.143  0.00  0.00    +0.000 A 
ATOM     49  C   UNL     1     -13.920   1.603  26.108  0.00  0.00    +0.000 A 
ENDBRANCH  42  44
ENDBRANCH  33  41
ENDBRANCH  30  33
ENDBRANCH  29  30
ENDBRANCH  27  29
ENDBRANCH  18  27
BRANCH  17  50
ATOM     50  O   UNL     1      -7.246   2.585  16.811  0.00  0.00    +0.000 OA
BRANCH  50  52
ATOM     51  O   UNL     1      -6.618   0.566  16.078  0.00  0.00    +0.000 OA
ATOM     52  C   UNL     1      -7.048   1.260  16.994  0.00  0.00    +0.000 C 
ATOM     53  C   UNL     1      -7.453   0.666  18.310  0.00  0.00    +0.000 C 
ENDBRANCH  50  52
ENDBRANCH  17  50
BRANCH   7  54
ATOM     54  O   UNL     1      -7.558   7.191  18.858  0.00  0.00    +0.000 OA
BRANCH  54  56
ATOM     55  O   UNL     1      -8.007   9.142  18.688  0.00  0.00    +0.000 OA
ATOM     56  C   UNL     1      -7.863   8.317  19.584  0.00  0.00    +0.000 C 
BRANCH  56  57
ATOM     57  C   UNL     1      -7.711   8.443  21.488  0.00  0.00    +0.000 A 
ATOM     58  C   UNL     1      -8.581   9.236  22.354  0.00  0.00    +0.000 A 
ATOM     59  C   UNL     1      -6.838   7.702  22.341  0.00  0.00    +0.000 A 
ATOM     60  C   UNL     1      -8.578   9.272  23.771  0.00  0.00    +0.000 A 
ATOM     61  C   UNL     1      -6.818   7.726  23.764  0.00  0.00    +0.000 A 
ATOM     62  C   UNL     1      -7.690   8.508  24.482  0.00  0.00    +0.000 A 
ENDBRANCH  56  57
ENDBRANCH  54  56
ENDBRANCH   7  54
BRANCH   4  63
ATOM     63  O   UNL     1      -4.912   8.821  19.676  0.00  0.00    +0.000 OA
BRANCH  63  65
ATOM     64  O   UNL     1      -3.197   9.749  20.770  0.00  0.00    +0.000 OA
ATOM     65  C   UNL     1      -4.386   9.790  20.459  0.00  0.00    +0.000 C 
ATOM     66  C   UNL     1      -5.284  10.837  21.035  0.00  0.00    +0.000 C 
ENDBRANCH  63  65
ENDBRANCH   4  63
TORSDOF 17
ENDMDL
MODEL 5
REMARK VINA RESULT:      -5.5     11.981     16.939
REMARK  Name = 
REMARK  23 active torsions:
REMARK  status: ('A' for Active; 'I' for Inactive)
REMARK    1  A    between atoms: O_2  and  C_17
REMARK    2  A    between atoms: O_2  and  C_36
REMARK    3  A    between atoms: O_3  and  C_20
REMARK    4  A    between atoms: O_3  and  C_37
REMARK    5  A    between atoms: O_4  and  C_21
REMARK    6  A    between atoms: O_5  and  C_22
REMARK    7  A    between atoms: O_6  and  C_30
REMARK    8  A    between atoms: O_6  and  C_39
REMARK    9  A    between atoms: O_8  and  C_31
REMARK   10  A    between atoms: O_8  and  C_40
REMARK   11  A    between atoms: O_13  and  C_42
REMARK   12  A    between atoms: N_15  and  C_46
REMARK   13  A    between atoms: C_18  and  C_29
REMARK   14  A    between atoms: C_24  and  C_33
REMARK   15  A    between atoms: C_24  and  C_34
REMARK   16  A    between atoms: C_32  and  C_35
REMARK   17  A    between atoms: C_36  and  C_38
REMARK   18  A    between atoms: C_37  and  C_41
REMARK   19  A    between atoms: C_39  and  C_43
REMARK   20  A    between atoms: C_40  and  C_42
REMARK   21  A    between atoms: C_42  and  C_46
REMARK   22  A    between atoms: C_46  and  C_50
REMARK   23  A    between atoms: C_53  and  C_56
REMARK                            x       y       z     vdW  Elec       q    Type
REMARK                         _______ _______ _______ _____ _____    ______ ____
ROOT
ATOM      1  O   UNL     1     -31.782   4.942  12.954  0.00  0.00    +0.000 OA
ATOM      2  O   UNL     1     -25.634   4.361  10.440  0.00  0.00    +0.000 OA
ATOM      3  C   UNL     1     -28.703   3.470  13.400  0.00  0.00    +0.000 C 
ATOM      4  C   UNL     1     -29.888   4.401  13.792  0.00  0.00    +0.000 C 
ATOM      5  C   UNL     1     -27.534   4.491  12.309  0.00  0.00    +0.000 C 
ATOM      6  C   UNL     1     -30.522   4.539  12.348  0.00  0.00    +0.000 C 
ATOM      7  C   UNL     1     -28.086   2.478  14.853  0.00  0.00    +0.000 C 
ATOM      8  C   UNL     1     -26.749   1.224  15.331  0.00  0.00    +0.000 C 
ATOM      9  C   UNL     1     -28.427   4.907  11.067  0.00  0.00    +0.000 C 
ATOM     10  C   UNL     1     -29.827   5.499  11.410  0.00  0.00    +0.000 C 
ATOM     11  C   UNL     1     -25.317   0.728  14.408  0.00  0.00    +0.000 C 
ATOM     12  C   UNL     1     -31.403   4.061  14.081  0.00  0.00    +0.000 C 
ATOM     13  C   UNL     1     -25.877   3.955  11.597  0.00  0.00    +0.000 C 
ATOM     14  C   UNL     1     -26.040   1.819  16.633  0.00  0.00    +0.000 C 
ATOM     15  C   UNL     1     -24.426   1.988  13.965  0.00  0.00    +0.000 C 
ATOM     16  C   UNL     1     -27.161   5.889  12.959  0.00  0.00    +0.000 C 
ATOM     17  C   UNL     1     -24.521   2.851  12.392  0.00  0.00    +0.000 C 
ATOM     18  C   UNL     1     -24.690   2.650  16.449  0.00  0.00    +0.000 C 
ATOM     19  C   UNL     1     -23.963   2.687  15.055  0.00  0.00    +0.000 C 
ATOM     20  C   UNL     1     -24.420  -0.161  15.408  0.00  0.00    +0.000 C 
ATOM     21  C   UNL     1     -25.458  -0.388  13.323  0.00  0.00    +0.000 C 
ATOM     22  C   UNL     1     -22.898   3.750  14.942  0.00  0.00    +0.000 C 
ENDROOT
BRANCH   9  23
ATOM     23  O   UNL     1     -28.651   3.758  10.250  0.00  0.00    +0.000 OA
ATOM     24  H   UNL     1     -28.471   4.036   9.329  0.00  0.00    +0.000 HD
ENDBRANCH   9  23
BRANCH   8  25
ATOM     25  O   UNL     1     -27.458   0.044  15.752  0.00  0.00    +0.000 OA
ATOM     26  H   UNL     1     -27.956   0.250  16.562  0.00  0.00    +0.000 HD
ENDBRANCH   8  25
BRANCH  18  27
ATOM     27  O   UNL     1     -24.964   4.036  16.808  0.00  0.00    +0.000 OA
BRANCH  27  29
ATOM     28  O   UNL     1     -24.542   3.873  19.025  0.00  0.00    +0.000 OA
ATOM     29  C   UNL     1     -24.426   4.488  17.970  0.00  0.00    +0.000 C 
BRANCH  29  30
ATOM     30  C   UNL     1     -23.811   5.888  17.883  0.00  0.00    +0.000 C 
BRANCH  30  31
ATOM     31  O   UNL     1     -23.956   6.543  16.618  0.00  0.00    +0.000 OA
ATOM     32  H   UNL     1     -23.053   6.658  16.267  0.00  0.00    +0.000 HD
ENDBRANCH  30  31
BRANCH  30  33
ATOM     33  C   UNL     1     -22.311   5.782  18.273  0.00  0.00    +0.000 C 
BRANCH  33  34
ATOM     34  C   UNL     1     -21.507   6.901  17.625  0.00  0.00    +0.000 A 
ATOM     35  C   UNL     1     -20.366   6.583  16.868  0.00  0.00    +0.000 A 
ATOM     36  C   UNL     1     -21.851   8.253  17.784  0.00  0.00    +0.000 A 
ATOM     37  C   UNL     1     -19.602   7.587  16.273  0.00  0.00    +0.000 A 
ATOM     38  C   UNL     1     -21.086   9.256  17.187  0.00  0.00    +0.000 A 
ATOM     39  C   UNL     1     -19.964   8.923  16.430  0.00  0.00    +0.000 A 
ENDBRANCH  33  34
BRANCH  33  41
ATOM     40  O   UNL     1     -21.054   2.392  18.378  0.00  0.00    +0.000 OA
ATOM     41  N   UNL     1     -21.776   4.466  17.899  0.00  0.00    +0.000 N 
ATOM     42  C   UNL     1     -21.044   3.588  18.652  0.00  0.00    +0.000 C 
ATOM     43  H   UNL     1     -22.227   4.037  17.097  0.00  0.00    +0.000 HD
BRANCH  42  44
ATOM     44  C   UNL     1     -20.276   4.065  19.825  0.00  0.00    +0.000 A 
ATOM     45  C   UNL     1     -20.795   3.977  21.120  0.00  0.00    +0.000 A 
ATOM     46  C   UNL     1     -19.036   4.677  19.608  0.00  0.00    +0.000 A 
ATOM     47  C   UNL     1     -20.046   4.446  22.201  0.00  0.00    +0.000 A 
ATOM     48  C   UNL     1     -18.292   5.147  20.689  0.00  0.00    +0.000 A 
ATOM     49  C   UNL     1     -18.794   5.022  21.986  0.00  0.00    +0.000 A 
ENDBRANCH  42  44
ENDBRANCH  33  41
ENDBRANCH  30  33
ENDBRANCH  29  30
ENDBRANCH  27  29
ENDBRANCH  18  27
BRANCH  17  50
ATOM     50  O   UNL     1     -23.955   1.909  11.455  0.00  0.00    +0.000 OA
BRANCH  50  52
ATOM     51  O   UNL     1     -22.230   3.025  10.567  0.00  0.00    +0.000 OA
ATOM     52  C   UNL     1     -22.676   1.976  11.022  0.00  0.00    +0.000 C 
ATOM     53  C   UNL     1     -21.864   0.716  11.037  0.00  0.00    +0.000 C 
ENDBRANCH  50  52
ENDBRANCH  17  50
BRANCH   7  54
ATOM     54  O   UNL     1     -27.198   3.437  15.011  0.00  0.00    +0.000 OA
BRANCH  54  56
ATOM     55  O   UNL     1     -28.697   3.003  16.276  0.00  0.00    +0.000 OA
ATOM     56  C   UNL     1     -27.832   3.863  16.154  0.00  0.00    +0.000 C 
BRANCH  56  57
ATOM     57  C   UNL     1     -27.522   5.558  16.988  0.00  0.00    +0.000 A 
ATOM     58  C   UNL     1     -27.121   6.780  16.293  0.00  0.00    +0.000 A 
ATOM     59  C   UNL     1     -27.757   5.912  18.351  0.00  0.00    +0.000 A 
ATOM     60  C   UNL     1     -26.989   8.078  16.847  0.00  0.00    +0.000 A 
ATOM     61  C   UNL     1     -27.628   7.208  18.926  0.00  0.00    +0.000 A 
ATOM     62  C   UNL     1     -27.248   8.294  18.175  0.00  0.00    +0.000 A 
ENDBRANCH  56  57
ENDBRANCH  54  56
ENDBRANCH   7  54
BRANCH   4  63
ATOM     63  O   UNL     1     -29.437   5.650  14.368  0.00  0.00    +0.000 OA
BRANCH  63  65
ATOM     64  O   UNL     1     -30.438   7.639  14.161  0.00  0.00    +0.000 OA
ATOM     65  C   UNL     1     -30.257   6.622  14.828  0.00  0.00    +0.000 C 
ATOM     66  C   UNL     1     -30.842   6.501  16.199  0.00  0.00    +0.000 C 
ENDBRANCH  63  65
ENDBRANCH   4  63
TORSDOF 17
ENDMDL
MODEL 6
REMARK VINA RESULT:      -5.4     21.301     25.975
REMARK  Name = 
REMARK  23 active torsions:
REMARK  status: ('A' for Active; 'I' for Inactive)
REMARK    1  A    between atoms: O_2  and  C_17
REMARK    2  A    between atoms: O_2  and  C_36
REMARK    3  A    between atoms: O_3  and  C_20
REMARK    4  A    between atoms: O_3  and  C_37
REMARK    5  A    between atoms: O_4  and  C_21
REMARK    6  A    between atoms: O_5  and  C_22
REMARK    7  A    between atoms: O_6  and  C_30
REMARK    8  A    between atoms: O_6  and  C_39
REMARK    9  A    between atoms: O_8  and  C_31
REMARK   10  A    between atoms: O_8  and  C_40
REMARK   11  A    between atoms: O_13  and  C_42
REMARK   12  A    between atoms: N_15  and  C_46
REMARK   13  A    between atoms: C_18  and  C_29
REMARK   14  A    between atoms: C_24  and  C_33
REMARK   15  A    between atoms: C_24  and  C_34
REMARK   16  A    between atoms: C_32  and  C_35
REMARK   17  A    between atoms: C_36  and  C_38
REMARK   18  A    between atoms: C_37  and  C_41
REMARK   19  A    between atoms: C_39  and  C_43
REMARK   20  A    between atoms: C_40  and  C_42
REMARK   21  A    between atoms: C_42  and  C_46
REMARK   22  A    between atoms: C_46  and  C_50
REMARK   23  A    between atoms: C_53  and  C_56
REMARK                            x       y       z     vdW  Elec       q    Type
REMARK                         _______ _______ _______ _____ _____    ______ ____
ROOT
ATOM      1  O   UNL     1     -23.655  14.338  11.733  0.00  0.00    +0.000 OA
ATOM      2  O   UNL     1     -27.003  19.400   8.973  0.00  0.00    +0.000 OA
ATOM      3  C   UNL     1     -25.410  15.345   8.950  0.00  0.00    +0.000 C 
ATOM      4  C   UNL     1     -24.144  14.860   9.716  0.00  0.00    +0.000 C 
ATOM      5  C   UNL     1     -25.442  17.238   9.076  0.00  0.00    +0.000 C 
ATOM      6  C   UNL     1     -24.619  15.269  11.170  0.00  0.00    +0.000 C 
ATOM      7  C   UNL     1     -25.623  14.459   7.323  0.00  0.00    +0.000 C 
ATOM      8  C   UNL     1     -26.739  14.417   5.793  0.00  0.00    +0.000 C 
ATOM      9  C   UNL     1     -25.519  17.521  10.635  0.00  0.00    +0.000 C 
ATOM     10  C   UNL     1     -24.500  16.736  11.514  0.00  0.00    +0.000 C 
ATOM     11  C   UNL     1     -27.988  15.577   5.303  0.00  0.00    +0.000 C 
ATOM     12  C   UNL     1     -23.885  13.524  10.519  0.00  0.00    +0.000 C 
ATOM     13  C   UNL     1     -26.672  18.416   8.277  0.00  0.00    +0.000 C 
ATOM     14  C   UNL     1     -25.759  14.526   4.536  0.00  0.00    +0.000 C 
ATOM     15  C   UNL     1     -27.418  17.076   5.237  0.00  0.00    +0.000 C 
ATOM     16  C   UNL     1     -24.060  17.898   8.666  0.00  0.00    +0.000 C 
ATOM     17  C   UNL     1     -27.506  18.301   6.550  0.00  0.00    +0.000 C 
ATOM     18  C   UNL     1     -25.521  15.962   3.882  0.00  0.00    +0.000 C 
ATOM     19  C   UNL     1     -26.400  17.190   4.319  0.00  0.00    +0.000 C 
ATOM     20  C   UNL     1     -28.424  15.168   3.807  0.00  0.00    +0.000 C 
ATOM     21  C   UNL     1     -29.426  15.449   5.903  0.00  0.00    +0.000 C 
ATOM     22  C   UNL     1     -25.864  18.526   3.867  0.00  0.00    +0.000 C 
ENDROOT
BRANCH   9  23
ATOM     23  O   UNL     1     -26.823  17.180  11.105  0.00  0.00    +0.000 OA
ATOM     24  H   UNL     1     -27.384  17.969  10.957  0.00  0.00    +0.000 HD
ENDBRANCH   9  23
BRANCH   8  25
ATOM     25  O   UNL     1     -27.303  13.092   5.762  0.00  0.00    +0.000 OA
ATOM     26  H   UNL     1     -27.973  13.054   5.057  0.00  0.00    +0.000 HD
ENDBRANCH   8  25
BRANCH  18  27
ATOM     27  O   UNL     1     -24.134  16.341   4.123  0.00  0.00    +0.000 OA
BRANCH  27  29
ATOM     28  O   UNL     1     -23.612  15.860   1.974  0.00  0.00    +0.000 OA
ATOM     29  C   UNL     1     -23.313  16.384   3.042  0.00  0.00    +0.000 C 
BRANCH  29  30
ATOM     30  C   UNL     1     -21.933  16.990   3.318  0.00  0.00    +0.000 C 
BRANCH  30  31
ATOM     31  O   UNL     1     -21.156  16.316   4.314  0.00  0.00    +0.000 OA
ATOM     32  H   UNL     1     -20.356  16.858   4.445  0.00  0.00    +0.000 HD
ENDBRANCH  30  31
BRANCH  30  33
ATOM     33  C   UNL     1     -22.130  18.484   3.698  0.00  0.00    +0.000 C 
BRANCH  33  34
ATOM     34  C   UNL     1     -21.699  19.390   2.553  0.00  0.00    +0.000 A 
ATOM     35  C   UNL     1     -20.493  20.105   2.655  0.00  0.00    +0.000 A 
ATOM     36  C   UNL     1     -22.487  19.564   1.404  0.00  0.00    +0.000 A 
ATOM     37  C   UNL     1     -20.078  20.953   1.628  0.00  0.00    +0.000 A 
ATOM     38  C   UNL     1     -22.069  20.412   0.378  0.00  0.00    +0.000 A 
ATOM     39  C   UNL     1     -20.865  21.104   0.488  0.00  0.00    +0.000 A 
ENDBRANCH  33  34
BRANCH  33  41
ATOM     40  O   UNL     1     -21.272  19.404   7.089  0.00  0.00    +0.000 OA
ATOM     41  N   UNL     1     -21.391  18.801   4.927  0.00  0.00    +0.000 N 
ATOM     42  C   UNL     1     -21.771  19.585   5.982  0.00  0.00    +0.000 C 
ATOM     43  H   UNL     1     -20.640  18.155   5.149  0.00  0.00    +0.000 HD
BRANCH  42  44
ATOM     44  C   UNL     1     -22.815  20.621   5.810  0.00  0.00    +0.000 A 
ATOM     45  C   UNL     1     -22.528  21.854   5.215  0.00  0.00    +0.000 A 
ATOM     46  C   UNL     1     -24.094  20.373   6.322  0.00  0.00    +0.000 A 
ATOM     47  C   UNL     1     -23.535  22.811   5.078  0.00  0.00    +0.000 A 
ATOM     48  C   UNL     1     -25.097  21.332   6.187  0.00  0.00    +0.000 A 
ATOM     49  C   UNL     1     -24.819  22.546   5.556  0.00  0.00    +0.000 A 
ENDBRANCH  42  44
ENDBRANCH  33  41
ENDBRANCH  30  33
ENDBRANCH  29  30
ENDBRANCH  27  29
ENDBRANCH  18  27
BRANCH  17  50
ATOM     50  O   UNL     1     -28.905  18.656   6.587  0.00  0.00    +0.000 OA
BRANCH  50  52
ATOM     51  O   UNL     1     -30.232  20.402   7.037  0.00  0.00    +0.000 OA
ATOM     52  C   UNL     1     -29.357  19.905   6.334  0.00  0.00    +0.000 C 
ATOM     53  C   UNL     1     -28.821  20.613   5.126  0.00  0.00    +0.000 C 
ENDBRANCH  50  52
ENDBRANCH  17  50
BRANCH   7  54
ATOM     54  O   UNL     1     -24.985  15.480   6.790  0.00  0.00    +0.000 OA
BRANCH  54  56
ATOM     55  O   UNL     1     -23.005  15.623   6.480  0.00  0.00    +0.000 OA
ATOM     56  C   UNL     1     -23.828  14.743   6.711  0.00  0.00    +0.000 C 
BRANCH  56  57
ATOM     57  C   UNL     1     -23.773  12.830   6.655  0.00  0.00    +0.000 A 
ATOM     58  C   UNL     1     -24.089  12.010   5.488  0.00  0.00    +0.000 A 
ATOM     59  C   UNL     1     -23.301  11.945   7.671  0.00  0.00    +0.000 A 
ATOM     60  C   UNL     1     -23.955  10.604   5.366  0.00  0.00    +0.000 A 
ATOM     61  C   UNL     1     -23.161  10.532   7.569  0.00  0.00    +0.000 A 
ATOM     62  C   UNL     1     -23.484   9.859   6.415  0.00  0.00    +0.000 A 
ENDBRANCH  56  57
ENDBRANCH  54  56
ENDBRANCH   7  54
BRANCH   4  63
ATOM     63  O   UNL     1     -22.942  15.530   9.270  0.00  0.00    +0.000 OA
BRANCH  63  65
ATOM     64  O   UNL     1     -21.229  14.094   9.300  0.00  0.00    +0.000 OA
ATOM     65  C   UNL     1     -21.688  15.183   9.639  0.00  0.00    +0.000 C 
ATOM     66  C   UNL     1     -20.918  16.078  10.557  0.00  0.00    +0.000 C 
ENDBRANCH  63  65
ENDBRANCH   4  63
TORSDOF 17
ENDMDL
MODEL 7
REMARK VINA RESULT:      -5.4     12.564     17.017
REMARK  Name = 
REMARK  23 active torsions:
REMARK  status: ('A' for Active; 'I' for Inactive)
REMARK    1  A    between atoms: O_2  and  C_17
REMARK    2  A    between atoms: O_2  and  C_36
REMARK    3  A    between atoms: O_3  and  C_20
REMARK    4  A    between atoms: O_3  and  C_37
REMARK    5  A    between atoms: O_4  and  C_21
REMARK    6  A    between atoms: O_5  and  C_22
REMARK    7  A    between atoms: O_6  and  C_30
REMARK    8  A    between atoms: O_6  and  C_39
REMARK    9  A    between atoms: O_8  and  C_31
REMARK   10  A    between atoms: O_8  and  C_40
REMARK   11  A    between atoms: O_13  and  C_42
REMARK   12  A    between atoms: N_15  and  C_46
REMARK   13  A    between atoms: C_18  and  C_29
REMARK   14  A    between atoms: C_24  and  C_33
REMARK   15  A    between atoms: C_24  and  C_34
REMARK   16  A    between atoms: C_32  and  C_35
REMARK   17  A    between atoms: C_36  and  C_38
REMARK   18  A    between atoms: C_37  and  C_41
REMARK   19  A    between atoms: C_39  and  C_43
REMARK   20  A    between atoms: C_40  and  C_42
REMARK   21  A    between atoms: C_42  and  C_46
REMARK   22  A    between atoms: C_46  and  C_50
REMARK   23  A    between atoms: C_53  and  C_56
REMARK                            x       y       z     vdW  Elec       q    Type
REMARK                         _______ _______ _______ _____ _____    ______ ____
ROOT
ATOM      1  O   UNL     1      -6.451  18.301  19.594  0.00  0.00    +0.000 OA
ATOM      2  O   UNL     1     -12.066  21.431  17.825  0.00  0.00    +0.000 OA
ATOM      3  C   UNL     1      -9.262  19.891  20.782  0.00  0.00    +0.000 C 
ATOM      4  C   UNL     1      -8.310  18.675  20.587  0.00  0.00    +0.000 C 
ATOM      5  C   UNL     1     -10.452  19.905  19.304  0.00  0.00    +0.000 C 
ATOM      6  C   UNL     1      -7.542  19.222  19.316  0.00  0.00    +0.000 C 
ATOM      7  C   UNL     1      -9.869  20.027  22.540  0.00  0.00    +0.000 C 
ATOM      8  C   UNL     1     -11.018  21.060  23.636  0.00  0.00    +0.000 C 
ATOM      9  C   UNL     1      -9.502  20.063  18.044  0.00  0.00    +0.000 C 
ATOM     10  C   UNL     1      -8.275  19.102  17.999  0.00  0.00    +0.000 C 
ATOM     11  C   UNL     1     -12.223  22.266  23.147  0.00  0.00    +0.000 C 
ATOM     12  C   UNL     1      -6.804  18.476  21.020  0.00  0.00    +0.000 C 
ATOM     13  C   UNL     1     -11.896  21.075  19.011  0.00  0.00    +0.000 C 
ATOM     14  C   UNL     1     -11.968  20.013  24.379  0.00  0.00    +0.000 C 
ATOM     15  C   UNL     1     -13.258  21.674  22.072  0.00  0.00    +0.000 C 
ATOM     16  C   UNL     1     -11.133  18.495  19.058  0.00  0.00    +0.000 C 
ATOM     17  C   UNL     1     -13.127  21.817  20.286  0.00  0.00    +0.000 C 
ATOM     18  C   UNL     1     -13.408  19.721  23.758  0.00  0.00    +0.000 C 
ATOM     19  C   UNL     1     -13.961  20.607  22.582  0.00  0.00    +0.000 C 
ATOM     20  C   UNL     1     -13.066  22.626  24.472  0.00  0.00    +0.000 C 
ATOM     21  C   UNL     1     -11.765  23.735  22.875  0.00  0.00    +0.000 C 
ATOM     22  C   UNL     1     -15.171  20.030  21.890  0.00  0.00    +0.000 C 
ENDROOT
BRANCH   9  23
ATOM     23  O   UNL     1      -8.989  21.394  18.012  0.00  0.00    +0.000 OA
ATOM     24  H   UNL     1      -8.466  21.468  17.188  0.00  0.00    +0.000 HD
ENDBRANCH   9  23
BRANCH   8  25
ATOM     25  O   UNL     1     -10.171  21.638  24.648  0.00  0.00    +0.000 OA
ATOM     26  H   UNL     1     -10.344  21.189  25.494  0.00  0.00    +0.000 HD
ENDBRANCH   8  25
BRANCH  18  27
ATOM     27  O   UNL     1     -13.421  18.345  23.279  0.00  0.00    +0.000 OA
BRANCH  27  29
ATOM     28  O   UNL     1     -15.138  17.580  24.539  0.00  0.00    +0.000 OA
ATOM     29  C   UNL     1     -14.012  17.421  24.080  0.00  0.00    +0.000 C 
BRANCH  29  30
ATOM     30  C   UNL     1     -13.102  16.258  24.485  0.00  0.00    +0.000 C 
BRANCH  30  31
ATOM     31  O   UNL     1     -13.719  14.965  24.476  0.00  0.00    +0.000 OA
ATOM     32  H   UNL     1     -13.596  14.601  25.373  0.00  0.00    +0.000 HD
ENDBRANCH  30  31
BRANCH  30  33
ATOM     33  C   UNL     1     -12.514  16.571  25.889  0.00  0.00    +0.000 C 
BRANCH  33  34
ATOM     34  C   UNL     1     -11.254  15.754  26.138  0.00  0.00    +0.000 A 
ATOM     35  C   UNL     1     -10.623  15.112  25.059  0.00  0.00    +0.000 A 
ATOM     36  C   UNL     1     -10.713  15.593  27.424  0.00  0.00    +0.000 A 
ATOM     37  C   UNL     1      -9.474  14.345  25.258  0.00  0.00    +0.000 A 
ATOM     38  C   UNL     1      -9.563  14.828  27.620  0.00  0.00    +0.000 A 
ATOM     39  C   UNL     1      -8.942  14.206  26.538  0.00  0.00    +0.000 A 
ENDBRANCH  33  34
BRANCH  33  41
ATOM     40  O   UNL     1     -15.269  16.922  28.206  0.00  0.00    +0.000 OA
ATOM     41  N   UNL     1     -13.517  16.322  26.932  0.00  0.00    +0.000 N 
ATOM     42  C   UNL     1     -14.182  17.221  27.721  0.00  0.00    +0.000 C 
ATOM     43  H   UNL     1     -13.971  15.415  26.876  0.00  0.00    +0.000 HD
BRANCH  42  44
ATOM     44  C   UNL     1     -13.622  18.572  27.955  0.00  0.00    +0.000 A 
ATOM     45  C   UNL     1     -12.423  18.753  28.652  0.00  0.00    +0.000 A 
ATOM     46  C   UNL     1     -14.355  19.684  27.526  0.00  0.00    +0.000 A 
ATOM     47  C   UNL     1     -11.930  20.042  28.863  0.00  0.00    +0.000 A 
ATOM     48  C   UNL     1     -13.862  20.970  27.740  0.00  0.00    +0.000 A 
ATOM     49  C   UNL     1     -12.645  21.147  28.401  0.00  0.00    +0.000 A 
ENDBRANCH  42  44
ENDBRANCH  33  41
ENDBRANCH  30  33
ENDBRANCH  29  30
ENDBRANCH  27  29
ENDBRANCH  18  27
BRANCH  17  50
ATOM     50  O   UNL     1     -13.407  23.212  20.037  0.00  0.00    +0.000 OA
BRANCH  50  52
ATOM     51  O   UNL     1     -15.535  23.009  19.373  0.00  0.00    +0.000 OA
ATOM     52  C   UNL     1     -14.480  23.634  19.330  0.00  0.00    +0.000 C 
ATOM     53  C   UNL     1     -14.305  24.825  18.435  0.00  0.00    +0.000 C 
ENDBRANCH  50  52
ENDBRANCH  17  50
BRANCH   7  54
ATOM     54  O   UNL     1     -10.920  19.349  22.132  0.00  0.00    +0.000 OA
BRANCH  54  56
ATOM     55  O   UNL     1     -11.139  17.352  22.173  0.00  0.00    +0.000 OA
ATOM     56  C   UNL     1     -10.424  18.199  22.699  0.00  0.00    +0.000 C 
BRANCH  56  57
ATOM     57  C   UNL     1      -9.185  18.166  24.157  0.00  0.00    +0.000 A 
ATOM     58  C   UNL     1      -9.475  18.600  25.521  0.00  0.00    +0.000 A 
ATOM     59  C   UNL     1      -7.871  17.606  24.168  0.00  0.00    +0.000 A 
ATOM     60  C   UNL     1      -8.631  18.491  26.654  0.00  0.00    +0.000 A 
ATOM     61  C   UNL     1      -7.008  17.489  25.294  0.00  0.00    +0.000 A 
ATOM     62  C   UNL     1      -7.386  17.928  26.540  0.00  0.00    +0.000 A 
ENDBRANCH  56  57
ENDBRANCH  54  56
ENDBRANCH   7  54
BRANCH   4  63
ATOM     63  O   UNL     1      -9.033  17.441  20.363  0.00  0.00    +0.000 OA
BRANCH  63  65
ATOM     64  O   UNL     1      -8.160  15.762  19.173  0.00  0.00    +0.000 OA
ATOM     65  C   UNL     1      -8.459  16.221  20.274  0.00  0.00    +0.000 C 
ATOM     66  C   UNL     1      -8.301  15.391  21.508  0.00  0.00    +0.000 C 
ENDBRANCH  63  65
ENDBRANCH   4  63
TORSDOF 17
ENDMDL
MODEL 8
REMARK VINA RESULT:      -5.3     20.108     24.241
REMARK  Name = 
REMARK  23 active torsions:
REMARK  status: ('A' for Active; 'I' for Inactive)
REMARK    1  A    between atoms: O_2  and  C_17
REMARK    2  A    between atoms: O_2  and  C_36
REMARK    3  A    between atoms: O_3  and  C_20
REMARK    4  A    between atoms: O_3  and  C_37
REMARK    5  A    between atoms: O_4  and  C_21
REMARK    6  A    between atoms: O_5  and  C_22
REMARK    7  A    between atoms: O_6  and  C_30
REMARK    8  A    between atoms: O_6  and  C_39
REMARK    9  A    between atoms: O_8  and  C_31
REMARK   10  A    between atoms: O_8  and  C_40
REMARK   11  A    between atoms: O_13  and  C_42
REMARK   12  A    between atoms: N_15  and  C_46
REMARK   13  A    between atoms: C_18  and  C_29
REMARK   14  A    between atoms: C_24  and  C_33
REMARK   15  A    between atoms: C_24  and  C_34
REMARK   16  A    between atoms: C_32  and  C_35
REMARK   17  A    between atoms: C_36  and  C_38
REMARK   18  A    between atoms: C_37  and  C_41
REMARK   19  A    between atoms: C_39  and  C_43
REMARK   20  A    between atoms: C_40  and  C_42
REMARK   21  A    between atoms: C_42  and  C_46
REMARK   22  A    between atoms: C_46  and  C_50
REMARK   23  A    between atoms: C_53  and  C_56
REMARK                            x       y       z     vdW  Elec       q    Type
REMARK                         _______ _______ _______ _____ _____    ______ ____
ROOT
ATOM      1  O   UNL     1     -22.171  12.891   9.063  0.00  0.00    +0.000 OA
ATOM      2  O   UNL     1     -24.714  16.224   3.878  0.00  0.00    +0.000 OA
ATOM      3  C   UNL     1     -22.535  16.004   7.644  0.00  0.00    +0.000 C 
ATOM      4  C   UNL     1     -22.739  14.931   8.753  0.00  0.00    +0.000 C 
ATOM      5  C   UNL     1     -23.949  15.789   6.398  0.00  0.00    +0.000 C 
ATOM      6  C   UNL     1     -22.445  13.659   7.859  0.00  0.00    +0.000 C 
ATOM      7  C   UNL     1     -22.092  17.669   8.358  0.00  0.00    +0.000 C 
ATOM      8  C   UNL     1     -21.742  19.458   7.842  0.00  0.00    +0.000 C 
ATOM      9  C   UNL     1     -23.770  14.308   5.861  0.00  0.00    +0.000 C 
ATOM     10  C   UNL     1     -23.570  13.214   6.953  0.00  0.00    +0.000 C 
ATOM     11  C   UNL     1     -22.006  20.226   6.265  0.00  0.00    +0.000 C 
ATOM     12  C   UNL     1     -21.681  14.162   9.639  0.00  0.00    +0.000 C 
ATOM     13  C   UNL     1     -24.308  16.846   4.883  0.00  0.00    +0.000 C 
ATOM     14  C   UNL     1     -22.692  20.367   8.749  0.00  0.00    +0.000 C 
ATOM     15  C   UNL     1     -23.517  20.040   5.756  0.00  0.00    +0.000 C 
ATOM     16  C   UNL     1     -25.373  15.742   7.095  0.00  0.00    +0.000 C 
ATOM     17  C   UNL     1     -24.114  18.745   4.662  0.00  0.00    +0.000 C 
ATOM     18  C   UNL     1     -24.090  20.843   8.145  0.00  0.00    +0.000 C 
ATOM     19  C   UNL     1     -24.417  20.614   6.624  0.00  0.00    +0.000 C 
ATOM     20  C   UNL     1     -21.769  21.804   6.485  0.00  0.00    +0.000 C 
ATOM     21  C   UNL     1     -20.918  20.079   5.153  0.00  0.00    +0.000 C 
ATOM     22  C   UNL     1     -25.869  20.816   6.267  0.00  0.00    +0.000 C 
ENDROOT
BRANCH   9  23
ATOM     23  O   UNL     1     -22.626  14.257   5.008  0.00  0.00    +0.000 OA
ATOM     24  H   UNL     1     -22.931  13.876   4.160  0.00  0.00    +0.000 HD
ENDBRANCH   9  23
BRANCH   8  25
ATOM     25  O   UNL     1     -20.391  19.725   8.265  0.00  0.00    +0.000 OA
ATOM     26  H   UNL     1     -19.866  19.987   7.488  0.00  0.00    +0.000 HD
ENDBRANCH   8  25
BRANCH  18  27
ATOM     27  O   UNL     1     -25.152  20.188   8.898  0.00  0.00    +0.000 OA
BRANCH  27  29
ATOM     28  O   UNL     1     -26.071  22.154   9.539  0.00  0.00    +0.000 OA
ATOM     29  C   UNL     1     -25.866  20.964   9.753  0.00  0.00    +0.000 C 
BRANCH  29  30
ATOM     30  C   UNL     1     -26.249  20.275  11.067  0.00  0.00    +0.000 C 
BRANCH  30  31
ATOM     31  O   UNL     1     -27.579  20.534  11.530  0.00  0.00    +0.000 OA
ATOM     32  H   UNL     1     -27.978  19.662  11.708  0.00  0.00    +0.000 HD
ENDBRANCH  30  31
BRANCH  30  33
ATOM     33  C   UNL     1     -25.207  20.681  12.146  0.00  0.00    +0.000 C 
BRANCH  33  34
ATOM     34  C   UNL     1     -25.244  19.712  13.319  0.00  0.00    +0.000 A 
ATOM     35  C   UNL     1     -24.971  20.185  14.615  0.00  0.00    +0.000 A 
ATOM     36  C   UNL     1     -25.513  18.344  13.148  0.00  0.00    +0.000 A 
ATOM     37  C   UNL     1     -24.985  19.318  15.708  0.00  0.00    +0.000 A 
ATOM     38  C   UNL     1     -25.528  17.480  14.243  0.00  0.00    +0.000 A 
ATOM     39  C   UNL     1     -25.266  17.966  15.523  0.00  0.00    +0.000 A 
ENDBRANCH  33  34
BRANCH  33  41
ATOM     40  O   UNL     1     -25.034  24.268  12.567  0.00  0.00    +0.000 OA
ATOM     41  N   UNL     1     -25.444  22.059  12.594  0.00  0.00    +0.000 N 
ATOM     42  C   UNL     1     -24.587  23.125  12.589  0.00  0.00    +0.000 C 
ATOM     43  H   UNL     1     -26.423  22.323  12.656  0.00  0.00    +0.000 HD
BRANCH  42  44
ATOM     44  C   UNL     1     -23.122  22.911  12.563  0.00  0.00    +0.000 A 
ATOM     45  C   UNL     1     -22.421  22.816  11.357  0.00  0.00    +0.000 A 
ATOM     46  C   UNL     1     -22.451  22.732  13.778  0.00  0.00    +0.000 A 
ATOM     47  C   UNL     1     -21.041  22.603  11.371  0.00  0.00    +0.000 A 
ATOM     48  C   UNL     1     -21.073  22.517  13.789  0.00  0.00    +0.000 A 
ATOM     49  C   UNL     1     -20.369  22.462  12.586  0.00  0.00    +0.000 A 
ENDBRANCH  42  44
ENDBRANCH  33  41
ENDBRANCH  30  33
ENDBRANCH  29  30
ENDBRANCH  27  29
ENDBRANCH  18  27
BRANCH  17  50
ATOM     50  O   UNL     1     -23.549  19.097   3.381  0.00  0.00    +0.000 OA
BRANCH  50  52
ATOM     51  O   UNL     1     -23.753  19.921   1.310  0.00  0.00    +0.000 OA
ATOM     52  C   UNL     1     -24.295  19.520   2.336  0.00  0.00    +0.000 C 
ATOM     53  C   UNL     1     -25.784  19.563   2.510  0.00  0.00    +0.000 C 
ENDBRANCH  50  52
ENDBRANCH  17  50
BRANCH   7  54
ATOM     54  O   UNL     1     -23.380  17.936   8.292  0.00  0.00    +0.000 OA
BRANCH  54  56
ATOM     55  O   UNL     1     -24.736  17.642   9.745  0.00  0.00    +0.000 OA
ATOM     56  C   UNL     1     -23.516  17.713   9.642  0.00  0.00    +0.000 C 
BRANCH  56  57
ATOM     57  C   UNL     1     -22.086  17.857  10.906  0.00  0.00    +0.000 A 
ATOM     58  C   UNL     1     -21.963  18.895  11.927  0.00  0.00    +0.000 A 
ATOM     59  C   UNL     1     -21.025  16.928  11.127  0.00  0.00    +0.000 A 
ATOM     60  C   UNL     1     -20.988  18.979  12.952  0.00  0.00    +0.000 A 
ATOM     61  C   UNL     1     -20.035  16.996  12.148  0.00  0.00    +0.000 A 
ATOM     62  C   UNL     1     -20.016  18.019  13.065  0.00  0.00    +0.000 A 
ENDBRANCH  56  57
ENDBRANCH  54  56
ENDBRANCH   7  54
BRANCH   4  63
ATOM     63  O   UNL     1     -24.072  14.970   9.316  0.00  0.00    +0.000 OA
BRANCH  63  65
ATOM     64  O   UNL     1     -24.106  14.685  11.534  0.00  0.00    +0.000 OA
ATOM     65  C   UNL     1     -24.457  14.293  10.422  0.00  0.00    +0.000 C 
ATOM     66  C   UNL     1     -25.207  13.008  10.273  0.00  0.00    +0.000 C 
ENDBRANCH  63  65
ENDBRANCH   4  63
TORSDOF 17
ENDMDL
MODEL 9
REMARK VINA RESULT:      -5.3     13.817     18.325
REMARK  Name = 
REMARK  23 active torsions:
REMARK  status: ('A' for Active; 'I' for Inactive)
REMARK    1  A    between atoms: O_2  and  C_17
REMARK    2  A    between atoms: O_2  and  C_36
REMARK    3  A    between atoms: O_3  and  C_20
REMARK    4  A    between atoms: O_3  and  C_37
REMARK    5  A    between atoms: O_4  and  C_21
REMARK    6  A    between atoms: O_5  and  C_22
REMARK    7  A    between atoms: O_6  and  C_30
REMARK    8  A    between atoms: O_6  and  C_39
REMARK    9  A    between atoms: O_8  and  C_31
REMARK   10  A    between atoms: O_8  and  C_40
REMARK   11  A    between atoms: O_13  and  C_42
REMARK   12  A    between atoms: N_15  and  C_46
REMARK   13  A    between atoms: C_18  and  C_29
REMARK   14  A    between atoms: C_24  and  C_33
REMARK   15  A    between atoms: C_24  and  C_34
REMARK   16  A    between atoms: C_32  and  C_35
REMARK   17  A    between atoms: C_36  and  C_38
REMARK   18  A    between atoms: C_37  and  C_41
REMARK   19  A    between atoms: C_39  and  C_43
REMARK   20  A    between atoms: C_40  and  C_42
REMARK   21  A    between atoms: C_42  and  C_46
REMARK   22  A    between atoms: C_46  and  C_50
REMARK   23  A    between atoms: C_53  and  C_56
REMARK                            x       y       z     vdW  Elec       q    Type
REMARK                         _______ _______ _______ _____ _____    ______ ____
ROOT
ATOM      1  O   UNL     1      -7.018  17.930  17.113  0.00  0.00    +0.000 OA
ATOM      2  O   UNL     1     -11.228  23.036  16.304  0.00  0.00    +0.000 OA
ATOM      3  C   UNL     1      -8.211  20.826  18.538  0.00  0.00    +0.000 C 
ATOM      4  C   UNL     1      -7.968  19.290  18.466  0.00  0.00    +0.000 C 
ATOM      5  C   UNL     1      -9.826  21.176  17.606  0.00  0.00    +0.000 C 
ATOM      6  C   UNL     1      -7.691  19.203  16.909  0.00  0.00    +0.000 C 
ATOM      7  C   UNL     1      -7.889  21.503  20.245  0.00  0.00    +0.000 C 
ATOM      8  C   UNL     1      -7.968  23.113  21.240  0.00  0.00    +0.000 C 
ATOM      9  C   UNL     1      -9.541  20.667  16.131  0.00  0.00    +0.000 C 
ATOM     10  C   UNL     1      -8.912  19.245  16.018  0.00  0.00    +0.000 C 
ATOM     11  C   UNL     1      -8.720  24.655  20.792  0.00  0.00    +0.000 C 
ATOM     12  C   UNL     1      -6.619  18.469  18.432  0.00  0.00    +0.000 C 
ATOM     13  C   UNL     1     -10.702  22.830  17.419  0.00  0.00    +0.000 C 
ATOM     14  C   UNL     1      -8.810  22.772  22.554  0.00  0.00    +0.000 C 
ATOM     15  C   UNL     1     -10.258  24.468  20.370  0.00  0.00    +0.000 C 
ATOM     16  C   UNL     1     -11.016  20.240  18.078  0.00  0.00    +0.000 C 
ATOM     17  C   UNL     1     -10.878  24.254  18.697  0.00  0.00    +0.000 C 
ATOM     18  C   UNL     1     -10.369  23.108  22.564  0.00  0.00    +0.000 C 
ATOM     19  C   UNL     1     -11.007  23.956  21.404  0.00  0.00    +0.000 C 
ATOM     20  C   UNL     1      -8.698  25.572  22.116  0.00  0.00    +0.000 C 
ATOM     21  C   UNL     1      -7.918  25.668  19.913  0.00  0.00    +0.000 C 
ATOM     22  C   UNL     1     -12.515  23.925  21.373  0.00  0.00    +0.000 C 
ENDROOT
BRANCH   9  23
ATOM     23  O   UNL     1      -8.640  21.571  15.493  0.00  0.00    +0.000 OA
ATOM     24  H   UNL     1      -8.443  22.271  16.148  0.00  0.00    +0.000 HD
ENDBRANCH   9  23
BRANCH   8  25
ATOM     25  O   UNL     1      -6.617  23.367  21.672  0.00  0.00    +0.000 OA
ATOM     26  H   UNL     1      -6.627  23.576  22.623  0.00  0.00    +0.000 HD
ENDBRANCH   8  25
BRANCH  18  27
ATOM     27  O   UNL     1     -11.100  21.848  22.603  0.00  0.00    +0.000 OA
BRANCH  27  29
ATOM     28  O   UNL     1     -11.103  21.036  24.716  0.00  0.00    +0.000 OA
ATOM     29  C   UNL     1     -11.713  21.529  23.773  0.00  0.00    +0.000 C 
BRANCH  29  30
ATOM     30  C   UNL     1     -13.237  21.684  23.754  0.00  0.00    +0.000 C 
BRANCH  30  31
ATOM     31  O   UNL     1     -13.750  22.778  24.523  0.00  0.00    +0.000 OA
ATOM     32  H   UNL     1     -13.151  22.876  25.287  0.00  0.00    +0.000 HD
ENDBRANCH  30  31
BRANCH  30  33
ATOM     33  C   UNL     1     -13.864  20.344  24.227  0.00  0.00    +0.000 C 
BRANCH  33  34
ATOM     34  C   UNL     1     -14.952  19.891  23.263  0.00  0.00    +0.000 A 
ATOM     35  C   UNL     1     -15.977  19.047  23.726  0.00  0.00    +0.000 A 
ATOM     36  C   UNL     1     -14.951  20.264  21.910  0.00  0.00    +0.000 A 
ATOM     37  C   UNL     1     -16.981  18.604  22.863  0.00  0.00    +0.000 A 
ATOM     38  C   UNL     1     -15.957  19.823  21.050  0.00  0.00    +0.000 A 
ATOM     39  C   UNL     1     -16.972  18.995  21.526  0.00  0.00    +0.000 A 
ENDBRANCH  33  34
BRANCH  33  41
ATOM     40  O   UNL     1     -14.215  20.327  27.826  0.00  0.00    +0.000 OA
ATOM     41  N   UNL     1     -14.392  20.477  25.591  0.00  0.00    +0.000 N 
ATOM     42  C   UNL     1     -14.016  19.816  26.728  0.00  0.00    +0.000 C 
ATOM     43  H   UNL     1     -14.893  21.343  25.769  0.00  0.00    +0.000 HD
BRANCH  42  44
ATOM     44  C   UNL     1     -13.328  18.508  26.643  0.00  0.00    +0.000 A 
ATOM     45  C   UNL     1     -14.015  17.345  26.280  0.00  0.00    +0.000 A 
ATOM     46  C   UNL     1     -11.978  18.438  27.007  0.00  0.00    +0.000 A 
ATOM     47  C   UNL     1     -13.335  16.127  26.220  0.00  0.00    +0.000 A 
ATOM     48  C   UNL     1     -11.303  17.219  26.949  0.00  0.00    +0.000 A 
ATOM     49  C   UNL     1     -11.980  16.067  26.547  0.00  0.00    +0.000 A 
ENDBRANCH  42  44
ENDBRANCH  33  41
ENDBRANCH  30  33
ENDBRANCH  29  30
ENDBRANCH  27  29
ENDBRANCH  18  27
BRANCH  17  50
ATOM     50  O   UNL     1     -10.699  25.557  18.101  0.00  0.00    +0.000 OA
BRANCH  50  52
ATOM     51  O   UNL     1     -11.826  27.346  18.835  0.00  0.00    +0.000 OA
ATOM     52  C   UNL     1     -11.697  26.463  17.992  0.00  0.00    +0.000 C 
ATOM     53  C   UNL     1     -12.677  26.296  16.870  0.00  0.00    +0.000 C 
ENDBRANCH  50  52
ENDBRANCH  17  50
BRANCH   7  54
ATOM     54  O   UNL     1      -9.181  21.352  20.448  0.00  0.00    +0.000 OA
BRANCH  54  56
ATOM     55  O   UNL     1      -7.719  20.312  21.352  0.00  0.00    +0.000 OA
ATOM     56  C   UNL     1      -8.945  20.303  21.305  0.00  0.00    +0.000 C 
BRANCH  56  57
ATOM     57  C   UNL     1     -10.285  19.066  21.885  0.00  0.00    +0.000 A 
ATOM     58  C   UNL     1     -11.548  18.806  21.197  0.00  0.00    +0.000 A 
ATOM     59  C   UNL     1     -10.201  18.139  22.968  0.00  0.00    +0.000 A 
ATOM     60  C   UNL     1     -12.516  17.823  21.524  0.00  0.00    +0.000 A 
ATOM     61  C   UNL     1     -11.162  17.148  23.313  0.00  0.00    +0.000 A 
ATOM     62  C   UNL     1     -12.320  16.985  22.591  0.00  0.00    +0.000 A 
ENDBRANCH  56  57
ENDBRANCH  54  56
ENDBRANCH   7  54
BRANCH   4  63
ATOM     63  O   UNL     1      -9.117  18.530  18.911  0.00  0.00    +0.000 OA
BRANCH  63  65
ATOM     64  O   UNL     1      -9.768  16.549  18.106  0.00  0.00    +0.000 OA
ATOM     65  C   UNL     1      -9.167  17.180  18.973  0.00  0.00    +0.000 C 
ATOM     66  C   UNL     1      -8.589  16.478  20.160  0.00  0.00    +0.000 C 
ENDBRANCH  63  65
ENDBRANCH   4  63
TORSDOF 17
ENDMDL
