MODEL 1
REMARK VINA RESULT:      -6.5      0.000      0.000
REMARK  Name = 
REMARK  5 active torsions:
REMARK  status: ('A' for Active; 'I' for Inactive)
REMARK    1  A    between atoms: O_1  and  C_16
REMARK    2  A    between atoms: O_3  and  C_25
REMARK    3  A    between atoms: C_11  and  C_22
REMARK    4  A    between atoms: C_16  and  C_28
REMARK    5  A    between atoms: C_29  and  C_31
REMARK                            x       y       z     vdW  Elec       q    Type
REMARK                         _______ _______ _______ _____ _____    ______ ____
ROOT
ATOM      1  O   UNL     1     -14.032  13.337  -9.431  0.00  0.00    +0.000 OA
ATOM      2  N   UNL     1     -16.383   9.781  -0.947  0.00  0.00    +0.000 NA
ATOM      3  C   UNL     1     -14.339  11.105  -3.930  0.00  0.00    +0.000 C 
ATOM      4  C   UNL     1     -14.023  10.605  -5.364  0.00  0.00    +0.000 C 
ATOM      5  C   UNL     1     -14.098  13.008  -5.365  0.00  0.00    +0.000 C 
ATOM      6  C   UNL     1     -14.350  11.799  -6.276  0.00  0.00    +0.000 C 
ATOM      7  C   UNL     1     -15.325  10.201  -3.165  0.00  0.00    +0.000 C 
ATOM      8  C   UNL     1     -14.803  12.568  -4.086  0.00  0.00    +0.000 C 
ATOM      9  C   UNL     1     -14.498  14.349  -6.036  0.00  0.00    +0.000 C 
ATOM     10  C   UNL     1     -14.829   8.740  -3.226  0.00  0.00    +0.000 C 
ATOM     11  C   UNL     1     -14.801   9.350  -5.748  0.00  0.00    +0.000 C 
ATOM     12  C   UNL     1     -13.628  14.465  -7.324  0.00  0.00    +0.000 C 
ATOM     13  C   UNL     1     -14.701   8.251  -4.692  0.00  0.00    +0.000 C 
ATOM     14  C   UNL     1     -15.707   7.810  -2.340  0.00  0.00    +0.000 C 
ATOM     15  C   UNL     1     -13.558  11.890  -7.572  0.00  0.00    +0.000 C 
ATOM     16  C   UNL     1     -15.484  10.663  -1.711  0.00  0.00    +0.000 C 
ATOM     17  C   UNL     1     -15.838   8.396  -0.884  0.00  0.00    +0.000 C 
ATOM     18  C   UNL     1     -14.141  15.537  -5.107  0.00  0.00    +0.000 C 
ATOM     19  C   UNL     1     -13.809  13.242  -8.226  0.00  0.00    +0.000 C 
ATOM     20  C   UNL     1     -16.012  14.405  -6.360  0.00  0.00    +0.000 C 
ATOM     21  C   UNL     1     -13.827  15.796  -8.049  0.00  0.00    +0.000 C 
ATOM     22  C   UNL     1     -14.268  16.899  -5.797  0.00  0.00    +0.000 C 
ATOM     23  C   UNL     1     -13.504  16.967  -7.119  0.00  0.00    +0.000 C 
ATOM     24  C   UNL     1     -16.745   7.502  -0.000  0.00  0.00    +0.000 C 
ATOM     25  C   UNL     1     -16.565  10.356   0.401  0.00  0.00    +0.000 C 
ATOM     26  C   UNL     1     -15.141   6.382  -2.319  0.00  0.00    +0.000 C 
ATOM     27  C   UNL     1     -17.525   9.539   1.272  0.00  0.00    +0.000 C 
ATOM     28  C   UNL     1     -17.016   8.103   1.374  0.00  0.00    +0.000 C 
ATOM     29  C   UNL     1     -18.963   9.605   0.751  0.00  0.00    +0.000 C 
ENDROOT
BRANCH  14  30
ATOM     30  O   UNL     1     -17.019   7.745  -2.925  0.00  0.00    +0.000 OA
ATOM     31  H   UNL     1     -17.572   7.290  -2.258  0.00  0.00    +0.000 HD
ENDBRANCH  14  30
BRANCH  23  32
ATOM     32  O   UNL     1     -13.827  18.196  -7.761  0.00  0.00    +0.000 OA
ATOM     33  H   UNL     1     -13.569  18.120  -8.696  0.00  0.00    +0.000 HD
ENDBRANCH  23  32
TORSDOF 2
ENDMDL
MODEL 2
REMARK VINA RESULT:      -6.1     22.433     25.033
REMARK  Name = 
REMARK  5 active torsions:
REMARK  status: ('A' for Active; 'I' for Inactive)
REMARK    1  A    between atoms: O_1  and  C_16
REMARK    2  A    between atoms: O_3  and  C_25
REMARK    3  A    between atoms: C_11  and  C_22
REMARK    4  A    between atoms: C_16  and  C_28
REMARK    5  A    between atoms: C_29  and  C_31
REMARK                            x       y       z     vdW  Elec       q    Type
REMARK                         _______ _______ _______ _____ _____    ______ ____
ROOT
ATOM      1  O   UNL     1      -2.878  -2.843  16.051  0.00  0.00    +0.000 OA
ATOM      2  N   UNL     1      -7.731   5.314  16.293  0.00  0.00    +0.000 NA
ATOM      3  C   UNL     1      -5.446   2.439  15.134  0.00  0.00    +0.000 C 
ATOM      4  C   UNL     1      -4.061   1.886  15.561  0.00  0.00    +0.000 C 
ATOM      5  C   UNL     1      -5.422   0.073  14.759  0.00  0.00    +0.000 C 
ATOM      6  C   UNL     1      -4.281   0.375  15.739  0.00  0.00    +0.000 C 
ATOM      7  C   UNL     1      -5.956   3.583  16.032  0.00  0.00    +0.000 C 
ATOM      8  C   UNL     1      -6.385   1.216  15.062  0.00  0.00    +0.000 C 
ATOM      9  C   UNL     1      -5.920  -1.394  14.862  0.00  0.00    +0.000 C 
ATOM     10  C   UNL     1      -4.858   4.662  16.154  0.00  0.00    +0.000 C 
ATOM     11  C   UNL     1      -3.511   2.547  16.820  0.00  0.00    +0.000 C 
ATOM     12  C   UNL     1      -4.688  -2.292  14.536  0.00  0.00    +0.000 C 
ATOM     13  C   UNL     1      -3.554   4.072  16.748  0.00  0.00    +0.000 C 
ATOM     14  C   UNL     1      -5.380   5.910  16.925  0.00  0.00    +0.000 C 
ATOM     15  C   UNL     1      -3.071  -0.514  15.494  0.00  0.00    +0.000 C 
ATOM     16  C   UNL     1      -7.254   4.183  15.478  0.00  0.00    +0.000 C 
ATOM     17  C   UNL     1      -6.733   6.420  16.301  0.00  0.00    +0.000 C 
ATOM     18  C   UNL     1      -7.007  -1.664  13.791  0.00  0.00    +0.000 C 
ATOM     19  C   UNL     1      -3.510  -1.971  15.458  0.00  0.00    +0.000 C 
ATOM     20  C   UNL     1      -6.505  -1.708  16.261  0.00  0.00    +0.000 C 
ATOM     21  C   UNL     1      -5.043  -3.778  14.490  0.00  0.00    +0.000 C 
ATOM     22  C   UNL     1      -7.365  -3.147  13.659  0.00  0.00    +0.000 C 
ATOM     23  C   UNL     1      -6.139  -4.037  13.455  0.00  0.00    +0.000 C 
ATOM     24  C   UNL     1      -7.286   7.638  17.084  0.00  0.00    +0.000 C 
ATOM     25  C   UNL     1      -9.033   5.760  15.756  0.00  0.00    +0.000 C 
ATOM     26  C   UNL     1      -4.319   7.021  16.945  0.00  0.00    +0.000 C 
ATOM     27  C   UNL     1      -9.647   6.908  16.562  0.00  0.00    +0.000 C 
ATOM     28  C   UNL     1      -8.665   8.077  16.605  0.00  0.00    +0.000 C 
ATOM     29  C   UNL     1     -10.070   6.460  17.964  0.00  0.00    +0.000 C 
ENDROOT
BRANCH  14  30
ATOM     30  O   UNL     1      -5.624   5.522  18.287  0.00  0.00    +0.000 OA
ATOM     31  H   UNL     1      -5.160   4.668  18.395  0.00  0.00    +0.000 HD
ENDBRANCH  14  30
BRANCH  23  32
ATOM     32  O   UNL     1      -6.555  -5.396  13.521  0.00  0.00    +0.000 OA
ATOM     33  H   UNL     1      -5.879  -5.890  14.016  0.00  0.00    +0.000 HD
ENDBRANCH  23  32
TORSDOF 2
ENDMDL
MODEL 3
REMARK VINA RESULT:      -6.1     14.239     16.481
REMARK  Name = 
REMARK  5 active torsions:
REMARK  status: ('A' for Active; 'I' for Inactive)
REMARK    1  A    between atoms: O_1  and  C_16
REMARK    2  A    between atoms: O_3  and  C_25
REMARK    3  A    between atoms: C_11  and  C_22
REMARK    4  A    between atoms: C_16  and  C_28
REMARK    5  A    between atoms: C_29  and  C_31
REMARK                            x       y       z     vdW  Elec       q    Type
REMARK                         _______ _______ _______ _____ _____    ______ ____
ROOT
ATOM      1  O   UNL     1       1.230   5.526  -0.297  0.00  0.00    +0.000 OA
ATOM      2  N   UNL     1      -6.567   0.948   2.604  0.00  0.00    +0.000 NA
ATOM      3  C   UNL     1      -2.890   1.829   1.872  0.00  0.00    +0.000 C 
ATOM      4  C   UNL     1      -2.018   1.968   0.596  0.00  0.00    +0.000 C 
ATOM      5  C   UNL     1      -1.233   3.516   2.260  0.00  0.00    +0.000 C 
ATOM      6  C   UNL     1      -1.329   3.335   0.740  0.00  0.00    +0.000 C 
ATOM      7  C   UNL     1      -4.375   1.545   1.575  0.00  0.00    +0.000 C 
ATOM      8  C   UNL     1      -2.637   3.109   2.697  0.00  0.00    +0.000 C 
ATOM      9  C   UNL     1      -0.684   4.913   2.657  0.00  0.00    +0.000 C 
ATOM     10  C   UNL     1      -4.481   0.345   0.608  0.00  0.00    +0.000 C 
ATOM     11  C   UNL     1      -2.821   1.854  -0.696  0.00  0.00    +0.000 C 
ATOM     12  C   UNL     1       0.735   5.016   2.020  0.00  0.00    +0.000 C 
ATOM     13  C   UNL     1      -3.727   0.624  -0.717  0.00  0.00    +0.000 C 
ATOM     14  C   UNL     1      -5.963  -0.079   0.399  0.00  0.00    +0.000 C 
ATOM     15  C   UNL     1       0.027   3.478   0.064  0.00  0.00    +0.000 C 
ATOM     16  C   UNL     1      -5.155   1.275   2.868  0.00  0.00    +0.000 C 
ATOM     17  C   UNL     1      -6.679  -0.291   1.785  0.00  0.00    +0.000 C 
ATOM     18  C   UNL     1      -0.527   5.006   4.196  0.00  0.00    +0.000 C 
ATOM     19  C   UNL     1       0.682   4.778   0.510  0.00  0.00    +0.000 C 
ATOM     20  C   UNL     1      -1.613   6.057   2.179  0.00  0.00    +0.000 C 
ATOM     21  C   UNL     1       1.460   6.303   2.412  0.00  0.00    +0.000 C 
ATOM     22  C   UNL     1       0.243   6.250   4.648  0.00  0.00    +0.000 C 
ATOM     23  C   UNL     1       1.585   6.407   3.933  0.00  0.00    +0.000 C 
ATOM     24  C   UNL     1      -8.169  -0.675   1.593  0.00  0.00    +0.000 C 
ATOM     25  C   UNL     1      -7.264   0.811   3.898  0.00  0.00    +0.000 C 
ATOM     26  C   UNL     1      -6.051  -1.340  -0.475  0.00  0.00    +0.000 C 
ATOM     27  C   UNL     1      -8.759   0.515   3.741  0.00  0.00    +0.000 C 
ATOM     28  C   UNL     1      -8.938  -0.751   2.906  0.00  0.00    +0.000 C 
ATOM     29  C   UNL     1      -9.516   1.707   3.148  0.00  0.00    +0.000 C 
ENDROOT
BRANCH  14  30
ATOM     30  O   UNL     1      -6.635   0.980  -0.304  0.00  0.00    +0.000 OA
ATOM     31  H   UNL     1      -6.644   0.697  -1.241  0.00  0.00    +0.000 HD
ENDBRANCH  14  30
BRANCH  23  32
ATOM     32  O   UNL     1       2.137   7.671   4.287  0.00  0.00    +0.000 OA
ATOM     33  H   UNL     1       1.486   8.134   4.843  0.00  0.00    +0.000 HD
ENDBRANCH  23  32
TORSDOF 2
ENDMDL
MODEL 4
REMARK VINA RESULT:      -6.0     22.288     24.341
REMARK  Name = 
REMARK  5 active torsions:
REMARK  status: ('A' for Active; 'I' for Inactive)
REMARK    1  A    between atoms: O_1  and  C_16
REMARK    2  A    between atoms: O_3  and  C_25
REMARK    3  A    between atoms: C_11  and  C_22
REMARK    4  A    between atoms: C_16  and  C_28
REMARK    5  A    between atoms: C_29  and  C_31
REMARK                            x       y       z     vdW  Elec       q    Type
REMARK                         _______ _______ _______ _____ _____    ______ ____
ROOT
ATOM      1  O   UNL     1      -5.987   4.323  18.648  0.00  0.00    +0.000 OA
ATOM      2  N   UNL     1      -6.536  13.594  16.674  0.00  0.00    +0.000 NA
ATOM      3  C   UNL     1      -6.227   9.775  16.290  0.00  0.00    +0.000 C 
ATOM      4  C   UNL     1      -5.151   8.712  16.637  0.00  0.00    +0.000 C 
ATOM      5  C   UNL     1      -7.333   7.721  16.836  0.00  0.00    +0.000 C 
ATOM      6  C   UNL     1      -5.913   7.621  17.408  0.00  0.00    +0.000 C 
ATOM      7  C   UNL     1      -5.865  11.195  16.768  0.00  0.00    +0.000 C 
ATOM      8  C   UNL     1      -7.555   9.230  16.854  0.00  0.00    +0.000 C 
ATOM      9  C   UNL     1      -8.335   6.791  17.571  0.00  0.00    +0.000 C 
ATOM     10  C   UNL     1      -4.446  11.552  16.275  0.00  0.00    +0.000 C 
ATOM     11  C   UNL     1      -3.980   9.278  17.433  0.00  0.00    +0.000 C 
ATOM     12  C   UNL     1      -7.791   5.341  17.391  0.00  0.00    +0.000 C 
ATOM     13  C   UNL     1      -3.396  10.540  16.802  0.00  0.00    +0.000 C 
ATOM     14  C   UNL     1      -4.094  13.033  16.600  0.00  0.00    +0.000 C 
ATOM     15  C   UNL     1      -5.355   6.210  17.300  0.00  0.00    +0.000 C 
ATOM     16  C   UNL     1      -6.891  12.222  16.273  0.00  0.00    +0.000 C 
ATOM     17  C   UNL     1      -5.228  13.997  16.085  0.00  0.00    +0.000 C 
ATOM     18  C   UNL     1      -9.728   6.869  16.895  0.00  0.00    +0.000 C 
ATOM     19  C   UNL     1      -6.351   5.224  17.895  0.00  0.00    +0.000 C 
ATOM     20  C   UNL     1      -8.482   7.167  19.066  0.00  0.00    +0.000 C 
ATOM     21  C   UNL     1      -8.732   4.286  17.972  0.00  0.00    +0.000 C 
ATOM     22  C   UNL     1     -10.700   5.797  17.398  0.00  0.00    +0.000 C 
ATOM     23  C   UNL     1     -10.115   4.386  17.326  0.00  0.00    +0.000 C 
ATOM     24  C   UNL     1      -4.911  15.473  16.439  0.00  0.00    +0.000 C 
ATOM     25  C   UNL     1      -7.624  14.500  16.253  0.00  0.00    +0.000 C 
ATOM     26  C   UNL     1      -2.728  13.411  16.009  0.00  0.00    +0.000 C 
ATOM     27  C   UNL     1      -7.380  15.955  16.664  0.00  0.00    +0.000 C 
ATOM     28  C   UNL     1      -6.047  16.426  16.086  0.00  0.00    +0.000 C 
ATOM     29  C   UNL     1      -7.446  16.138  18.183  0.00  0.00    +0.000 C 
ENDROOT
BRANCH  14  30
ATOM     30  O   UNL     1      -3.997  13.165  18.028  0.00  0.00    +0.000 OA
ATOM     31  H   UNL     1      -3.197  12.660  18.277  0.00  0.00    +0.000 HD
ENDBRANCH  14  30
BRANCH  23  32
ATOM     32  O   UNL     1     -11.016   3.494  17.973  0.00  0.00    +0.000 OA
ATOM     33  H   UNL     1     -11.779   3.362  17.383  0.00  0.00    +0.000 HD
ENDBRANCH  23  32
TORSDOF 2
ENDMDL
MODEL 5
REMARK VINA RESULT:      -5.8      6.107     11.725
REMARK  Name = 
REMARK  5 active torsions:
REMARK  status: ('A' for Active; 'I' for Inactive)
REMARK    1  A    between atoms: O_1  and  C_16
REMARK    2  A    between atoms: O_3  and  C_25
REMARK    3  A    between atoms: C_11  and  C_22
REMARK    4  A    between atoms: C_16  and  C_28
REMARK    5  A    between atoms: C_29  and  C_31
REMARK                            x       y       z     vdW  Elec       q    Type
REMARK                         _______ _______ _______ _____ _____    ______ ____
ROOT
ATOM      1  O   UNL     1     -18.718  -1.150  -4.137  0.00  0.00    +0.000 OA
ATOM      2  N   UNL     1     -17.358   7.477  -0.411  0.00  0.00    +0.000 NA
ATOM      3  C   UNL     1     -18.971   4.125  -1.407  0.00  0.00    +0.000 C 
ATOM      4  C   UNL     1     -19.463   3.484  -2.732  0.00  0.00    +0.000 C 
ATOM      5  C   UNL     1     -18.650   1.755  -1.273  0.00  0.00    +0.000 C 
ATOM      6  C   UNL     1     -18.808   2.094  -2.760  0.00  0.00    +0.000 C 
ATOM      7  C   UNL     1     -18.292   5.495  -1.601  0.00  0.00    +0.000 C 
ATOM      8  C   UNL     1     -18.082   3.062  -0.729  0.00  0.00    +0.000 C 
ATOM      9  C   UNL     1     -17.873   0.430  -1.045  0.00  0.00    +0.000 C 
ATOM     10  C   UNL     1     -19.217   6.408  -2.436  0.00  0.00    +0.000 C 
ATOM     11  C   UNL     1     -19.121   4.314  -3.965  0.00  0.00    +0.000 C 
ATOM     12  C   UNL     1     -18.698  -0.683  -1.758  0.00  0.00    +0.000 C 
ATOM     13  C   UNL     1     -19.529   5.779  -3.818  0.00  0.00    +0.000 C 
ATOM     14  C   UNL     1     -18.646   7.853  -2.529  0.00  0.00    +0.000 C 
ATOM     15  C   UNL     1     -19.566   1.010  -3.512  0.00  0.00    +0.000 C 
ATOM     16  C   UNL     1     -17.960   6.142  -0.250  0.00  0.00    +0.000 C 
ATOM     17  C   UNL     1     -18.302   8.405  -1.095  0.00  0.00    +0.000 C 
ATOM     18  C   UNL     1     -17.821   0.096   0.467  0.00  0.00    +0.000 C 
ATOM     19  C   UNL     1     -18.928  -0.344  -3.233  0.00  0.00    +0.000 C 
ATOM     20  C   UNL     1     -16.425   0.509  -1.591  0.00  0.00    +0.000 C 
ATOM     21  C   UNL     1     -18.117  -2.079  -1.534  0.00  0.00    +0.000 C 
ATOM     22  C   UNL     1     -17.297  -1.315   0.753  0.00  0.00    +0.000 C 
ATOM     23  C   UNL     1     -18.037  -2.393  -0.039  0.00  0.00    +0.000 C 
ATOM     24  C   UNL     1     -17.693   9.829  -1.174  0.00  0.00    +0.000 C 
ATOM     25  C   UNL     1     -16.972   7.979   0.923  0.00  0.00    +0.000 C 
ATOM     26  C   UNL     1     -19.625   8.780  -3.265  0.00  0.00    +0.000 C 
ATOM     27  C   UNL     1     -16.289   9.349   0.869  0.00  0.00    +0.000 C 
ATOM     28  C   UNL     1     -17.213  10.347   0.177  0.00  0.00    +0.000 C 
ATOM     29  C   UNL     1     -14.915   9.275   0.197  0.00  0.00    +0.000 C 
ENDROOT
BRANCH  14  30
ATOM     30  O   UNL     1     -17.434   7.804  -3.301  0.00  0.00    +0.000 OA
ATOM     31  H   UNL     1     -17.459   6.940  -3.758  0.00  0.00    +0.000 HD
ENDBRANCH  14  30
BRANCH  23  32
ATOM     32  O   UNL     1     -17.368  -3.634   0.159  0.00  0.00    +0.000 OA
ATOM     33  H   UNL     1     -17.719  -4.268  -0.490  0.00  0.00    +0.000 HD
ENDBRANCH  23  32
TORSDOF 2
ENDMDL
MODEL 6
REMARK VINA RESULT:      -5.8     22.162     24.571
REMARK  Name = 
REMARK  5 active torsions:
REMARK  status: ('A' for Active; 'I' for Inactive)
REMARK    1  A    between atoms: O_1  and  C_16
REMARK    2  A    between atoms: O_3  and  C_25
REMARK    3  A    between atoms: C_11  and  C_22
REMARK    4  A    between atoms: C_16  and  C_28
REMARK    5  A    between atoms: C_29  and  C_31
REMARK                            x       y       z     vdW  Elec       q    Type
REMARK                         _______ _______ _______ _____ _____    ______ ____
ROOT
ATOM      1  O   UNL     1      -4.166   6.362  17.278  0.00  0.00    +0.000 OA
ATOM      2  N   UNL     1      -5.377  -2.171  13.293  0.00  0.00    +0.000 NA
ATOM      3  C   UNL     1      -5.278   0.696  15.862  0.00  0.00    +0.000 C 
ATOM      4  C   UNL     1      -4.162   1.515  16.564  0.00  0.00    +0.000 C 
ATOM      5  C   UNL     1      -6.093   2.914  16.258  0.00  0.00    +0.000 C 
ATOM      6  C   UNL     1      -4.564   2.984  16.354  0.00  0.00    +0.000 C 
ATOM      7  C   UNL     1      -4.744  -0.298  14.813  0.00  0.00    +0.000 C 
ATOM      8  C   UNL     1      -6.277   1.733  15.310  0.00  0.00    +0.000 C 
ATOM      9  C   UNL     1      -6.728   4.285  15.904  0.00  0.00    +0.000 C 
ATOM     10  C   UNL     1      -3.635  -1.164  15.449  0.00  0.00    +0.000 C 
ATOM     11  C   UNL     1      -2.766   1.211  16.029  0.00  0.00    +0.000 C 
ATOM     12  C   UNL     1      -6.313   5.261  17.046  0.00  0.00    +0.000 C 
ATOM     13  C   UNL     1      -2.471  -0.287  15.977  0.00  0.00    +0.000 C 
ATOM     14  C   UNL     1      -3.171  -2.287  14.476  0.00  0.00    +0.000 C 
ATOM     15  C   UNL     1      -4.106   3.964  17.424  0.00  0.00    +0.000 C 
ATOM     16  C   UNL     1      -5.874  -1.177  14.260  0.00  0.00    +0.000 C 
ATOM     17  C   UNL     1      -4.407  -3.100  13.938  0.00  0.00    +0.000 C 
ATOM     18  C   UNL     1      -8.274   4.173  15.907  0.00  0.00    +0.000 C 
ATOM     19  C   UNL     1      -4.792   5.306  17.210  0.00  0.00    +0.000 C 
ATOM     20  C   UNL     1      -6.266   4.795  14.517  0.00  0.00    +0.000 C 
ATOM     21  C   UNL     1      -6.954   6.641  16.900  0.00  0.00    +0.000 C 
ATOM     22  C   UNL     1      -8.975   5.532  15.819  0.00  0.00    +0.000 C 
ATOM     23  C   UNL     1      -8.479   6.524  16.872  0.00  0.00    +0.000 C 
ATOM     24  C   UNL     1      -3.964  -4.196  12.936  0.00  0.00    +0.000 C 
ATOM     25  C   UNL     1      -6.536  -2.896  12.733  0.00  0.00    +0.000 C 
ATOM     26  C   UNL     1      -2.148  -3.210  15.157  0.00  0.00    +0.000 C 
ATOM     27  C   UNL     1      -6.137  -3.929  11.675  0.00  0.00    +0.000 C 
ATOM     28  C   UNL     1      -5.139  -4.914  12.281  0.00  0.00    +0.000 C 
ATOM     29  C   UNL     1      -5.592  -3.266  10.407  0.00  0.00    +0.000 C 
ENDROOT
BRANCH  14  30
ATOM     30  O   UNL     1      -2.513  -1.665  13.359  0.00  0.00    +0.000 OA
ATOM     31  H   UNL     1      -2.161  -0.822  13.708  0.00  0.00    +0.000 HD
ENDBRANCH  14  30
BRANCH  23  32
ATOM     32  O   UNL     1      -9.057   7.795  16.597  0.00  0.00    +0.000 OA
ATOM     33  H   UNL     1      -8.481   8.252  15.959  0.00  0.00    +0.000 HD
ENDBRANCH  23  32
TORSDOF 2
ENDMDL
MODEL 7
REMARK VINA RESULT:      -5.8     23.329     26.647
REMARK  Name = 
REMARK  5 active torsions:
REMARK  status: ('A' for Active; 'I' for Inactive)
REMARK    1  A    between atoms: O_1  and  C_16
REMARK    2  A    between atoms: O_3  and  C_25
REMARK    3  A    between atoms: C_11  and  C_22
REMARK    4  A    between atoms: C_16  and  C_28
REMARK    5  A    between atoms: C_29  and  C_31
REMARK                            x       y       z     vdW  Elec       q    Type
REMARK                         _______ _______ _______ _____ _____    ______ ____
ROOT
ATOM      1  O   UNL     1      -8.948  20.675  16.697  0.00  0.00    +0.000 OA
ATOM      2  N   UNL     1     -12.218  16.311  24.470  0.00  0.00    +0.000 NA
ATOM      3  C   UNL     1     -11.812  17.505  20.832  0.00  0.00    +0.000 C 
ATOM      4  C   UNL     1     -11.984  18.854  20.084  0.00  0.00    +0.000 C 
ATOM      5  C   UNL     1     -10.235  17.585  19.029  0.00  0.00    +0.000 C 
ATOM      6  C   UNL     1     -10.680  19.030  19.289  0.00  0.00    +0.000 C 
ATOM      7  C   UNL     1     -12.014  17.616  22.355  0.00  0.00    +0.000 C 
ATOM      8  C   UNL     1     -10.431  16.962  20.408  0.00  0.00    +0.000 C 
ATOM      9  C   UNL     1      -8.844  17.507  18.346  0.00  0.00    +0.000 C 
ATOM     10  C   UNL     1     -13.355  18.326  22.641  0.00  0.00    +0.000 C 
ATOM     11  C   UNL     1     -12.261  20.028  21.017  0.00  0.00    +0.000 C 
ATOM     12  C   UNL     1      -8.983  18.270  16.994  0.00  0.00    +0.000 C 
ATOM     13  C   UNL     1     -13.389  19.739  22.005  0.00  0.00    +0.000 C 
ATOM     14  C   UNL     1     -13.678  18.325  24.163  0.00  0.00    +0.000 C 
ATOM     15  C   UNL     1     -10.783  19.832  18.000  0.00  0.00    +0.000 C 
ATOM     16  C   UNL     1     -11.974  16.233  23.019  0.00  0.00    +0.000 C 
ATOM     17  C   UNL     1     -13.571  16.868  24.751  0.00  0.00    +0.000 C 
ATOM     18  C   UNL     1      -8.487  16.032  18.030  0.00  0.00    +0.000 C 
ATOM     19  C   UNL     1      -9.486  19.698  17.214  0.00  0.00    +0.000 C 
ATOM     20  C   UNL     1      -7.728  18.113  19.234  0.00  0.00    +0.000 C 
ATOM     21  C   UNL     1      -7.715  18.191  16.143  0.00  0.00    +0.000 C 
ATOM     22  C   UNL     1      -7.254  15.891  17.133  0.00  0.00    +0.000 C 
ATOM     23  C   UNL     1      -7.348  16.733  15.860  0.00  0.00    +0.000 C 
ATOM     24  C   UNL     1     -13.850  16.858  26.276  0.00  0.00    +0.000 C 
ATOM     25  C   UNL     1     -12.056  14.960  25.043  0.00  0.00    +0.000 C 
ATOM     26  C   UNL     1     -15.064  18.934  24.426  0.00  0.00    +0.000 C 
ATOM     27  C   UNL     1     -12.243  14.931  26.563  0.00  0.00    +0.000 C 
ATOM     28  C   UNL     1     -13.619  15.493  26.914  0.00  0.00    +0.000 C 
ATOM     29  C   UNL     1     -11.116  15.672  27.290  0.00  0.00    +0.000 C 
ENDROOT
BRANCH  14  30
ATOM     30  O   UNL     1     -12.710  19.156  24.825  0.00  0.00    +0.000 OA
ATOM     31  H   UNL     1     -12.662  19.970  24.285  0.00  0.00    +0.000 HD
ENDBRANCH  14  30
BRANCH  23  32
ATOM     32  O   UNL     1      -6.095  16.672  15.189  0.00  0.00    +0.000 OA
ATOM     33  H   UNL     1      -5.960  15.755  14.892  0.00  0.00    +0.000 HD
ENDBRANCH  23  32
TORSDOF 2
ENDMDL
MODEL 8
REMARK VINA RESULT:      -5.7     23.441     25.867
REMARK  Name = 
REMARK  5 active torsions:
REMARK  status: ('A' for Active; 'I' for Inactive)
REMARK    1  A    between atoms: O_1  and  C_16
REMARK    2  A    between atoms: O_3  and  C_25
REMARK    3  A    between atoms: C_11  and  C_22
REMARK    4  A    between atoms: C_16  and  C_28
REMARK    5  A    between atoms: C_29  and  C_31
REMARK                            x       y       z     vdW  Elec       q    Type
REMARK                         _______ _______ _______ _____ _____    ______ ____
ROOT
ATOM      1  O   UNL     1      -4.370   5.014  15.300  0.00  0.00    +0.000 OA
ATOM      2  N   UNL     1     -10.704   5.210  22.370  0.00  0.00    +0.000 NA
ATOM      3  C   UNL     1      -9.129   5.222  18.856  0.00  0.00    +0.000 C 
ATOM      4  C   UNL     1      -8.252   6.208  18.040  0.00  0.00    +0.000 C 
ATOM      5  C   UNL     1      -7.688   3.953  17.422  0.00  0.00    +0.000 C 
ATOM      6  C   UNL     1      -7.078   5.356  17.530  0.00  0.00    +0.000 C 
ATOM      7  C   UNL     1      -9.402   5.690  20.299  0.00  0.00    +0.000 C 
ATOM      8  C   UNL     1      -8.430   3.850  18.751  0.00  0.00    +0.000 C 
ATOM      9  C   UNL     1      -6.635   2.876  17.049  0.00  0.00    +0.000 C 
ATOM     10  C   UNL     1      -9.942   7.137  20.271  0.00  0.00    +0.000 C 
ATOM     11  C   UNL     1      -7.789   7.413  18.851  0.00  0.00    +0.000 C 
ATOM     12  C   UNL     1      -6.048   3.305  15.670  0.00  0.00    +0.000 C 
ATOM     13  C   UNL     1      -8.935   8.099  19.591  0.00  0.00    +0.000 C 
ATOM     14  C   UNL     1     -10.378   7.601  21.691  0.00  0.00    +0.000 C 
ATOM     15  C   UNL     1      -6.445   5.802  16.220  0.00  0.00    +0.000 C 
ATOM     16  C   UNL     1     -10.388   4.752  21.007  0.00  0.00    +0.000 C 
ATOM     17  C   UNL     1     -11.354   6.551  22.341  0.00  0.00    +0.000 C 
ATOM     18  C   UNL     1      -7.323   1.498  16.869  0.00  0.00    +0.000 C 
ATOM     19  C   UNL     1      -5.486   4.727  15.727  0.00  0.00    +0.000 C 
ATOM     20  C   UNL     1      -5.532   2.747  18.128  0.00  0.00    +0.000 C 
ATOM     21  C   UNL     1      -5.064   2.280  15.108  0.00  0.00    +0.000 C 
ATOM     22  C   UNL     1      -6.401   0.441  16.255  0.00  0.00    +0.000 C 
ATOM     23  C   UNL     1      -5.737   0.914  14.962  0.00  0.00    +0.000 C 
ATOM     24  C   UNL     1     -11.765   6.979  23.773  0.00  0.00    +0.000 C 
ATOM     25  C   UNL     1     -11.568   4.200  23.014  0.00  0.00    +0.000 C 
ATOM     26  C   UNL     1     -11.016   8.997  21.636  0.00  0.00    +0.000 C 
ATOM     27  C   UNL     1     -11.922   4.554  24.461  0.00  0.00    +0.000 C 
ATOM     28  C   UNL     1     -12.596   5.924  24.495  0.00  0.00    +0.000 C 
ATOM     29  C   UNL     1     -10.699   4.492  25.379  0.00  0.00    +0.000 C 
ENDROOT
BRANCH  14  30
ATOM     30  O   UNL     1      -9.201   7.697  22.510  0.00  0.00    +0.000 OA
ATOM     31  H   UNL     1      -8.671   8.415  22.110  0.00  0.00    +0.000 HD
ENDBRANCH  14  30
BRANCH  23  32
ATOM     32  O   UNL     1      -4.775  -0.059  14.570  0.00  0.00    +0.000 OA
ATOM     33  H   UNL     1      -5.051  -0.916  14.938  0.00  0.00    +0.000 HD
ENDBRANCH  23  32
TORSDOF 2
ENDMDL
MODEL 9
REMARK VINA RESULT:      -5.6     21.237     23.768
REMARK  Name = 
REMARK  5 active torsions:
REMARK  status: ('A' for Active; 'I' for Inactive)
REMARK    1  A    between atoms: O_1  and  C_16
REMARK    2  A    between atoms: O_3  and  C_25
REMARK    3  A    between atoms: C_11  and  C_22
REMARK    4  A    between atoms: C_16  and  C_28
REMARK    5  A    between atoms: C_29  and  C_31
REMARK                            x       y       z     vdW  Elec       q    Type
REMARK                         _______ _______ _______ _____ _____    ______ ____
ROOT
ATOM      1  O   UNL     1       3.885  12.089  15.614  0.00  0.00    +0.000 OA
ATOM      2  N   UNL     1      -3.538  15.999  11.167  0.00  0.00    +0.000 NA
ATOM      3  C   UNL     1      -0.448  13.833  11.936  0.00  0.00    +0.000 C 
ATOM      4  C   UNL     1       1.066  14.100  12.148  0.00  0.00    +0.000 C 
ATOM      5  C   UNL     1       0.398  12.228  13.500  0.00  0.00    +0.000 C 
ATOM      6  C   UNL     1       1.410  13.380  13.462  0.00  0.00    +0.000 C 
ATOM      7  C   UNL     1      -1.280  15.117  11.750  0.00  0.00    +0.000 C 
ATOM      8  C   UNL     1      -0.891  12.951  13.122  0.00  0.00    +0.000 C 
ATOM      9  C   UNL     1       0.463  11.425  14.827  0.00  0.00    +0.000 C 
ATOM     10  C   UNL     1      -0.635  15.987  10.649  0.00  0.00    +0.000 C 
ATOM     11  C   UNL     1       1.414  15.585  12.189  0.00  0.00    +0.000 C 
ATOM     12  C   UNL     1       1.913  10.861  14.920  0.00  0.00    +0.000 C 
ATOM     13  C   UNL     1       0.826  16.358  11.011  0.00  0.00    +0.000 C 
ATOM     14  C   UNL     1      -1.522  17.221  10.316  0.00  0.00    +0.000 C 
ATOM     15  C   UNL     1       2.841  12.884  13.600  0.00  0.00    +0.000 C 
ATOM     16  C   UNL     1      -2.737  14.786  11.402  0.00  0.00    +0.000 C 
ATOM     17  C   UNL     1      -3.002  16.775  10.014  0.00  0.00    +0.000 C 
ATOM     18  C   UNL     1      -0.516  10.225  14.773  0.00  0.00    +0.000 C 
ATOM     19  C   UNL     1       2.950  11.982  14.822  0.00  0.00    +0.000 C 
ATOM     20  C   UNL     1       0.110  12.305  16.052  0.00  0.00    +0.000 C 
ATOM     21  C   UNL     1       2.111   9.949  16.131  0.00  0.00    +0.000 C 
ATOM     22  C   UNL     1      -0.328   9.243  15.933  0.00  0.00    +0.000 C 
ATOM     23  C   UNL     1       1.121   8.783  16.091  0.00  0.00    +0.000 C 
ATOM     24  C   UNL     1      -3.908  17.998   9.721  0.00  0.00    +0.000 C 
ATOM     25  C   UNL     1      -4.942  15.596  10.947  0.00  0.00    +0.000 C 
ATOM     26  C   UNL     1      -0.929  18.019   9.145  0.00  0.00    +0.000 C 
ATOM     27  C   UNL     1      -5.879  16.790  10.739  0.00  0.00    +0.000 C 
ATOM     28  C   UNL     1      -5.378  17.626   9.563  0.00  0.00    +0.000 C 
ATOM     29  C   UNL     1      -6.032  17.624  12.014  0.00  0.00    +0.000 C 
ENDROOT
BRANCH  14  30
ATOM     30  O   UNL     1      -1.533  18.086  11.465  0.00  0.00    +0.000 OA
ATOM     31  H   UNL     1      -0.724  18.630  11.381  0.00  0.00    +0.000 HD
ENDBRANCH  14  30
BRANCH  23  32
ATOM     32  O   UNL     1       1.222   8.022  17.289  0.00  0.00    +0.000 OA
ATOM     33  H   UNL     1       1.941   7.377  17.172  0.00  0.00    +0.000 HD
ENDBRANCH  23  32
TORSDOF 2
ENDMDL
