MODEL 1
REMARK VINA RESULT:      -6.5      0.000      0.000
REMARK  Name = PhIP.pdbqt.pdb
REMARK  2 active torsions:
REMARK  status: ('A' for Active; 'I' for Inactive)
REMARK    1  A    between atoms: N_4  and  C_9
REMARK    2  A    between atoms: C_7  and  C_10
REMARK                            x       y       z     vdW  Elec       q    Type
REMARK                         _______ _______ _______ _____ _____    ______ ____
ROOT
ATOM      1  N   UNL     1     -14.147  13.340  -4.539  0.00  0.00    +0.000 N 
ATOM      2  N   UNL     1     -13.297  14.872  -2.925  0.00  0.00    +0.000 NA
ATOM      3  N   UNL     1     -13.566  13.435  -0.988  0.00  0.00    +0.000 NA
ATOM      4  C   UNL     1     -14.165  12.696  -3.339  0.00  0.00    +0.000 C 
ATOM      5  C   UNL     1     -13.614  13.738  -2.354  0.00  0.00    +0.000 C 
ATOM      6  C   UNL     1     -14.784  11.320  -1.428  0.00  0.00    +0.000 C 
ATOM      7  C   UNL     1     -14.732  11.649  -2.818  0.00  0.00    +0.000 C 
ATOM      8  C   UNL     1     -13.658  14.613  -4.237  0.00  0.00    +0.000 C 
ATOM      9  C   UNL     1     -15.151  13.111  -5.563  0.00  0.00    +0.000 C 
ATOM     10  C   UNL     1     -14.111  12.410  -0.779  0.00  0.00    +0.000 C 
ENDROOT
BRANCH   6  11
ATOM     11  C   UNL     1     -15.322  10.119  -0.817  0.00  0.00    +0.000 A 
ATOM     12  C   UNL     1     -15.722  10.120   0.521  0.00  0.00    +0.000 A 
ATOM     13  C   UNL     1     -15.453   8.942  -1.556  0.00  0.00    +0.000 A 
ATOM     14  C   UNL     1     -16.240   8.968   1.111  0.00  0.00    +0.000 A 
ATOM     15  C   UNL     1     -15.969   7.787  -0.972  0.00  0.00    +0.000 A 
ATOM     16  C   UNL     1     -16.363   7.801   0.363  0.00  0.00    +0.000 A 
ENDBRANCH   6  11
BRANCH   8  17
ATOM     17  N   UNL     1     -13.591  15.689  -5.139  0.00  0.00    +0.000 NA
ATOM     18  H   UNL     1     -13.042  15.489  -5.968  0.00  0.00    +0.000 HD
ATOM     19  H   UNL     1     -14.497  16.097  -5.332  0.00  0.00    +0.000 HD
ENDBRANCH   8  17
TORSDOF 2
ENDMDL
MODEL 2
REMARK VINA RESULT:      -6.3      4.038      6.755
REMARK  Name = PhIP.pdbqt.pdb
REMARK  2 active torsions:
REMARK  status: ('A' for Active; 'I' for Inactive)
REMARK    1  A    between atoms: N_4  and  C_9
REMARK    2  A    between atoms: C_7  and  C_10
REMARK                            x       y       z     vdW  Elec       q    Type
REMARK                         _______ _______ _______ _____ _____    ______ ____
ROOT
ATOM      1  N   UNL     1     -15.984   6.128  -1.720  0.00  0.00    +0.000 N 
ATOM      2  N   UNL     1     -17.546   6.479   0.045  0.00  0.00    +0.000 NA
ATOM      3  N   UNL     1     -17.358   8.897   0.125  0.00  0.00    +0.000 NA
ATOM      4  C   UNL     1     -16.071   7.475  -1.534  0.00  0.00    +0.000 C 
ATOM      5  C   UNL     1     -17.083   7.623  -0.388  0.00  0.00    +0.000 C 
ATOM      6  C   UNL     1     -15.565   9.846  -1.302  0.00  0.00    +0.000 C 
ATOM      7  C   UNL     1     -15.385   8.534  -1.842  0.00  0.00    +0.000 C 
ATOM      8  C   UNL     1     -16.843   5.594  -0.756  0.00  0.00    +0.000 C 
ATOM      9  C   UNL     1     -14.750   5.473  -2.116  0.00  0.00    +0.000 C 
ATOM     10  C   UNL     1     -16.628   9.693  -0.347  0.00  0.00    +0.000 C 
ENDROOT
BRANCH   6  11
ATOM     11  C   UNL     1     -14.885  11.068  -1.686  0.00  0.00    +0.000 A 
ATOM     12  C   UNL     1     -14.448  11.974  -0.717  0.00  0.00    +0.000 A 
ATOM     13  C   UNL     1     -14.654  11.361  -3.032  0.00  0.00    +0.000 A 
ATOM     14  C   UNL     1     -13.795  13.149  -1.083  0.00  0.00    +0.000 A 
ATOM     15  C   UNL     1     -14.002  12.535  -3.404  0.00  0.00    +0.000 A 
ATOM     16  C   UNL     1     -13.572  13.429  -2.427  0.00  0.00    +0.000 A 
ENDBRANCH   6  11
BRANCH   8  17
ATOM     17  N   UNL     1     -16.982   4.226  -0.466  0.00  0.00    +0.000 NA
ATOM     18  H   UNL     1     -16.293   3.880   0.193  0.00  0.00    +0.000 HD
ATOM     19  H   UNL     1     -17.934   3.967  -0.241  0.00  0.00    +0.000 HD
ENDBRANCH   8  17
TORSDOF 2
ENDMDL
MODEL 3
REMARK VINA RESULT:      -5.8      4.521      5.766
REMARK  Name = PhIP.pdbqt.pdb
REMARK  2 active torsions:
REMARK  status: ('A' for Active; 'I' for Inactive)
REMARK    1  A    between atoms: N_4  and  C_9
REMARK    2  A    between atoms: C_7  and  C_10
REMARK                            x       y       z     vdW  Elec       q    Type
REMARK                         _______ _______ _______ _____ _____    ______ ____
ROOT
ATOM      1  N   UNL     1     -14.397   7.751  -5.618  0.00  0.00    +0.000 N 
ATOM      2  N   UNL     1     -13.677   5.502  -5.306  0.00  0.00    +0.000 NA
ATOM      3  N   UNL     1     -14.365   5.293  -2.989  0.00  0.00    +0.000 NA
ATOM      4  C   UNL     1     -14.740   7.401  -4.347  0.00  0.00    +0.000 C 
ATOM      5  C   UNL     1     -14.244   5.954  -4.218  0.00  0.00    +0.000 C 
ATOM      6  C   UNL     1     -15.153   7.402  -1.947  0.00  0.00    +0.000 C 
ATOM      7  C   UNL     1     -15.082   7.998  -3.245  0.00  0.00    +0.000 C 
ATOM      8  C   UNL     1     -13.755   6.618  -6.123  0.00  0.00    +0.000 C 
ATOM      9  C   UNL     1     -13.994   9.101  -5.974  0.00  0.00    +0.000 C 
ATOM     10  C   UNL     1     -14.736   6.043  -2.158  0.00  0.00    +0.000 C 
ENDROOT
BRANCH   6  11
ATOM     11  C   UNL     1     -15.617   8.007  -0.713  0.00  0.00    +0.000 A 
ATOM     12  C   UNL     1     -16.782   7.552  -0.092  0.00  0.00    +0.000 A 
ATOM     13  C   UNL     1     -14.906   9.054  -0.123  0.00  0.00    +0.000 A 
ATOM     14  C   UNL     1     -17.230   8.131   1.094  0.00  0.00    +0.000 A 
ATOM     15  C   UNL     1     -15.350   9.637   1.063  0.00  0.00    +0.000 A 
ATOM     16  C   UNL     1     -16.514   9.174   1.671  0.00  0.00    +0.000 A 
ENDBRANCH   6  11
BRANCH   8  17
ATOM     17  N   UNL     1     -13.096   6.546  -7.362  0.00  0.00    +0.000 NA
ATOM     18  H   UNL     1     -13.182   5.642  -7.814  0.00  0.00    +0.000 HD
ATOM     19  H   UNL     1     -13.307   7.331  -7.966  0.00  0.00    +0.000 HD
ENDBRANCH   8  17
TORSDOF 2
ENDMDL
MODEL 4
REMARK VINA RESULT:      -5.4      6.110      8.646
REMARK  Name = PhIP.pdbqt.pdb
REMARK  2 active torsions:
REMARK  status: ('A' for Active; 'I' for Inactive)
REMARK    1  A    between atoms: N_4  and  C_9
REMARK    2  A    between atoms: C_7  and  C_10
REMARK                            x       y       z     vdW  Elec       q    Type
REMARK                         _______ _______ _______ _____ _____    ______ ____
ROOT
ATOM      1  N   UNL     1     -19.590   3.836  -2.119  0.00  0.00    +0.000 N 
ATOM      2  N   UNL     1     -17.803   2.902  -3.389  0.00  0.00    +0.000 NA
ATOM      3  N   UNL     1     -16.051   4.349  -2.535  0.00  0.00    +0.000 NA
ATOM      4  C   UNL     1     -18.458   4.496  -1.748  0.00  0.00    +0.000 C 
ATOM      5  C   UNL     1     -17.358   3.850  -2.604  0.00  0.00    +0.000 C 
ATOM      6  C   UNL     1     -16.848   6.202  -1.092  0.00  0.00    +0.000 C 
ATOM      7  C   UNL     1     -18.145   5.600  -1.139  0.00  0.00    +0.000 C 
ATOM      8  C   UNL     1     -19.157   2.938  -3.097  0.00  0.00    +0.000 C 
ATOM      9  C   UNL     1     -20.889   4.484  -2.175  0.00  0.00    +0.000 C 
ATOM     10  C   UNL     1     -16.025   5.332  -1.885  0.00  0.00    +0.000 C 
ENDROOT
BRANCH   6  11
ATOM     11  C   UNL     1     -16.439   7.378  -0.349  0.00  0.00    +0.000 A 
ATOM     12  C   UNL     1     -15.402   8.189  -0.814  0.00  0.00    +0.000 A 
ATOM     13  C   UNL     1     -17.076   7.722   0.845  0.00  0.00    +0.000 A 
ATOM     14  C   UNL     1     -15.007   9.320  -0.102  0.00  0.00    +0.000 A 
ATOM     15  C   UNL     1     -16.685   8.852   1.562  0.00  0.00    +0.000 A 
ATOM     16  C   UNL     1     -15.649   9.651   1.087  0.00  0.00    +0.000 A 
ENDBRANCH   6  11
BRANCH   8  17
ATOM     17  N   UNL     1     -19.997   2.129  -3.882  0.00  0.00    +0.000 NA
ATOM     18  H   UNL     1     -19.593   1.875  -4.777  0.00  0.00    +0.000 HD
ATOM     19  H   UNL     1     -20.384   1.348  -3.367  0.00  0.00    +0.000 HD
ENDBRANCH   8  17
TORSDOF 2
ENDMDL
MODEL 5
REMARK VINA RESULT:      -5.1      5.785      8.165
REMARK  Name = PhIP.pdbqt.pdb
REMARK  2 active torsions:
REMARK  status: ('A' for Active; 'I' for Inactive)
REMARK    1  A    between atoms: N_4  and  C_9
REMARK    2  A    between atoms: C_7  and  C_10
REMARK                            x       y       z     vdW  Elec       q    Type
REMARK                         _______ _______ _______ _____ _____    ______ ____
ROOT
ATOM      1  N   UNL     1     -17.273   3.665  -2.943  0.00  0.00    +0.000 N 
ATOM      2  N   UNL     1     -15.122   2.641  -2.899  0.00  0.00    +0.000 NA
ATOM      3  N   UNL     1     -13.903   4.558  -2.043  0.00  0.00    +0.000 NA
ATOM      4  C   UNL     1     -16.409   4.587  -2.432  0.00  0.00    +0.000 C 
ATOM      5  C   UNL     1     -15.054   3.864  -2.439  0.00  0.00    +0.000 C 
ATOM      6  C   UNL     1     -15.229   6.649  -1.899  0.00  0.00    +0.000 C 
ATOM      7  C   UNL     1     -16.382   5.870  -2.231  0.00  0.00    +0.000 C 
ATOM      8  C   UNL     1     -16.466   2.560  -3.224  0.00  0.00    +0.000 C 
ATOM      9  C   UNL     1     -18.408   4.034  -3.771  0.00  0.00    +0.000 C 
ATOM     10  C   UNL     1     -14.152   5.699  -1.879  0.00  0.00    +0.000 C 
ENDROOT
BRANCH   6  11
ATOM     11  C   UNL     1     -15.173   8.062  -1.577  0.00  0.00    +0.000 A 
ATOM     12  C   UNL     1     -15.003   9.015  -2.583  0.00  0.00    +0.000 A 
ATOM     13  C   UNL     1     -15.289   8.495  -0.254  0.00  0.00    +0.000 A 
ATOM     14  C   UNL     1     -14.948  10.374  -2.276  0.00  0.00    +0.000 A 
ATOM     15  C   UNL     1     -15.235   9.852   0.059  0.00  0.00    +0.000 A 
ATOM     16  C   UNL     1     -15.064  10.792  -0.954  0.00  0.00    +0.000 A 
ENDBRANCH   6  11
BRANCH   8  17
ATOM     17  N   UNL     1     -16.887   1.402  -3.899  0.00  0.00    +0.000 NA
ATOM     18  H   UNL     1     -16.743   1.443  -4.903  0.00  0.00    +0.000 HD
ATOM     19  H   UNL     1     -16.548   0.550  -3.469  0.00  0.00    +0.000 HD
ENDBRANCH   8  17
TORSDOF 2
ENDMDL
MODEL 6
REMARK VINA RESULT:      -5.0     12.187     13.474
REMARK  Name = PhIP.pdbqt.pdb
REMARK  2 active torsions:
REMARK  status: ('A' for Active; 'I' for Inactive)
REMARK    1  A    between atoms: N_4  and  C_9
REMARK    2  A    between atoms: C_7  and  C_10
REMARK                            x       y       z     vdW  Elec       q    Type
REMARK                         _______ _______ _______ _____ _____    ______ ____
ROOT
ATOM      1  N   UNL     1     -25.403   7.617   2.830  0.00  0.00    +0.000 N 
ATOM      2  N   UNL     1     -25.355   5.670   4.202  0.00  0.00    +0.000 NA
ATOM      3  N   UNL     1     -24.664   6.773   6.250  0.00  0.00    +0.000 NA
ATOM      4  C   UNL     1     -25.069   8.029   4.085  0.00  0.00    +0.000 C 
ATOM      5  C   UNL     1     -25.052   6.731   4.905  0.00  0.00    +0.000 C 
ATOM      6  C   UNL     1     -24.054   9.163   5.986  0.00  0.00    +0.000 C 
ATOM      7  C   UNL     1     -24.539   9.075   4.643  0.00  0.00    +0.000 C 
ATOM      8  C   UNL     1     -25.531   6.231   2.948  0.00  0.00    +0.000 C 
ATOM      9  C   UNL     1     -24.879   8.254   1.634  0.00  0.00    +0.000 C 
ATOM     10  C   UNL     1     -24.261   7.847   6.524  0.00  0.00    +0.000 C 
ENDROOT
BRANCH   6  11
ATOM     11  C   UNL     1     -23.544  10.333   6.674  0.00  0.00    +0.000 A 
ATOM     12  C   UNL     1     -23.857  11.617   6.221  0.00  0.00    +0.000 A 
ATOM     13  C   UNL     1     -22.734  10.199   7.803  0.00  0.00    +0.000 A 
ATOM     14  C   UNL     1     -23.368  12.744   6.880  0.00  0.00    +0.000 A 
ATOM     15  C   UNL     1     -22.242  11.322   8.466  0.00  0.00    +0.000 A 
ATOM     16  C   UNL     1     -22.560  12.595   8.003  0.00  0.00    +0.000 A 
ENDBRANCH   6  11
BRANCH   8  17
ATOM     17  N   UNL     1     -25.732   5.343   1.877  0.00  0.00    +0.000 NA
ATOM     18  H   UNL     1     -25.721   5.794   0.969  0.00  0.00    +0.000 HD
ATOM     19  H   UNL     1     -25.146   4.519   1.935  0.00  0.00    +0.000 HD
ENDBRANCH   8  17
TORSDOF 2
ENDMDL
MODEL 7
REMARK VINA RESULT:      -4.9     11.303     12.573
REMARK  Name = PhIP.pdbqt.pdb
REMARK  2 active torsions:
REMARK  status: ('A' for Active; 'I' for Inactive)
REMARK    1  A    between atoms: N_4  and  C_9
REMARK    2  A    between atoms: C_7  and  C_10
REMARK                            x       y       z     vdW  Elec       q    Type
REMARK                         _______ _______ _______ _____ _____    ______ ____
ROOT
ATOM      1  N   UNL     1     -11.116   1.547  -1.914  0.00  0.00    +0.000 N 
ATOM      2  N   UNL     1     -13.104   0.818  -0.823  0.00  0.00    +0.000 NA
ATOM      3  N   UNL     1     -12.221   0.837   1.438  0.00  0.00    +0.000 NA
ATOM      4  C   UNL     1     -10.848   1.530  -0.578  0.00  0.00    +0.000 C 
ATOM      5  C   UNL     1     -12.161   1.049   0.055  0.00  0.00    +0.000 C 
ATOM      6  C   UNL     1      -9.782   1.256   1.594  0.00  0.00    +0.000 C 
ATOM      7  C   UNL     1      -9.802   1.537   0.192  0.00  0.00    +0.000 C 
ATOM      8  C   UNL     1     -12.435   1.097  -2.003  0.00  0.00    +0.000 C 
ATOM      9  C   UNL     1     -10.113   1.230  -2.915  0.00  0.00    +0.000 C 
ATOM     10  C   UNL     1     -11.147   0.945   1.913  0.00  0.00    +0.000 C 
ENDROOT
BRANCH   6  11
ATOM     11  C   UNL     1      -8.656   1.345   2.504  0.00  0.00    +0.000 A 
ATOM     12  C   UNL     1      -8.860   1.408   3.884  0.00  0.00    +0.000 A 
ATOM     13  C   UNL     1      -7.347   1.366   2.017  0.00  0.00    +0.000 A 
ATOM     14  C   UNL     1      -7.779   1.493   4.761  0.00  0.00    +0.000 A 
ATOM     15  C   UNL     1      -6.263   1.452   2.889  0.00  0.00    +0.000 A 
ATOM     16  C   UNL     1      -6.481   1.515   4.263  0.00  0.00    +0.000 A 
ENDBRANCH   6  11
BRANCH   8  17
ATOM     17  N   UNL     1     -13.113   0.811  -3.200  0.00  0.00    +0.000 NA
ATOM     18  H   UNL     1     -14.018   0.374  -3.059  0.00  0.00    +0.000 HD
ATOM     19  H   UNL     1     -13.129   1.595  -3.840  0.00  0.00    +0.000 HD
ENDBRANCH   8  17
TORSDOF 2
ENDMDL
MODEL 8
REMARK VINA RESULT:      -4.8     22.901     25.630
REMARK  Name = PhIP.pdbqt.pdb
REMARK  2 active torsions:
REMARK  status: ('A' for Active; 'I' for Inactive)
REMARK    1  A    between atoms: N_4  and  C_9
REMARK    2  A    between atoms: C_7  and  C_10
REMARK                            x       y       z     vdW  Elec       q    Type
REMARK                         _______ _______ _______ _____ _____    ______ ____
ROOT
ATOM      1  N   UNL     1     -19.253   5.101  24.342  0.00  0.00    +0.000 N 
ATOM      2  N   UNL     1     -17.191   5.926  23.479  0.00  0.00    +0.000 NA
ATOM      3  N   UNL     1     -17.690   5.563  21.132  0.00  0.00    +0.000 NA
ATOM      4  C   UNL     1     -19.338   5.029  22.984  0.00  0.00    +0.000 C 
ATOM      5  C   UNL     1     -17.983   5.568  22.502  0.00  0.00    +0.000 C 
ATOM      6  C   UNL     1     -19.791   4.318  20.700  0.00  0.00    +0.000 C 
ATOM      7  C   UNL     1     -20.070   4.424  22.098  0.00  0.00    +0.000 C 
ATOM      8  C   UNL     1     -17.971   5.605  24.578  0.00  0.00    +0.000 C 
ATOM      9  C   UNL     1     -19.882   4.127  25.216  0.00  0.00    +0.000 C 
ATOM     10  C   UNL     1     -18.533   4.992  20.537  0.00  0.00    +0.000 C 
ENDROOT
BRANCH   6  11
ATOM     11  C   UNL     1     -20.626   3.736  19.667  0.00  0.00    +0.000 A 
ATOM     12  C   UNL     1     -21.233   2.493  19.859  0.00  0.00    +0.000 A 
ATOM     13  C   UNL     1     -20.840   4.407  18.461  0.00  0.00    +0.000 A 
ATOM     14  C   UNL     1     -22.035   1.930  18.868  0.00  0.00    +0.000 A 
ATOM     15  C   UNL     1     -21.641   3.850  17.467  0.00  0.00    +0.000 A 
ATOM     16  C   UNL     1     -22.239   2.609  17.672  0.00  0.00    +0.000 A 
ENDBRANCH   6  11
BRANCH   8  17
ATOM     17  N   UNL     1     -17.369   5.724  25.842  0.00  0.00    +0.000 NA
ATOM     18  H   UNL     1     -16.439   6.129  25.810  0.00  0.00    +0.000 HD
ATOM     19  H   UNL     1     -17.979   6.146  26.530  0.00  0.00    +0.000 HD
ENDBRANCH   8  17
TORSDOF 2
ENDMDL
MODEL 9
REMARK VINA RESULT:      -4.8     13.237     14.160
REMARK  Name = PhIP.pdbqt.pdb
REMARK  2 active torsions:
REMARK  status: ('A' for Active; 'I' for Inactive)
REMARK    1  A    between atoms: N_4  and  C_9
REMARK    2  A    between atoms: C_7  and  C_10
REMARK                            x       y       z     vdW  Elec       q    Type
REMARK                         _______ _______ _______ _____ _____    ______ ____
ROOT
ATOM      1  N   UNL     1     -26.015   5.428   2.770  0.00  0.00    +0.000 N 
ATOM      2  N   UNL     1     -25.398   3.790   4.387  0.00  0.00    +0.000 NA
ATOM      3  N   UNL     1     -24.678   5.339   6.112  0.00  0.00    +0.000 NA
ATOM      4  C   UNL     1     -25.608   6.105   3.880  0.00  0.00    +0.000 C 
ATOM      5  C   UNL     1     -25.224   4.995   4.868  0.00  0.00    +0.000 C 
ATOM      6  C   UNL     1     -24.600   7.715   5.404  0.00  0.00    +0.000 C 
ATOM      7  C   UNL     1     -25.230   7.310   4.186  0.00  0.00    +0.000 C 
ATOM      8  C   UNL     1     -25.847   4.083   3.109  0.00  0.00    +0.000 C 
ATOM      9  C   UNL     1     -25.792   5.928   1.425  0.00  0.00    +0.000 C 
ATOM     10  C   UNL     1     -24.466   6.498   6.156  0.00  0.00    +0.000 C 
ENDROOT
BRANCH   6  11
ATOM     11  C   UNL     1     -24.249   9.059   5.821  0.00  0.00    +0.000 A 
ATOM     12  C   UNL     1     -23.415   9.268   6.921  0.00  0.00    +0.000 A 
ATOM     13  C   UNL     1     -24.737  10.169   5.128  0.00  0.00    +0.000 A 
ATOM     14  C   UNL     1     -23.076  10.558   7.323  0.00  0.00    +0.000 A 
ATOM     15  C   UNL     1     -24.402  11.462   5.526  0.00  0.00    +0.000 A 
ATOM     16  C   UNL     1     -23.570  11.655   6.626  0.00  0.00    +0.000 A 
ENDBRANCH   6  11
BRANCH   8  17
ATOM     17  N   UNL     1     -26.004   3.000   2.228  0.00  0.00    +0.000 NA
ATOM     18  H   UNL     1     -25.884   2.096   2.672  0.00  0.00    +0.000 HD
ATOM     19  H   UNL     1     -26.839   3.074   1.660  0.00  0.00    +0.000 HD
ENDBRANCH   8  17
TORSDOF 2
ENDMDL
