MODEL 1
REMARK VINA RESULT:      -6.6      0.000      0.000
REMARK  Name = Piroxicam.pdbqt.pdb
REMARK  3 active torsions:
REMARK  status: ('A' for Active; 'I' for Inactive)
REMARK    1  A    between atoms: C_7  and  C_14
REMARK    2  A    between atoms: C_8  and  O_24
REMARK    3  A    between atoms: N_16  and  C_18
REMARK                            x       y       z     vdW  Elec       q    Type
REMARK                         _______ _______ _______ _____ _____    ______ ____
ROOT
ATOM      1  S   UNL     1     -17.489   9.584  -2.514  0.00  0.00    +0.000 S 
ATOM      2  O   UNL     1     -18.283  10.798  -2.553  0.00  0.00    +0.000 OA
ATOM      3  O   UNL     1     -18.057   8.315  -2.925  0.00  0.00    +0.000 OA
ATOM      4  N   UNL     1     -16.005   9.874  -3.338  0.00  0.00    +0.000 N 
ATOM      5  C   UNL     1     -16.926   9.416  -0.864  0.00  0.00    +0.000 A 
ATOM      6  C   UNL     1     -15.818  10.171  -0.483  0.00  0.00    +0.000 A 
ATOM      7  C   UNL     1     -15.236  10.947  -2.774  0.00  0.00    +0.000 C 
ATOM      8  C   UNL     1     -15.154  11.087  -1.430  0.00  0.00    +0.000 C 
ATOM      9  C   UNL     1     -17.565   8.531  -0.004  0.00  0.00    +0.000 A 
ATOM     10  C   UNL     1     -15.165   8.721  -3.704  0.00  0.00    +0.000 C 
ATOM     11  C   UNL     1     -15.374  10.044   0.834  0.00  0.00    +0.000 A 
ATOM     12  C   UNL     1     -17.097   8.413   1.299  0.00  0.00    +0.000 A 
ATOM     13  C   UNL     1     -16.007   9.172   1.721  0.00  0.00    +0.000 A 
ENDROOT
BRANCH   7  14
ATOM     14  C   UNL     1     -14.551  11.905  -3.702  0.00  0.00    +0.000 C 
ATOM     15  O   UNL     1     -13.905  11.466  -4.651  0.00  0.00    +0.000 OA
ATOM     16  N   UNL     1     -14.711  13.231  -3.390  0.00  0.00    +0.000 N 
ATOM     17  H   UNL     1     -15.316  13.510  -2.626  0.00  0.00    +0.000 HD
BRANCH  16  18
ATOM     18  C   UNL     1     -14.158  14.316  -4.070  0.00  0.00    +0.000 A 
ATOM     19  N   UNL     1     -14.894  14.750  -5.113  0.00  0.00    +0.000 NA
ATOM     20  C   UNL     1     -14.406  15.804  -5.807  0.00  0.00    +0.000 A 
ATOM     21  C   UNL     1     -13.220  16.451  -5.512  0.00  0.00    +0.000 A 
ATOM     22  C   UNL     1     -12.488  15.981  -4.431  0.00  0.00    +0.000 A 
ATOM     23  C   UNL     1     -12.957  14.900  -3.694  0.00  0.00    +0.000 A 
ENDBRANCH  16  18
ENDBRANCH   7  14
BRANCH   8  24
ATOM     24  O   UNL     1     -14.432  12.091  -0.805  0.00  0.00    +0.000 OA
ATOM     25  H   UNL     1     -14.953  12.454  -0.053  0.00  0.00    +0.000 HD
ENDBRANCH   8  24
TORSDOF 3
ENDMDL
MODEL 2
REMARK VINA RESULT:      -5.8      4.860      8.660
REMARK  Name = Piroxicam.pdbqt.pdb
REMARK  3 active torsions:
REMARK  status: ('A' for Active; 'I' for Inactive)
REMARK    1  A    between atoms: C_7  and  C_14
REMARK    2  A    between atoms: C_8  and  O_24
REMARK    3  A    between atoms: N_16  and  C_18
REMARK                            x       y       z     vdW  Elec       q    Type
REMARK                         _______ _______ _______ _____ _____    ______ ____
ROOT
ATOM      1  S   UNL     1     -15.243   7.631  -2.468  0.00  0.00    +0.000 S 
ATOM      2  O   UNL     1     -14.404   6.461  -2.284  0.00  0.00    +0.000 OA
ATOM      3  O   UNL     1     -14.747   8.793  -3.180  0.00  0.00    +0.000 OA
ATOM      4  N   UNL     1     -16.753   7.124  -3.123  0.00  0.00    +0.000 N 
ATOM      5  C   UNL     1     -15.730   8.145  -0.867  0.00  0.00    +0.000 A 
ATOM      6  C   UNL     1     -16.787   7.463  -0.267  0.00  0.00    +0.000 A 
ATOM      7  C   UNL     1     -17.450   6.182  -2.293  0.00  0.00    +0.000 C 
ATOM      8  C   UNL     1     -17.460   6.341  -0.949  0.00  0.00    +0.000 C 
ATOM      9  C   UNL     1     -15.085   9.216  -0.260  0.00  0.00    +0.000 A 
ATOM     10  C   UNL     1     -17.656   8.144  -3.685  0.00  0.00    +0.000 C 
ATOM     11  C   UNL     1     -17.170   7.866   1.014  0.00  0.00    +0.000 A 
ATOM     12  C   UNL     1     -15.492   9.607   1.010  0.00  0.00    +0.000 A 
ATOM     13  C   UNL     1     -16.529   8.931   1.649  0.00  0.00    +0.000 A 
ENDROOT
BRANCH   7  14
ATOM     14  C   UNL     1     -18.141   5.023  -2.947  0.00  0.00    +0.000 C 
ATOM     15  O   UNL     1     -17.527   4.336  -3.761  0.00  0.00    +0.000 OA
ATOM     16  N   UNL     1     -19.445   4.835  -2.566  0.00  0.00    +0.000 N 
ATOM     17  H   UNL     1     -19.856   5.408  -1.838  0.00  0.00    +0.000 HD
BRANCH  16  18
ATOM     18  C   UNL     1     -20.315   3.853  -3.042  0.00  0.00    +0.000 A 
ATOM     19  N   UNL     1     -21.323   4.326  -3.803  0.00  0.00    +0.000 NA
ATOM     20  C   UNL     1     -22.195   3.416  -4.294  0.00  0.00    +0.000 A 
ATOM     21  C   UNL     1     -22.112   2.054  -4.066  0.00  0.00    +0.000 A 
ATOM     22  C   UNL     1     -21.062   1.600  -3.281  0.00  0.00    +0.000 A 
ATOM     23  C   UNL     1     -20.146   2.505  -2.758  0.00  0.00    +0.000 A 
ENDBRANCH  16  18
ENDBRANCH   7  14
BRANCH   8  24
ATOM     24  O   UNL     1     -18.109   5.482  -0.079  0.00  0.00    +0.000 OA
ATOM     25  H   UNL     1     -17.447   5.010   0.477  0.00  0.00    +0.000 HD
ENDBRANCH   8  24
TORSDOF 3
ENDMDL
MODEL 3
REMARK VINA RESULT:      -5.7      4.928      8.735
REMARK  Name = Piroxicam.pdbqt.pdb
REMARK  3 active torsions:
REMARK  status: ('A' for Active; 'I' for Inactive)
REMARK    1  A    between atoms: C_7  and  C_14
REMARK    2  A    between atoms: C_8  and  O_24
REMARK    3  A    between atoms: N_16  and  C_18
REMARK                            x       y       z     vdW  Elec       q    Type
REMARK                         _______ _______ _______ _____ _____    ______ ____
ROOT
ATOM      1  S   UNL     1     -15.392   7.479  -2.544  0.00  0.00    +0.000 S 
ATOM      2  O   UNL     1     -14.539   6.320  -2.356  0.00  0.00    +0.000 OA
ATOM      3  O   UNL     1     -14.950   8.600  -3.350  0.00  0.00    +0.000 OA
ATOM      4  N   UNL     1     -16.943   6.939  -3.063  0.00  0.00    +0.000 N 
ATOM      5  C   UNL     1     -15.768   8.079  -0.942  0.00  0.00    +0.000 A 
ATOM      6  C   UNL     1     -16.779   7.433  -0.234  0.00  0.00    +0.000 A 
ATOM      7  C   UNL     1     -17.577   6.045  -2.137  0.00  0.00    +0.000 C 
ATOM      8  C   UNL     1     -17.494   6.276  -0.806  0.00  0.00    +0.000 C 
ATOM      9  C   UNL     1     -15.085   9.181  -0.441  0.00  0.00    +0.000 A 
ATOM     10  C   UNL     1     -17.885   7.928  -3.615  0.00  0.00    +0.000 C 
ATOM     11  C   UNL     1     -17.072   7.905   1.047  0.00  0.00    +0.000 A 
ATOM     12  C   UNL     1     -15.403   9.641   0.831  0.00  0.00    +0.000 A 
ATOM     13  C   UNL     1     -16.391   9.002   1.577  0.00  0.00    +0.000 A 
ENDROOT
BRANCH   7  14
ATOM     14  C   UNL     1     -18.310   4.853  -2.678  0.00  0.00    +0.000 C 
ATOM     15  O   UNL     1     -19.490   4.684  -2.377  0.00  0.00    +0.000 OA
ATOM     16  N   UNL     1     -17.565   4.029  -3.482  0.00  0.00    +0.000 N 
ATOM     17  H   UNL     1     -16.615   4.278  -3.734  0.00  0.00    +0.000 HD
BRANCH  16  18
ATOM     18  C   UNL     1     -17.996   2.847  -4.086  0.00  0.00    +0.000 A 
ATOM     19  N   UNL     1     -17.792   1.740  -3.345  0.00  0.00    +0.000 NA
ATOM     20  C   UNL     1     -18.195   0.565  -3.881  0.00  0.00    +0.000 A 
ATOM     21  C   UNL     1     -18.796   0.438  -5.121  0.00  0.00    +0.000 A 
ATOM     22  C   UNL     1     -18.994   1.598  -5.857  0.00  0.00    +0.000 A 
ATOM     23  C   UNL     1     -18.592   2.823  -5.339  0.00  0.00    +0.000 A 
ENDBRANCH  16  18
ENDBRANCH   7  14
BRANCH   8  24
ATOM     24  O   UNL     1     -18.079   5.466   0.152  0.00  0.00    +0.000 OA
ATOM     25  H   UNL     1     -17.414   4.827   0.497  0.00  0.00    +0.000 HD
ENDBRANCH   8  24
TORSDOF 3
ENDMDL
MODEL 4
REMARK VINA RESULT:      -5.4     13.614     15.593
REMARK  Name = Piroxicam.pdbqt.pdb
REMARK  3 active torsions:
REMARK  status: ('A' for Active; 'I' for Inactive)
REMARK    1  A    between atoms: C_7  and  C_14
REMARK    2  A    between atoms: C_8  and  O_24
REMARK    3  A    between atoms: N_16  and  C_18
REMARK                            x       y       z     vdW  Elec       q    Type
REMARK                         _______ _______ _______ _____ _____    ______ ____
ROOT
ATOM      1  S   UNL     1       0.162  16.513   4.368  0.00  0.00    +0.000 S 
ATOM      2  O   UNL     1       0.746  15.198   4.555  0.00  0.00    +0.000 OA
ATOM      3  O   UNL     1       0.981  17.706   4.452  0.00  0.00    +0.000 OA
ATOM      4  N   UNL     1      -0.740  16.507   2.900  0.00  0.00    +0.000 N 
ATOM      5  C   UNL     1      -1.124  16.655   5.547  0.00  0.00    +0.000 A 
ATOM      6  C   UNL     1      -2.344  16.053   5.244  0.00  0.00    +0.000 A 
ATOM      7  C   UNL     1      -1.789  15.528   2.877  0.00  0.00    +0.000 C 
ATOM      8  C   UNL     1      -2.540  15.313   3.983  0.00  0.00    +0.000 C 
ATOM      9  C   UNL     1      -0.910  17.374   6.718  0.00  0.00    +0.000 A 
ATOM     10  C   UNL     1      -1.170  17.796   2.331  0.00  0.00    +0.000 C 
ATOM     11  C   UNL     1      -3.367  16.158   6.189  0.00  0.00    +0.000 A 
ATOM     12  C   UNL     1      -1.947  17.475   7.637  0.00  0.00    +0.000 A 
ATOM     13  C   UNL     1      -3.172  16.863   7.377  0.00  0.00    +0.000 A 
ENDROOT
BRANCH   7  14
ATOM     14  C   UNL     1      -2.017  14.749   1.616  0.00  0.00    +0.000 C 
ATOM     15  O   UNL     1      -1.065  14.192   1.072  0.00  0.00    +0.000 OA
ATOM     16  N   UNL     1      -3.313  14.734   1.168  0.00  0.00    +0.000 N 
ATOM     17  H   UNL     1      -4.050  15.165   1.714  0.00  0.00    +0.000 HD
BRANCH  16  18
ATOM     18  C   UNL     1      -3.785  14.111   0.013  0.00  0.00    +0.000 A 
ATOM     19  N   UNL     1      -3.807  12.764   0.078  0.00  0.00    +0.000 NA
ATOM     20  C   UNL     1      -4.260  12.108  -1.014  0.00  0.00    +0.000 A 
ATOM     21  C   UNL     1      -4.696  12.727  -2.172  0.00  0.00    +0.000 A 
ATOM     22  C   UNL     1      -4.663  14.114  -2.206  0.00  0.00    +0.000 A 
ATOM     23  C   UNL     1      -4.203  14.823  -1.102  0.00  0.00    +0.000 A 
ENDBRANCH  16  18
ENDBRANCH   7  14
BRANCH   8  24
ATOM     24  O   UNL     1      -3.571  14.391   4.044  0.00  0.00    +0.000 OA
ATOM     25  H   UNL     1      -4.434  14.863   4.093  0.00  0.00    +0.000 HD
ENDBRANCH   8  24
TORSDOF 3
ENDMDL
MODEL 5
REMARK VINA RESULT:      -5.2      2.496      3.314
REMARK  Name = Piroxicam.pdbqt.pdb
REMARK  3 active torsions:
REMARK  status: ('A' for Active; 'I' for Inactive)
REMARK    1  A    between atoms: C_7  and  C_14
REMARK    2  A    between atoms: C_8  and  O_24
REMARK    3  A    between atoms: N_16  and  C_18
REMARK                            x       y       z     vdW  Elec       q    Type
REMARK                         _______ _______ _______ _____ _____    ______ ____
ROOT
ATOM      1  S   UNL     1     -17.044   8.753   0.461  0.00  0.00    +0.000 S 
ATOM      2  O   UNL     1     -15.799   8.981   1.171  0.00  0.00    +0.000 OA
ATOM      3  O   UNL     1     -18.304   8.696   1.175  0.00  0.00    +0.000 OA
ATOM      4  N   UNL     1     -17.143   9.872  -0.844  0.00  0.00    +0.000 N 
ATOM      5  C   UNL     1     -16.846   7.246  -0.408  0.00  0.00    +0.000 A 
ATOM      6  C   UNL     1     -16.149   7.285  -1.614  0.00  0.00    +0.000 A 
ATOM      7  C   UNL     1     -16.054   9.765  -1.774  0.00  0.00    +0.000 C 
ATOM      8  C   UNL     1     -15.585   8.547  -2.131  0.00  0.00    +0.000 C 
ATOM      9  C   UNL     1     -17.404   6.078   0.100  0.00  0.00    +0.000 A 
ATOM     10  C   UNL     1     -18.438  10.051  -1.523  0.00  0.00    +0.000 C 
ATOM     11  C   UNL     1     -15.982   6.082  -2.302  0.00  0.00    +0.000 A 
ATOM     12  C   UNL     1     -17.237   4.895  -0.610  0.00  0.00    +0.000 A 
ATOM     13  C   UNL     1     -16.522   4.894  -1.806  0.00  0.00    +0.000 A 
ENDROOT
BRANCH   7  14
ATOM     14  C   UNL     1     -15.449  11.025  -2.318  0.00  0.00    +0.000 C 
ATOM     15  O   UNL     1     -14.840  11.777  -1.560  0.00  0.00    +0.000 OA
ATOM     16  N   UNL     1     -15.644  11.230  -3.660  0.00  0.00    +0.000 N 
ATOM     17  H   UNL     1     -16.102  10.525  -4.227  0.00  0.00    +0.000 HD
BRANCH  16  18
ATOM     18  C   UNL     1     -15.211  12.329  -4.403  0.00  0.00    +0.000 A 
ATOM     19  N   UNL     1     -16.128  13.309  -4.529  0.00  0.00    +0.000 NA
ATOM     20  C   UNL     1     -15.759  14.401  -5.238  0.00  0.00    +0.000 A 
ATOM     21  C   UNL     1     -14.518  14.567  -5.826  0.00  0.00    +0.000 A 
ATOM     22  C   UNL     1     -13.597  13.541  -5.675  0.00  0.00    +0.000 A 
ATOM     23  C   UNL     1     -13.940  12.403  -4.955  0.00  0.00    +0.000 A 
ENDBRANCH  16  18
ENDBRANCH   7  14
BRANCH   8  24
ATOM     24  O   UNL     1     -14.543   8.356  -3.022  0.00  0.00    +0.000 OA
ATOM     25  H   UNL     1     -14.900   8.264  -3.935  0.00  0.00    +0.000 HD
ENDBRANCH   8  24
TORSDOF 3
ENDMDL
MODEL 6
REMARK VINA RESULT:      -5.2     20.542     22.635
REMARK  Name = Piroxicam.pdbqt.pdb
REMARK  3 active torsions:
REMARK  status: ('A' for Active; 'I' for Inactive)
REMARK    1  A    between atoms: C_7  and  C_14
REMARK    2  A    between atoms: C_8  and  O_24
REMARK    3  A    between atoms: N_16  and  C_18
REMARK                            x       y       z     vdW  Elec       q    Type
REMARK                         _______ _______ _______ _____ _____    ______ ____
ROOT
ATOM      1  S   UNL     1     -22.949   3.795  19.625  0.00  0.00    +0.000 S 
ATOM      2  O   UNL     1     -23.779   4.986  19.620  0.00  0.00    +0.000 OA
ATOM      3  O   UNL     1     -23.230   2.700  20.532  0.00  0.00    +0.000 OA
ATOM      4  N   UNL     1     -22.813   3.216  18.008  0.00  0.00    +0.000 N 
ATOM      5  C   UNL     1     -21.311   4.337  19.922  0.00  0.00    +0.000 A 
ATOM      6  C   UNL     1     -20.596   4.849  18.841  0.00  0.00    +0.000 A 
ATOM      7  C   UNL     1     -22.243   4.173  17.103  0.00  0.00    +0.000 C 
ATOM      8  C   UNL     1     -21.203   4.944  17.499  0.00  0.00    +0.000 C 
ATOM      9  C   UNL     1     -20.765   4.218  21.195  0.00  0.00    +0.000 A 
ATOM     10  C   UNL     1     -22.285   1.859  17.788  0.00  0.00    +0.000 C 
ATOM     11  C   UNL     1     -19.293   5.290  19.080  0.00  0.00    +0.000 A 
ATOM     12  C   UNL     1     -19.462   4.652  21.406  0.00  0.00    +0.000 A 
ATOM     13  C   UNL     1     -18.728   5.193  20.352  0.00  0.00    +0.000 A 
ENDROOT
BRANCH   7  14
ATOM     14  C   UNL     1     -22.834   4.305  15.732  0.00  0.00    +0.000 C 
ATOM     15  O   UNL     1     -22.088   4.335  14.754  0.00  0.00    +0.000 OA
ATOM     16  N   UNL     1     -24.202   4.391  15.695  0.00  0.00    +0.000 N 
ATOM     17  H   UNL     1     -24.747   4.292  16.544  0.00  0.00    +0.000 HD
BRANCH  16  18
ATOM     18  C   UNL     1     -24.994   4.547  14.557  0.00  0.00    +0.000 A 
ATOM     19  N   UNL     1     -25.263   3.396  13.906  0.00  0.00    +0.000 NA
ATOM     20  C   UNL     1     -26.031   3.489  12.796  0.00  0.00    +0.000 A 
ATOM     21  C   UNL     1     -26.549   4.673  12.302  0.00  0.00    +0.000 A 
ATOM     22  C   UNL     1     -26.255   5.838  12.997  0.00  0.00    +0.000 A 
ATOM     23  C   UNL     1     -25.468   5.782  14.141  0.00  0.00    +0.000 A 
ENDBRANCH  16  18
ENDBRANCH   7  14
BRANCH   8  24
ATOM     24  O   UNL     1     -20.593   5.887  16.689  0.00  0.00    +0.000 OA
ATOM     25  H   UNL     1     -20.112   6.540  17.246  0.00  0.00    +0.000 HD
ENDBRANCH   8  24
TORSDOF 3
ENDMDL
MODEL 7
REMARK VINA RESULT:      -5.0     21.545     22.403
REMARK  Name = Piroxicam.pdbqt.pdb
REMARK  3 active torsions:
REMARK  status: ('A' for Active; 'I' for Inactive)
REMARK    1  A    between atoms: C_7  and  C_14
REMARK    2  A    between atoms: C_8  and  O_24
REMARK    3  A    between atoms: N_16  and  C_18
REMARK                            x       y       z     vdW  Elec       q    Type
REMARK                         _______ _______ _______ _____ _____    ______ ____
ROOT
ATOM      1  S   UNL     1      -7.272   3.871  16.282  0.00  0.00    +0.000 S 
ATOM      2  O   UNL     1      -7.176   3.926  14.835  0.00  0.00    +0.000 OA
ATOM      3  O   UNL     1      -7.780   2.687  16.947  0.00  0.00    +0.000 OA
ATOM      4  N   UNL     1      -5.750   4.327  16.949  0.00  0.00    +0.000 N 
ATOM      5  C   UNL     1      -8.265   5.231  16.763  0.00  0.00    +0.000 A 
ATOM      6  C   UNL     1      -7.654   6.481  16.835  0.00  0.00    +0.000 A 
ATOM      7  C   UNL     1      -5.327   5.644  16.563  0.00  0.00    +0.000 C 
ATOM      8  C   UNL     1      -6.226   6.654  16.505  0.00  0.00    +0.000 C 
ATOM      9  C   UNL     1      -9.603   5.028  17.082  0.00  0.00    +0.000 A 
ATOM     10  C   UNL     1      -5.495   4.057  18.374  0.00  0.00    +0.000 C 
ATOM     11  C   UNL     1      -8.448   7.566  17.209  0.00  0.00    +0.000 A 
ATOM     12  C   UNL     1     -10.370   6.122  17.464  0.00  0.00    +0.000 A 
ATOM     13  C   UNL     1      -9.797   7.391  17.522  0.00  0.00    +0.000 A 
ENDROOT
BRANCH   7  14
ATOM     14  C   UNL     1      -3.885   5.861  16.213  0.00  0.00    +0.000 C 
ATOM     15  O   UNL     1      -3.256   6.752  16.780  0.00  0.00    +0.000 OA
ATOM     16  N   UNL     1      -3.387   5.018  15.253  0.00  0.00    +0.000 N 
ATOM     17  H   UNL     1      -3.957   4.266  14.883  0.00  0.00    +0.000 HD
BRANCH  16  18
ATOM     18  C   UNL     1      -2.093   5.027  14.730  0.00  0.00    +0.000 A 
ATOM     19  N   UNL     1      -1.269   4.108  15.273  0.00  0.00    +0.000 NA
ATOM     20  C   UNL     1      -0.002   4.070  14.800  0.00  0.00    +0.000 A 
ATOM     21  C   UNL     1       0.485   4.903  13.808  0.00  0.00    +0.000 A 
ATOM     22  C   UNL     1      -0.389   5.835  13.269  0.00  0.00    +0.000 A 
ATOM     23  C   UNL     1      -1.698   5.904  13.731  0.00  0.00    +0.000 A 
ENDBRANCH  16  18
ENDBRANCH   7  14
BRANCH   8  24
ATOM     24  O   UNL     1      -5.901   7.951  16.146  0.00  0.00    +0.000 OA
ATOM     25  H   UNL     1      -5.193   8.292  16.739  0.00  0.00    +0.000 HD
ENDBRANCH   8  24
TORSDOF 3
ENDMDL
MODEL 8
REMARK VINA RESULT:      -4.9     22.727     25.857
REMARK  Name = Piroxicam.pdbqt.pdb
REMARK  3 active torsions:
REMARK  status: ('A' for Active; 'I' for Inactive)
REMARK    1  A    between atoms: C_7  and  C_14
REMARK    2  A    between atoms: C_8  and  O_24
REMARK    3  A    between atoms: N_16  and  C_18
REMARK                            x       y       z     vdW  Elec       q    Type
REMARK                         _______ _______ _______ _____ _____    ______ ____
ROOT
ATOM      1  S   UNL     1     -11.299   2.830  20.139  0.00  0.00    +0.000 S 
ATOM      2  O   UNL     1     -10.279   2.834  21.172  0.00  0.00    +0.000 OA
ATOM      3  O   UNL     1     -11.521   1.652  19.323  0.00  0.00    +0.000 OA
ATOM      4  N   UNL     1     -12.780   3.370  20.832  0.00  0.00    +0.000 N 
ATOM      5  C   UNL     1     -10.924   4.166  19.071  0.00  0.00    +0.000 A 
ATOM      6  C   UNL     1     -11.317   5.441  19.474  0.00  0.00    +0.000 A 
ATOM      7  C   UNL     1     -12.702   4.686  21.398  0.00  0.00    +0.000 C 
ATOM      8  C   UNL     1     -12.008   5.658  20.759  0.00  0.00    +0.000 C 
ATOM      9  C   UNL     1     -10.287   3.923  17.860  0.00  0.00    +0.000 A 
ATOM     10  C   UNL     1     -14.028   3.163  20.076  0.00  0.00    +0.000 C 
ATOM     11  C   UNL     1     -11.010   6.507  18.627  0.00  0.00    +0.000 A 
ATOM     12  C   UNL     1     -10.004   4.999  17.028  0.00  0.00    +0.000 A 
ATOM     13  C   UNL     1     -10.359   6.290  17.412  0.00  0.00    +0.000 A 
ENDROOT
BRANCH   7  14
ATOM     14  C   UNL     1     -13.386   4.947  22.707  0.00  0.00    +0.000 C 
ATOM     15  O   UNL     1     -12.751   5.461  23.626  0.00  0.00    +0.000 OA
ATOM     16  N   UNL     1     -14.702   4.568  22.760  0.00  0.00    +0.000 N 
ATOM     17  H   UNL     1     -15.169   4.211  21.933  0.00  0.00    +0.000 HD
BRANCH  16  18
ATOM     18  C   UNL     1     -15.553   4.674  23.861  0.00  0.00    +0.000 A 
ATOM     19  N   UNL     1     -16.477   5.650  23.756  0.00  0.00    +0.000 NA
ATOM     20  C   UNL     1     -17.331   5.795  24.795  0.00  0.00    +0.000 A 
ATOM     21  C   UNL     1     -17.313   5.011  25.935  0.00  0.00    +0.000 A 
ATOM     22  C   UNL     1     -16.352   4.013  26.010  0.00  0.00    +0.000 A 
ATOM     23  C   UNL     1     -15.456   3.835  24.962  0.00  0.00    +0.000 A 
ENDBRANCH  16  18
ENDBRANCH   7  14
BRANCH   8  24
ATOM     24  O   UNL     1     -11.886   6.953  21.234  0.00  0.00    +0.000 OA
ATOM     25  H   UNL     1     -11.733   7.569  20.481  0.00  0.00    +0.000 HD
ENDBRANCH   8  24
TORSDOF 3
ENDMDL
MODEL 9
REMARK VINA RESULT:      -4.9     10.789     12.886
REMARK  Name = Piroxicam.pdbqt.pdb
REMARK  3 active torsions:
REMARK  status: ('A' for Active; 'I' for Inactive)
REMARK    1  A    between atoms: C_7  and  C_14
REMARK    2  A    between atoms: C_8  and  O_24
REMARK    3  A    between atoms: N_16  and  C_18
REMARK                            x       y       z     vdW  Elec       q    Type
REMARK                         _______ _______ _______ _____ _____    ______ ____
ROOT
ATOM      1  S   UNL     1      -3.797  15.619   1.007  0.00  0.00    +0.000 S 
ATOM      2  O   UNL     1      -4.266  14.684   2.013  0.00  0.00    +0.000 OA
ATOM      3  O   UNL     1      -2.667  16.487   1.273  0.00  0.00    +0.000 OA
ATOM      4  N   UNL     1      -3.564  14.764  -0.470  0.00  0.00    +0.000 N 
ATOM      5  C   UNL     1      -5.169  16.627   0.595  0.00  0.00    +0.000 A 
ATOM      6  C   UNL     1      -6.102  16.108  -0.301  0.00  0.00    +0.000 A 
ATOM      7  C   UNL     1      -4.754  14.122  -0.954  0.00  0.00    +0.000 C 
ATOM      8  C   UNL     1      -5.947  14.755  -0.869  0.00  0.00    +0.000 C 
ATOM      9  C   UNL     1      -5.274  17.903   1.136  0.00  0.00    +0.000 A 
ATOM     10  C   UNL     1      -2.806  15.418  -1.551  0.00  0.00    +0.000 C 
ATOM     11  C   UNL     1      -7.200  16.908  -0.623  0.00  0.00    +0.000 A 
ATOM     12  C   UNL     1      -6.370  18.685   0.790  0.00  0.00    +0.000 A 
ATOM     13  C   UNL     1      -7.335  18.188  -0.082  0.00  0.00    +0.000 A 
ENDROOT
BRANCH   7  14
ATOM     14  C   UNL     1      -4.641  12.744  -1.533  0.00  0.00    +0.000 C 
ATOM     15  O   UNL     1      -5.429  12.391  -2.408  0.00  0.00    +0.000 OA
ATOM     16  N   UNL     1      -3.635  11.974  -1.007  0.00  0.00    +0.000 N 
ATOM     17  H   UNL     1      -2.986  12.365  -0.334  0.00  0.00    +0.000 HD
BRANCH  16  18
ATOM     18  C   UNL     1      -3.334  10.655  -1.349  0.00  0.00    +0.000 A 
ATOM     19  N   UNL     1      -3.270   9.811  -0.299  0.00  0.00    +0.000 NA
ATOM     20  C   UNL     1      -2.986   8.517  -0.573  0.00  0.00    +0.000 A 
ATOM     21  C   UNL     1      -2.765   8.020  -1.845  0.00  0.00    +0.000 A 
ATOM     22  C   UNL     1      -2.840   8.914  -2.903  0.00  0.00    +0.000 A 
ATOM     23  C   UNL     1      -3.129  10.251  -2.660  0.00  0.00    +0.000 A 
ENDBRANCH  16  18
ENDBRANCH   7  14
BRANCH   8  24
ATOM     24  O   UNL     1      -7.139  14.209  -1.314  0.00  0.00    +0.000 OA
ATOM     25  H   UNL     1      -7.852  14.393  -0.660  0.00  0.00    +0.000 HD
ENDBRANCH   8  24
TORSDOF 3
ENDMDL
