MODEL 1
REMARK VINA RESULT:      -6.2      0.000      0.000
REMARK  Name = PKR_Inhibitor.pdbqt.pdb
REMARK  0 active torsions:
REMARK  status: ('A' for Active; 'I' for Inactive)
REMARK                            x       y       z     vdW  Elec       q    Type
REMARK                         _______ _______ _______ _____ _____    ______ ____
ROOT
ATOM      1  S   UNL     1     -16.624   7.046  -2.445  0.00  0.00    +0.000 S 
ATOM      2  O   UNL     1     -14.070  12.204  -1.897  0.00  0.00    +0.000 OA
ATOM      3  N   UNL     1     -15.117  11.096  -0.113  0.00  0.00    +0.000 N 
ATOM      4  N   UNL     1     -17.643   6.221  -0.197  0.00  0.00    +0.000 NA
ATOM      5  C   UNL     1     -15.844   9.191  -1.137  0.00  0.00    +0.000 A 
ATOM      6  C   UNL     1     -15.793   9.902   0.088  0.00  0.00    +0.000 A 
ATOM      7  C   UNL     1     -15.141  10.030  -2.148  0.00  0.00    +0.000 C 
ATOM      8  C   UNL     1     -16.483   7.997  -1.083  0.00  0.00    +0.000 A 
ATOM      9  C   UNL     1     -14.684  11.264  -1.429  0.00  0.00    +0.000 C 
ATOM     10  C   UNL     1     -17.061   7.454   0.044  0.00  0.00    +0.000 A 
ATOM     11  C   UNL     1     -16.339   9.460   1.290  0.00  0.00    +0.000 A 
ATOM     12  C   UNL     1     -14.923   9.816  -3.407  0.00  0.00    +0.000 C 
ATOM     13  C   UNL     1     -16.983   8.202   1.242  0.00  0.00    +0.000 A 
ATOM     14  C   UNL     1     -17.468   5.918  -1.467  0.00  0.00    +0.000 A 
ATOM     15  H   UNL     1     -14.941  11.788   0.602  0.00  0.00    +0.000 HD
ATOM     16  C   UNL     1     -14.646   9.658  -4.785  0.00  0.00    +0.000 C 
ATOM     17  N   UNL     1     -13.970  10.561  -5.558  0.00  0.00    +0.000 N 
ATOM     18  C   UNL     1     -13.904  10.053  -6.825  0.00  0.00    +0.000 C 
ATOM     19  H   UNL     1     -13.586  11.445  -5.254  0.00  0.00    +0.000 HD
ATOM     20  N   UNL     1     -14.497   8.882  -6.904  0.00  0.00    +0.000 NA
ATOM     21  C   UNL     1     -14.964   8.626  -5.637  0.00  0.00    +0.000 C 
ENDROOT
TORSDOF 0
ENDMDL
MODEL 2
REMARK VINA RESULT:      -6.2     20.103     21.191
REMARK  Name = PKR_Inhibitor.pdbqt.pdb
REMARK  0 active torsions:
REMARK  status: ('A' for Active; 'I' for Inactive)
REMARK                            x       y       z     vdW  Elec       q    Type
REMARK                         _______ _______ _______ _____ _____    ______ ____
ROOT
ATOM      1  S   UNL     1     -24.016   6.118  15.734  0.00  0.00    +0.000 S 
ATOM      2  O   UNL     1     -19.440   4.406  18.825  0.00  0.00    +0.000 OA
ATOM      3  N   UNL     1     -19.903   6.658  18.361  0.00  0.00    +0.000 N 
ATOM      4  N   UNL     1     -24.109   8.707  15.486  0.00  0.00    +0.000 NA
ATOM      5  C   UNL     1     -21.818   6.476  17.134  0.00  0.00    +0.000 A 
ATOM      6  C   UNL     1     -20.872   7.379  17.680  0.00  0.00    +0.000 A 
ATOM      7  C   UNL     1     -21.374   5.107  17.520  0.00  0.00    +0.000 C 
ATOM      8  C   UNL     1     -22.827   7.052  16.437  0.00  0.00    +0.000 A 
ATOM      9  C   UNL     1     -20.118   5.280  18.322  0.00  0.00    +0.000 C 
ATOM     10  C   UNL     1     -22.985   8.406  16.237  0.00  0.00    +0.000 A 
ATOM     11  C   UNL     1     -20.923   8.764  17.547  0.00  0.00    +0.000 A 
ATOM     12  C   UNL     1     -21.902   3.953  17.263  0.00  0.00    +0.000 C 
ATOM     13  C   UNL     1     -22.015   9.267  16.803  0.00  0.00    +0.000 A 
ATOM     14  C   UNL     1     -24.716   7.580  15.175  0.00  0.00    +0.000 A 
ATOM     15  H   UNL     1     -19.113   7.065  18.843  0.00  0.00    +0.000 HD
ATOM     16  C   UNL     1     -22.415   2.656  17.024  0.00  0.00    +0.000 C 
ATOM     17  N   UNL     1     -21.852   1.495  17.475  0.00  0.00    +0.000 N 
ATOM     18  C   UNL     1     -22.634   0.460  17.043  0.00  0.00    +0.000 C 
ATOM     19  H   UNL     1     -21.010   1.409  18.028  0.00  0.00    +0.000 HD
ATOM     20  N   UNL     1     -23.660   0.895  16.345  0.00  0.00    +0.000 NA
ATOM     21  C   UNL     1     -23.533   2.263  16.326  0.00  0.00    +0.000 C 
ENDROOT
TORSDOF 0
ENDMDL
MODEL 3
REMARK VINA RESULT:      -5.8      1.871      5.323
REMARK  Name = PKR_Inhibitor.pdbqt.pdb
REMARK  0 active torsions:
REMARK  status: ('A' for Active; 'I' for Inactive)
REMARK                            x       y       z     vdW  Elec       q    Type
REMARK                         _______ _______ _______ _____ _____    ______ ____
ROOT
ATOM      1  S   UNL     1     -15.535   8.023  -3.843  0.00  0.00    +0.000 S 
ATOM      2  O   UNL     1     -16.776   8.437   1.788  0.00  0.00    +0.000 OA
ATOM      3  N   UNL     1     -15.755  10.163   0.571  0.00  0.00    +0.000 N 
ATOM      4  N   UNL     1     -14.410  10.186  -4.753  0.00  0.00    +0.000 NA
ATOM      5  C   UNL     1     -15.623   9.226  -1.506  0.00  0.00    +0.000 A 
ATOM      6  C   UNL     1     -15.338  10.380  -0.733  0.00  0.00    +0.000 A 
ATOM      7  C   UNL     1     -16.261   8.243  -0.585  0.00  0.00    +0.000 C 
ATOM      8  C   UNL     1     -15.263   9.303  -2.809  0.00  0.00    +0.000 A 
ATOM      9  C   UNL     1     -16.325   8.903   0.760  0.00  0.00    +0.000 C 
ATOM     10  C   UNL     1     -14.663  10.390  -3.407  0.00  0.00    +0.000 A 
ATOM     11  C   UNL     1     -14.736  11.537  -1.221  0.00  0.00    +0.000 A 
ATOM     12  C   UNL     1     -16.700   7.046  -0.813  0.00  0.00    +0.000 C 
ATOM     13  C   UNL     1     -14.400  11.518  -2.594  0.00  0.00    +0.000 A 
ATOM     14  C   UNL     1     -14.828   8.980  -5.078  0.00  0.00    +0.000 A 
ATOM     15  H   UNL     1     -15.667  10.831   1.324  0.00  0.00    +0.000 HD
ATOM     16  C   UNL     1     -17.202   5.734  -0.981  0.00  0.00    +0.000 C 
ATOM     17  N   UNL     1     -17.765   4.978   0.008  0.00  0.00    +0.000 N 
ATOM     18  C   UNL     1     -18.124   3.778  -0.541  0.00  0.00    +0.000 C 
ATOM     19  H   UNL     1     -17.896   5.249   0.974  0.00  0.00    +0.000 HD
ATOM     20  N   UNL     1     -17.822   3.728  -1.820  0.00  0.00    +0.000 NA
ATOM     21  C   UNL     1     -17.246   4.942  -2.105  0.00  0.00    +0.000 C 
ENDROOT
TORSDOF 0
ENDMDL
MODEL 4
REMARK VINA RESULT:      -5.3     19.896     20.539
REMARK  Name = PKR_Inhibitor.pdbqt.pdb
REMARK  0 active torsions:
REMARK  status: ('A' for Active; 'I' for Inactive)
REMARK                            x       y       z     vdW  Elec       q    Type
REMARK                         _______ _______ _______ _____ _____    ______ ____
ROOT
ATOM      1  S   UNL     1     -23.409   3.821  16.642  0.00  0.00    +0.000 S 
ATOM      2  O   UNL     1     -24.052   9.371  15.157  0.00  0.00    +0.000 OA
ATOM      3  N   UNL     1     -22.218   8.577  16.386  0.00  0.00    +0.000 N 
ATOM      4  N   UNL     1     -21.223   3.423  17.997  0.00  0.00    +0.000 NA
ATOM      5  C   UNL     1     -22.713   6.355  16.541  0.00  0.00    +0.000 A 
ATOM      6  C   UNL     1     -21.777   7.362  16.886  0.00  0.00    +0.000 A 
ATOM      7  C   UNL     1     -23.799   7.027  15.773  0.00  0.00    +0.000 C 
ATOM      8  C   UNL     1     -22.403   5.109  16.971  0.00  0.00    +0.000 A 
ATOM      9  C   UNL     1     -23.429   8.479  15.699  0.00  0.00    +0.000 C 
ATOM     10  C   UNL     1     -21.279   4.773  17.694  0.00  0.00    +0.000 A 
ATOM     11  C   UNL     1     -20.608   7.148  17.611  0.00  0.00    +0.000 A 
ATOM     12  C   UNL     1     -24.875   6.539  15.243  0.00  0.00    +0.000 C 
ATOM     13  C   UNL     1     -20.374   5.813  18.014  0.00  0.00    +0.000 A 
ATOM     14  C   UNL     1     -22.290   2.838  17.491  0.00  0.00    +0.000 A 
ATOM     15  H   UNL     1     -21.732   9.457  16.494  0.00  0.00    +0.000 HD
ATOM     16  C   UNL     1     -26.070   6.083  14.637  0.00  0.00    +0.000 C 
ATOM     17  N   UNL     1     -26.956   6.872  13.960  0.00  0.00    +0.000 N 
ATOM     18  C   UNL     1     -27.976   6.071  13.526  0.00  0.00    +0.000 C 
ATOM     19  H   UNL     1     -26.879   7.868  13.805  0.00  0.00    +0.000 HD
ATOM     20  N   UNL     1     -27.789   4.821  13.886  0.00  0.00    +0.000 NA
ATOM     21  C   UNL     1     -26.603   4.816  14.581  0.00  0.00    +0.000 C 
ENDROOT
TORSDOF 0
ENDMDL
MODEL 5
REMARK VINA RESULT:      -5.3     25.164     28.144
REMARK  Name = PKR_Inhibitor.pdbqt.pdb
REMARK  0 active torsions:
REMARK  status: ('A' for Active; 'I' for Inactive)
REMARK                            x       y       z     vdW  Elec       q    Type
REMARK                         _______ _______ _______ _____ _____    ______ ____
ROOT
ATOM      1  S   UNL     1     -12.104  18.006  21.855  0.00  0.00    +0.000 S 
ATOM      2  O   UNL     1     -15.173  18.030  26.754  0.00  0.00    +0.000 OA
ATOM      3  N   UNL     1     -15.951  18.969  24.750  0.00  0.00    +0.000 N 
ATOM      4  N   UNL     1     -13.379  19.161  19.903  0.00  0.00    +0.000 NA
ATOM      5  C   UNL     1     -14.197  18.552  23.352  0.00  0.00    +0.000 A 
ATOM      6  C   UNL     1     -15.489  19.126  23.452  0.00  0.00    +0.000 A 
ATOM      7  C   UNL     1     -13.864  18.010  24.700  0.00  0.00    +0.000 C 
ATOM      8  C   UNL     1     -13.623  18.636  22.128  0.00  0.00    +0.000 A 
ATOM      9  C   UNL     1     -15.043  18.308  25.578  0.00  0.00    +0.000 C 
ATOM     10  C   UNL     1     -14.196  19.221  21.019  0.00  0.00    +0.000 A 
ATOM     11  C   UNL     1     -16.170  19.743  22.407  0.00  0.00    +0.000 A 
ATOM     12  C   UNL     1     -12.803  17.396  25.116  0.00  0.00    +0.000 C 
ATOM     13  C   UNL     1     -15.487  19.780  21.169  0.00  0.00    +0.000 A 
ATOM     14  C   UNL     1     -12.263  18.545  20.235  0.00  0.00    +0.000 A 
ATOM     15  H   UNL     1     -16.849  19.290  25.086  0.00  0.00    +0.000 HD
ATOM     16  C   UNL     1     -11.679  16.720  25.647  0.00  0.00    +0.000 C 
ATOM     17  N   UNL     1     -11.560  16.292  26.940  0.00  0.00    +0.000 N 
ATOM     18  C   UNL     1     -10.340  15.688  27.065  0.00  0.00    +0.000 C 
ATOM     19  H   UNL     1     -12.245  16.399  27.675  0.00  0.00    +0.000 HD
ATOM     20  N   UNL     1      -9.677  15.707  25.930  0.00  0.00    +0.000 NA
ATOM     21  C   UNL     1     -10.503  16.348  25.038  0.00  0.00    +0.000 C 
ENDROOT
TORSDOF 0
ENDMDL
MODEL 6
REMARK VINA RESULT:      -5.2     20.739     22.682
REMARK  Name = PKR_Inhibitor.pdbqt.pdb
REMARK  0 active torsions:
REMARK  status: ('A' for Active; 'I' for Inactive)
REMARK                            x       y       z     vdW  Elec       q    Type
REMARK                         _______ _______ _______ _____ _____    ______ ____
ROOT
ATOM      1  S   UNL     1     -24.793   6.414  17.907  0.00  0.00    +0.000 S 
ATOM      2  O   UNL     1     -19.339   4.969  19.167  0.00  0.00    +0.000 OA
ATOM      3  N   UNL     1     -19.919   6.977  18.101  0.00  0.00    +0.000 N 
ATOM      4  N   UNL     1     -24.939   8.730  16.730  0.00  0.00    +0.000 NA
ATOM      5  C   UNL     1     -22.189   6.777  17.980  0.00  0.00    +0.000 A 
ATOM      6  C   UNL     1     -21.079   7.604  17.673  0.00  0.00    +0.000 A 
ATOM      7  C   UNL     1     -21.644   5.560  18.644  0.00  0.00    +0.000 C 
ATOM      8  C   UNL     1     -23.395   7.273  17.612  0.00  0.00    +0.000 A 
ATOM      9  C   UNL     1     -20.155   5.739  18.700  0.00  0.00    +0.000 C 
ATOM     10  C   UNL     1     -23.601   8.483  16.985  0.00  0.00    +0.000 A 
ATOM     11  C   UNL     1     -21.159   8.843  17.043  0.00  0.00    +0.000 A 
ATOM     12  C   UNL     1     -22.254   4.517  19.109  0.00  0.00    +0.000 C 
ATOM     13  C   UNL     1     -22.462   9.272  16.700  0.00  0.00    +0.000 A 
ATOM     14  C   UNL     1     -25.644   7.710  17.174  0.00  0.00    +0.000 A 
ATOM     15  H   UNL     1     -18.987   7.356  18.002  0.00  0.00    +0.000 HD
ATOM     16  C   UNL     1     -22.845   3.345  19.639  0.00  0.00    +0.000 C 
ATOM     17  N   UNL     1     -22.160   2.317  20.224  0.00  0.00    +0.000 N 
ATOM     18  C   UNL     1     -23.074   1.375  20.607  0.00  0.00    +0.000 C 
ATOM     19  H   UNL     1     -21.159   2.256  20.354  0.00  0.00    +0.000 HD
ATOM     20  N   UNL     1     -24.298   1.744  20.300  0.00  0.00    +0.000 NA
ATOM     21  C   UNL     1     -24.167   2.971  19.696  0.00  0.00    +0.000 C 
ENDROOT
TORSDOF 0
ENDMDL
MODEL 7
REMARK VINA RESULT:      -5.1     24.713     26.531
REMARK  Name = PKR_Inhibitor.pdbqt.pdb
REMARK  0 active torsions:
REMARK  status: ('A' for Active; 'I' for Inactive)
REMARK                            x       y       z     vdW  Elec       q    Type
REMARK                         _______ _______ _______ _____ _____    ______ ____
ROOT
ATOM      1  S   UNL     1     -12.123  16.683  24.617  0.00  0.00    +0.000 S 
ATOM      2  O   UNL     1     -12.871  19.061  19.400  0.00  0.00    +0.000 OA
ATOM      3  N   UNL     1     -14.387  19.346  21.167  0.00  0.00    +0.000 N 
ATOM      4  N   UNL     1     -14.063  17.281  26.245  0.00  0.00    +0.000 NA
ATOM      5  C   UNL     1     -13.386  18.124  22.815  0.00  0.00    +0.000 A 
ATOM      6  C   UNL     1     -14.503  18.933  22.486  0.00  0.00    +0.000 A 
ATOM      7  C   UNL     1     -12.538  18.050  21.591  0.00  0.00    +0.000 C 
ATOM      8  C   UNL     1     -13.373  17.649  24.083  0.00  0.00    +0.000 A 
ATOM      9  C   UNL     1     -13.235  18.865  20.543  0.00  0.00    +0.000 C 
ATOM     10  C   UNL     1     -14.339  17.895  25.035  0.00  0.00    +0.000 A 
ATOM     11  C   UNL     1     -15.540  19.252  23.358  0.00  0.00    +0.000 A 
ATOM     12  C   UNL     1     -11.417  17.435  21.387  0.00  0.00    +0.000 C 
ATOM     13  C   UNL     1     -15.434  18.709  24.659  0.00  0.00    +0.000 A 
ATOM     14  C   UNL     1     -12.927  16.623  26.130  0.00  0.00    +0.000 A 
ATOM     15  H   UNL     1     -15.053  19.934  20.686  0.00  0.00    +0.000 HD
ATOM     16  C   UNL     1     -10.194  16.791  21.084  0.00  0.00    +0.000 C 
ATOM     17  N   UNL     1      -9.558  16.845  19.875  0.00  0.00    +0.000 N 
ATOM     18  C   UNL     1      -8.415  16.103  19.975  0.00  0.00    +0.000 C 
ATOM     19  H   UNL     1      -9.870  17.342  19.052  0.00  0.00    +0.000 HD
ATOM     20  N   UNL     1      -8.286  15.581  21.175  0.00  0.00    +0.000 NA
ATOM     21  C   UNL     1      -9.391  16.003  21.875  0.00  0.00    +0.000 C 
ENDROOT
TORSDOF 0
ENDMDL
MODEL 8
REMARK VINA RESULT:      -5.1     20.219     21.698
REMARK  Name = PKR_Inhibitor.pdbqt.pdb
REMARK  0 active torsions:
REMARK  status: ('A' for Active; 'I' for Inactive)
REMARK                            x       y       z     vdW  Elec       q    Type
REMARK                         _______ _______ _______ _____ _____    ______ ____
ROOT
ATOM      1  S   UNL     1     -25.990   6.157  16.204  0.00  0.00    +0.000 S 
ATOM      2  O   UNL     1     -21.756   9.496  18.292  0.00  0.00    +0.000 OA
ATOM      3  N   UNL     1     -21.367   7.418  17.273  0.00  0.00    +0.000 N 
ATOM      4  N   UNL     1     -25.071   3.953  15.170  0.00  0.00    +0.000 NA
ATOM      5  C   UNL     1     -23.492   6.773  16.748  0.00  0.00    +0.000 A 
ATOM      6  C   UNL     1     -22.122   6.411  16.692  0.00  0.00    +0.000 A 
ATOM      7  C   UNL     1     -23.555   8.103  17.418  0.00  0.00    +0.000 C 
ATOM      8  C   UNL     1     -24.347   5.871  16.211  0.00  0.00    +0.000 A 
ATOM      9  C   UNL     1     -22.140   8.481  17.741  0.00  0.00    +0.000 C 
ATOM     10  C   UNL     1     -23.984   4.673  15.636  0.00  0.00    +0.000 A 
ATOM     11  C   UNL     1     -21.632   5.232  16.139  0.00  0.00    +0.000 A 
ATOM     12  C   UNL     1     -24.574   8.849  17.701  0.00  0.00    +0.000 C 
ATOM     13  C   UNL     1     -22.605   4.357  15.604  0.00  0.00    +0.000 A 
ATOM     14  C   UNL     1     -26.165   4.643  15.418  0.00  0.00    +0.000 A 
ATOM     15  H   UNL     1     -20.360   7.407  17.361  0.00  0.00    +0.000 HD
ATOM     16  C   UNL     1     -25.635   9.720  18.046  0.00  0.00    +0.000 C 
ATOM     17  N   UNL     1     -25.487  10.927  18.670  0.00  0.00    +0.000 N 
ATOM     18  C   UNL     1     -26.733  11.466  18.829  0.00  0.00    +0.000 C 
ATOM     19  H   UNL     1     -24.618  11.350  18.965  0.00  0.00    +0.000 HD
ATOM     20  N   UNL     1     -27.663  10.674  18.342  0.00  0.00    +0.000 NA
ATOM     21  C   UNL     1     -26.990   9.582  17.852  0.00  0.00    +0.000 C 
ENDROOT
TORSDOF 0
ENDMDL
MODEL 9
REMARK VINA RESULT:      -5.0     20.770     21.583
REMARK  Name = PKR_Inhibitor.pdbqt.pdb
REMARK  0 active torsions:
REMARK  status: ('A' for Active; 'I' for Inactive)
REMARK                            x       y       z     vdW  Elec       q    Type
REMARK                         _______ _______ _______ _____ _____    ______ ____
ROOT
ATOM      1  S   UNL     1     -24.068   4.014  16.192  0.00  0.00    +0.000 S 
ATOM      2  O   UNL     1     -19.461   5.561  19.325  0.00  0.00    +0.000 OA
ATOM      3  N   UNL     1     -20.060   3.325  18.944  0.00  0.00    +0.000 N 
ATOM      4  N   UNL     1     -24.323   1.429  16.049  0.00  0.00    +0.000 NA
ATOM      5  C   UNL     1     -21.930   3.576  17.660  0.00  0.00    +0.000 A 
ATOM      6  C   UNL     1     -21.058   2.639  18.269  0.00  0.00    +0.000 A 
ATOM      7  C   UNL     1     -21.407   4.930  18.002  0.00  0.00    +0.000 C 
ATOM      8  C   UNL     1     -22.959   3.037  16.963  0.00  0.00    +0.000 A 
ATOM      9  C   UNL     1     -20.184   4.711  18.842  0.00  0.00    +0.000 C 
ATOM     10  C   UNL     1     -23.200   1.688  16.815  0.00  0.00    +0.000 A 
ATOM     11  C   UNL     1     -21.196   1.256  18.191  0.00  0.00    +0.000 A 
ATOM     12  C   UNL     1     -21.852   6.103  17.682  0.00  0.00    +0.000 C 
ATOM     13  C   UNL     1     -22.301   0.792  17.440  0.00  0.00    +0.000 A 
ATOM     14  C   UNL     1     -24.849   2.578  15.675  0.00  0.00    +0.000 A 
ATOM     15  H   UNL     1     -19.309   2.890  19.462  0.00  0.00    +0.000 HD
ATOM     16  C   UNL     1     -22.274   7.419  17.378  0.00  0.00    +0.000 C 
ATOM     17  N   UNL     1     -21.645   8.560  17.792  0.00  0.00    +0.000 N 
ATOM     18  C   UNL     1     -22.349   9.623  17.298  0.00  0.00    +0.000 C 
ATOM     19  H   UNL     1     -20.811   8.615  18.361  0.00  0.00    +0.000 HD
ATOM     20  N   UNL     1     -23.386   9.225  16.595  0.00  0.00    +0.000 NA
ATOM     21  C   UNL     1     -23.350   7.852  16.638  0.00  0.00    +0.000 C 
ENDROOT
TORSDOF 0
ENDMDL
