MODEL 1
REMARK VINA RESULT:      -6.1      0.000      0.000
REMARK  Name = 
REMARK  14 active torsions:
REMARK  status: ('A' for Active; 'I' for Inactive)
REMARK    1  A    between atoms: O_1  and  C_14
REMARK    2  A    between atoms: O_1  and  C_15
REMARK    3  A    between atoms: O_4  and  C_16
REMARK    4  A    between atoms: O_5  and  C_18
REMARK    5  A    between atoms: O_6  and  C_26
REMARK    6  A    between atoms: O_7  and  C_29
REMARK    7  A    between atoms: O_8  and  C_35
REMARK    8  A    between atoms: O_9  and  C_36
REMARK    9  A    between atoms: O_10  and  C_39
REMARK   10  A    between atoms: O_11  and  C_40
REMARK   11  A    between atoms: O_12  and  C_41
REMARK   12  A    between atoms: O_13  and  C_43
REMARK   13  A    between atoms: C_14  and  C_20
REMARK   14  A    between atoms: C_17  and  C_24
REMARK                            x       y       z     vdW  Elec       q    Type
REMARK                         _______ _______ _______ _____ _____    ______ ____
ROOT
ATOM      1  O   UNL     1     -22.609  17.552   5.741  0.00  0.00    +0.000 OA
ATOM      2  C   UNL     1     -23.709  17.209   6.595  0.00  0.00    +0.000 C 
ATOM      3  C   UNL     1     -24.759  18.361   6.648  0.00  0.00    +0.000 C 
ATOM      4  C   UNL     1     -24.098  19.667   7.077  0.00  0.00    +0.000 C 
ATOM      5  C   UNL     1     -22.837  19.918   6.305  0.00  0.00    +0.000 A 
ATOM      6  C   UNL     1     -22.174  18.847   5.701  0.00  0.00    +0.000 A 
ATOM      7  C   UNL     1     -22.267  21.196   6.199  0.00  0.00    +0.000 A 
ATOM      8  C   UNL     1     -20.985  19.053   4.997  0.00  0.00    +0.000 A 
ATOM      9  C   UNL     1     -21.073  21.408   5.516  0.00  0.00    +0.000 A 
ATOM     10  C   UNL     1     -20.442  20.330   4.914  0.00  0.00    +0.000 A 
ENDROOT
BRANCH   2  11
ATOM     11  C   UNL     1     -23.265  16.801   8.013  0.00  0.00    +0.000 A 
ATOM     12  C   UNL     1     -21.997  16.218   8.230  0.00  0.00    +0.000 A 
ATOM     13  C   UNL     1     -24.099  17.011   9.132  0.00  0.00    +0.000 A 
ATOM     14  C   UNL     1     -21.601  15.855   9.514  0.00  0.00    +0.000 A 
ATOM     15  C   UNL     1     -23.698  16.629  10.416  0.00  0.00    +0.000 A 
ATOM     16  C   UNL     1     -22.456  16.049  10.593  0.00  0.00    +0.000 A 
BRANCH  14  17
ATOM     17  O   UNL     1     -20.377  15.307   9.776  0.00  0.00    +0.000 OA
ATOM     18  H   UNL     1     -19.720  16.021   9.901  0.00  0.00    +0.000 HD
ENDBRANCH  14  17
BRANCH  16  19
ATOM     19  O   UNL     1     -22.062  15.680  11.847  0.00  0.00    +0.000 OA
ATOM     20  H   UNL     1     -21.411  16.362  12.109  0.00  0.00    +0.000 HD
ENDBRANCH  16  19
ENDBRANCH   2  11
BRANCH   3  21
ATOM     21  O   UNL     1     -25.401  18.574   5.359  0.00  0.00    +0.000 OA
ATOM     22  H   UNL     1     -26.229  18.054   5.402  0.00  0.00    +0.000 HD
ENDBRANCH   3  21
BRANCH   4  23
ATOM     23  O   UNL     1     -25.011  20.758   6.867  0.00  0.00    +0.000 OA
ATOM     24  H   UNL     1     -25.887  20.321   6.773  0.00  0.00    +0.000 HD
ENDBRANCH   4  23
BRANCH   7  25
ATOM     25  O   UNL     1     -22.868  22.298   6.745  0.00  0.00    +0.000 OA
ATOM     26  H   UNL     1     -22.392  22.503   7.580  0.00  0.00    +0.000 HD
ENDBRANCH   7  25
BRANCH  10  27
ATOM     27  O   UNL     1     -19.274  20.483   4.226  0.00  0.00    +0.000 OA
ATOM     28  H   UNL     1     -19.446  21.042   3.450  0.00  0.00    +0.000 HD
ENDBRANCH  10  27
BRANCH   2  29
ATOM     29  O   UNL     1     -24.447  16.120   5.971  0.00  0.00    +0.000 OA
BRANCH  29  31
ATOM     30  O   UNL     1     -23.522  12.754   4.728  0.00  0.00    +0.000 OA
ATOM     31  C   UNL     1     -23.688  15.180   5.185  0.00  0.00    +0.000 C 
ATOM     32  C   UNL     1     -24.272  13.764   5.418  0.00  0.00    +0.000 C 
ATOM     33  C   UNL     1     -23.790  15.480   3.686  0.00  0.00    +0.000 C 
ATOM     34  C   UNL     1     -23.442  14.288   2.838  0.00  0.00    +0.000 A 
ATOM     35  C   UNL     1     -23.327  13.013   3.399  0.00  0.00    +0.000 A 
ATOM     36  C   UNL     1     -23.233  14.431   1.461  0.00  0.00    +0.000 A 
ATOM     37  C   UNL     1     -22.966  11.915   2.614  0.00  0.00    +0.000 A 
ATOM     38  C   UNL     1     -22.888  13.341   0.664  0.00  0.00    +0.000 A 
ATOM     39  C   UNL     1     -22.752  12.091   1.252  0.00  0.00    +0.000 A 
BRANCH  32  40
ATOM     40  C   UNL     1     -24.271  13.405   6.897  0.00  0.00    +0.000 A 
ATOM     41  C   UNL     1     -23.164  12.774   7.487  0.00  0.00    +0.000 A 
ATOM     42  C   UNL     1     -25.355  13.780   7.711  0.00  0.00    +0.000 A 
ATOM     43  C   UNL     1     -23.131  12.572   8.865  0.00  0.00    +0.000 A 
ATOM     44  C   UNL     1     -25.324  13.557   9.090  0.00  0.00    +0.000 A 
ATOM     45  C   UNL     1     -24.202  12.967   9.664  0.00  0.00    +0.000 A 
BRANCH  43  46
ATOM     46  O   UNL     1     -22.017  12.046   9.456  0.00  0.00    +0.000 OA
ATOM     47  H   UNL     1     -21.332  11.912   8.780  0.00  0.00    +0.000 HD
ENDBRANCH  43  46
BRANCH  45  48
ATOM     48  O   UNL     1     -24.124  12.797  11.016  0.00  0.00    +0.000 OA
ATOM     49  H   UNL     1     -23.280  12.367  11.234  0.00  0.00    +0.000 HD
ENDBRANCH  45  48
ENDBRANCH  32  40
BRANCH  36  50
ATOM     50  O   UNL     1     -23.369  15.672   0.905  0.00  0.00    +0.000 OA
ATOM     51  H   UNL     1     -22.492  16.087   0.841  0.00  0.00    +0.000 HD
ENDBRANCH  36  50
BRANCH  39  52
ATOM     52  O   UNL     1     -22.406  11.045   0.447  0.00  0.00    +0.000 OA
ATOM     53  H   UNL     1     -21.449  11.084   0.279  0.00  0.00    +0.000 HD
ENDBRANCH  39  52
ENDBRANCH  29  31
ENDBRANCH   2  29
TORSDOF 14
ENDMDL
MODEL 2
REMARK VINA RESULT:      -6.1     19.177     21.823
REMARK  Name = 
REMARK  14 active torsions:
REMARK  status: ('A' for Active; 'I' for Inactive)
REMARK    1  A    between atoms: O_1  and  C_14
REMARK    2  A    between atoms: O_1  and  C_15
REMARK    3  A    between atoms: O_4  and  C_16
REMARK    4  A    between atoms: O_5  and  C_18
REMARK    5  A    between atoms: O_6  and  C_26
REMARK    6  A    between atoms: O_7  and  C_29
REMARK    7  A    between atoms: O_8  and  C_35
REMARK    8  A    between atoms: O_9  and  C_36
REMARK    9  A    between atoms: O_10  and  C_39
REMARK   10  A    between atoms: O_11  and  C_40
REMARK   11  A    between atoms: O_12  and  C_41
REMARK   12  A    between atoms: O_13  and  C_43
REMARK   13  A    between atoms: C_14  and  C_20
REMARK   14  A    between atoms: C_17  and  C_24
REMARK                            x       y       z     vdW  Elec       q    Type
REMARK                         _______ _______ _______ _____ _____    ______ ____
ROOT
ATOM      1  O   UNL     1      -3.210  16.870   2.069  0.00  0.00    +0.000 OA
ATOM      2  C   UNL     1      -2.535  15.793   2.733  0.00  0.00    +0.000 C 
ATOM      3  C   UNL     1      -3.260  15.406   4.057  0.00  0.00    +0.000 C 
ATOM      4  C   UNL     1      -3.403  16.625   4.964  0.00  0.00    +0.000 C 
ATOM      5  C   UNL     1      -3.933  17.807   4.208  0.00  0.00    +0.000 A 
ATOM      6  C   UNL     1      -3.791  17.855   2.818  0.00  0.00    +0.000 A 
ATOM      7  C   UNL     1      -4.535  18.898   4.851  0.00  0.00    +0.000 A 
ATOM      8  C   UNL     1      -4.256  18.957   2.095  0.00  0.00    +0.000 A 
ATOM      9  C   UNL     1      -4.983  20.009   4.141  0.00  0.00    +0.000 A 
ATOM     10  C   UNL     1      -4.842  20.026   2.762  0.00  0.00    +0.000 A 
ENDROOT
BRANCH   2  11
ATOM     11  C   UNL     1      -1.043  16.084   2.985  0.00  0.00    +0.000 A 
ATOM     12  C   UNL     1      -0.308  15.320   3.919  0.00  0.00    +0.000 A 
ATOM     13  C   UNL     1      -0.365  17.105   2.285  0.00  0.00    +0.000 A 
ATOM     14  C   UNL     1       1.039  15.587   4.140  0.00  0.00    +0.000 A 
ATOM     15  C   UNL     1       0.986  17.375   2.525  0.00  0.00    +0.000 A 
ATOM     16  C   UNL     1       1.673  16.617   3.455  0.00  0.00    +0.000 A 
BRANCH  14  17
ATOM     17  O   UNL     1       1.795  14.862   5.018  0.00  0.00    +0.000 OA
ATOM     18  H   UNL     1       2.261  15.470   5.628  0.00  0.00    +0.000 HD
ENDBRANCH  14  17
BRANCH  16  19
ATOM     19  O   UNL     1       2.993  16.877   3.687  0.00  0.00    +0.000 OA
ATOM     20  H   UNL     1       3.183  16.433   4.538  0.00  0.00    +0.000 HD
ENDBRANCH  16  19
ENDBRANCH   2  11
BRANCH   3  21
ATOM     21  O   UNL     1      -4.587  14.858   3.814  0.00  0.00    +0.000 OA
ATOM     22  H   UNL     1      -4.605  14.663   2.855  0.00  0.00    +0.000 HD
ENDBRANCH   3  21
BRANCH   4  23
ATOM     23  O   UNL     1      -4.295  16.314   6.048  0.00  0.00    +0.000 OA
ATOM     24  H   UNL     1      -3.837  15.592   6.534  0.00  0.00    +0.000 HD
ENDBRANCH   4  23
BRANCH   7  25
ATOM     25  O   UNL     1      -4.728  18.915   6.207  0.00  0.00    +0.000 OA
ATOM     26  H   UNL     1      -5.067  19.808   6.439  0.00  0.00    +0.000 HD
ENDBRANCH   7  25
BRANCH  10  27
ATOM     27  O   UNL     1      -5.272  21.085   2.016  0.00  0.00    +0.000 OA
ATOM     28  H   UNL     1      -6.241  21.045   1.956  0.00  0.00    +0.000 HD
ENDBRANCH  10  27
BRANCH   2  29
ATOM     29  O   UNL     1      -2.679  14.596   1.917  0.00  0.00    +0.000 OA
BRANCH  29  31
ATOM     30  O   UNL     1      -2.351  13.936  -1.714  0.00  0.00    +0.000 OA
ATOM     31  C   UNL     1      -2.984  14.786   0.521  0.00  0.00    +0.000 C 
ATOM     32  C   UNL     1      -2.163  13.763  -0.303  0.00  0.00    +0.000 C 
ATOM     33  C   UNL     1      -4.465  14.533   0.225  0.00  0.00    +0.000 C 
ATOM     34  C   UNL     1      -4.718  14.243  -1.229  0.00  0.00    +0.000 A 
ATOM     35  C   UNL     1      -3.663  13.968  -2.103  0.00  0.00    +0.000 A 
ATOM     36  C   UNL     1      -6.023  14.236  -1.737  0.00  0.00    +0.000 A 
ATOM     37  C   UNL     1      -3.899  13.738  -3.460  0.00  0.00    +0.000 A 
ATOM     38  C   UNL     1      -6.273  13.991  -3.085  0.00  0.00    +0.000 A 
ATOM     39  C   UNL     1      -5.204  13.750  -3.938  0.00  0.00    +0.000 A 
BRANCH  32  40
ATOM     40  C   UNL     1      -0.673  13.898  -0.020  0.00  0.00    +0.000 A 
ATOM     41  C   UNL     1       0.081  14.930  -0.600  0.00  0.00    +0.000 A 
ATOM     42  C   UNL     1      -0.051  13.032   0.898  0.00  0.00    +0.000 A 
ATOM     43  C   UNL     1       1.411  15.114  -0.227  0.00  0.00    +0.000 A 
ATOM     44  C   UNL     1       1.288  13.210   1.253  0.00  0.00    +0.000 A 
ATOM     45  C   UNL     1       2.010  14.262   0.699  0.00  0.00    +0.000 A 
BRANCH  43  46
ATOM     46  O   UNL     1       2.122  16.173  -0.715  0.00  0.00    +0.000 OA
ATOM     47  H   UNL     1       2.150  16.874  -0.043  0.00  0.00    +0.000 HD
ENDBRANCH  43  46
BRANCH  45  48
ATOM     48  O   UNL     1       3.302  14.492   1.079  0.00  0.00    +0.000 OA
ATOM     49  H   UNL     1       3.477  14.021   1.909  0.00  0.00    +0.000 HD
ENDBRANCH  45  48
ENDBRANCH  32  40
BRANCH  36  50
ATOM     50  O   UNL     1      -7.060  14.480  -0.879  0.00  0.00    +0.000 OA
ATOM     51  H   UNL     1      -7.798  14.866  -1.380  0.00  0.00    +0.000 HD
ENDBRANCH  36  50
BRANCH  39  52
ATOM     52  O   UNL     1      -5.481  13.521  -5.254  0.00  0.00    +0.000 OA
ATOM     53  H   UNL     1      -6.446  13.528  -5.375  0.00  0.00    +0.000 HD
ENDBRANCH  39  52
ENDBRANCH  29  31
ENDBRANCH   2  29
TORSDOF 14
ENDMDL
MODEL 3
REMARK VINA RESULT:      -6.1     17.694     22.555
REMARK  Name = 
REMARK  14 active torsions:
REMARK  status: ('A' for Active; 'I' for Inactive)
REMARK    1  A    between atoms: O_1  and  C_14
REMARK    2  A    between atoms: O_1  and  C_15
REMARK    3  A    between atoms: O_4  and  C_16
REMARK    4  A    between atoms: O_5  and  C_18
REMARK    5  A    between atoms: O_6  and  C_26
REMARK    6  A    between atoms: O_7  and  C_29
REMARK    7  A    between atoms: O_8  and  C_35
REMARK    8  A    between atoms: O_9  and  C_36
REMARK    9  A    between atoms: O_10  and  C_39
REMARK   10  A    between atoms: O_11  and  C_40
REMARK   11  A    between atoms: O_12  and  C_41
REMARK   12  A    between atoms: O_13  and  C_43
REMARK   13  A    between atoms: C_14  and  C_20
REMARK   14  A    between atoms: C_17  and  C_24
REMARK                            x       y       z     vdW  Elec       q    Type
REMARK                         _______ _______ _______ _____ _____    ______ ____
ROOT
ATOM      1  O   UNL     1     -14.422  18.938  24.322  0.00  0.00    +0.000 OA
ATOM      2  C   UNL     1     -13.069  19.398  24.446  0.00  0.00    +0.000 C 
ATOM      3  C   UNL     1     -12.919  20.855  23.912  0.00  0.00    +0.000 C 
ATOM      4  C   UNL     1     -13.417  20.950  22.473  0.00  0.00    +0.000 C 
ATOM      5  C   UNL     1     -14.755  20.292  22.315  0.00  0.00    +0.000 A 
ATOM      6  C   UNL     1     -15.161  19.326  23.239  0.00  0.00    +0.000 A 
ATOM      7  C   UNL     1     -15.608  20.580  21.239  0.00  0.00    +0.000 A 
ATOM      8  C   UNL     1     -16.393  18.683  23.099  0.00  0.00    +0.000 A 
ATOM      9  C   UNL     1     -16.829  19.930  21.080  0.00  0.00    +0.000 A 
ATOM     10  C   UNL     1     -17.214  18.985  22.019  0.00  0.00    +0.000 A 
ENDROOT
BRANCH   2  11
ATOM     11  C   UNL     1     -12.050  18.457  23.775  0.00  0.00    +0.000 A 
ATOM     12  C   UNL     1     -10.679  18.793  23.733  0.00  0.00    +0.000 A 
ATOM     13  C   UNL     1     -12.451  17.232  23.199  0.00  0.00    +0.000 A 
ATOM     14  C   UNL     1      -9.764  17.937  23.127  0.00  0.00    +0.000 A 
ATOM     15  C   UNL     1     -11.526  16.386  22.580  0.00  0.00    +0.000 A 
ATOM     16  C   UNL     1     -10.193  16.750  22.544  0.00  0.00    +0.000 A 
BRANCH  14  17
ATOM     17  O   UNL     1      -8.426  18.208  23.080  0.00  0.00    +0.000 OA
ATOM     18  H   UNL     1      -8.240  18.809  22.330  0.00  0.00    +0.000 HD
ENDBRANCH  14  17
BRANCH  16  19
ATOM     19  O   UNL     1      -9.289  15.921  21.943  0.00  0.00    +0.000 OA
ATOM     20  H   UNL     1      -9.540  15.933  20.997  0.00  0.00    +0.000 HD
ENDBRANCH  16  19
ENDBRANCH   2  11
BRANCH   3  21
ATOM     21  O   UNL     1     -13.664  21.812  24.719  0.00  0.00    +0.000 OA
ATOM     22  H   UNL     1     -12.981  22.299  25.223  0.00  0.00    +0.000 HD
ENDBRANCH   3  21
BRANCH   4  23
ATOM     23  O   UNL     1     -13.517  22.333  22.091  0.00  0.00    +0.000 OA
ATOM     24  H   UNL     1     -13.761  22.794  22.924  0.00  0.00    +0.000 HD
ENDBRANCH   4  23
BRANCH   7  25
ATOM     25  O   UNL     1     -15.290  21.529  20.304  0.00  0.00    +0.000 OA
ATOM     26  H   UNL     1     -15.964  21.470  19.592  0.00  0.00    +0.000 HD
ENDBRANCH   7  25
BRANCH  10  27
ATOM     27  O   UNL     1     -18.403  18.324  21.917  0.00  0.00    +0.000 OA
ATOM     28  H   UNL     1     -18.869  18.651  21.129  0.00  0.00    +0.000 HD
ENDBRANCH  10  27
BRANCH   2  29
ATOM     29  O   UNL     1     -12.764  19.534  25.863  0.00  0.00    +0.000 OA
BRANCH  29  31
ATOM     30  O   UNL     1     -13.966  17.528  28.736  0.00  0.00    +0.000 OA
ATOM     31  C   UNL     1     -13.748  19.046  26.796  0.00  0.00    +0.000 C 
ATOM     32  C   UNL     1     -13.040  18.119  27.815  0.00  0.00    +0.000 C 
ATOM     33  C   UNL     1     -14.397  20.187  27.585  0.00  0.00    +0.000 C 
ATOM     34  C   UNL     1     -15.037  19.712  28.860  0.00  0.00    +0.000 A 
ATOM     35  C   UNL     1     -14.791  18.427  29.354  0.00  0.00    +0.000 A 
ATOM     36  C   UNL     1     -15.890  20.553  29.585  0.00  0.00    +0.000 A 
ATOM     37  C   UNL     1     -15.418  17.976  30.518  0.00  0.00    +0.000 A 
ATOM     38  C   UNL     1     -16.508  20.120  30.756  0.00  0.00    +0.000 A 
ATOM     39  C   UNL     1     -16.270  18.829  31.210  0.00  0.00    +0.000 A 
BRANCH  32  40
ATOM     40  C   UNL     1     -12.309  16.984  27.110  0.00  0.00    +0.000 A 
ATOM     41  C   UNL     1     -10.909  16.981  27.006  0.00  0.00    +0.000 A 
ATOM     42  C   UNL     1     -13.031  15.879  26.625  0.00  0.00    +0.000 A 
ATOM     43  C   UNL     1     -10.253  15.873  26.473  0.00  0.00    +0.000 A 
ATOM     44  C   UNL     1     -12.368  14.779  26.074  0.00  0.00    +0.000 A 
ATOM     45  C   UNL     1     -10.978  14.775  26.015  0.00  0.00    +0.000 A 
BRANCH  43  46
ATOM     46  O   UNL     1      -8.888  15.824  26.458  0.00  0.00    +0.000 OA
ATOM     47  H   UNL     1      -8.549  16.142  27.311  0.00  0.00    +0.000 HD
ENDBRANCH  43  46
BRANCH  45  48
ATOM     48  O   UNL     1     -10.308  13.685  25.539  0.00  0.00    +0.000 OA
ATOM     49  H   UNL     1     -10.771  13.344  24.756  0.00  0.00    +0.000 HD
ENDBRANCH  45  48
ENDBRANCH  32  40
BRANCH  36  50
ATOM     50  O   UNL     1     -16.113  21.818  29.118  0.00  0.00    +0.000 OA
ATOM     51  H   UNL     1     -15.393  22.061  28.511  0.00  0.00    +0.000 HD
ENDBRANCH  36  50
BRANCH  39  52
ATOM     52  O   UNL     1     -16.896  18.433  32.355  0.00  0.00    +0.000 OA
ATOM     53  H   UNL     1     -16.736  19.100  33.045  0.00  0.00    +0.000 HD
ENDBRANCH  39  52
ENDBRANCH  29  31
ENDBRANCH   2  29
TORSDOF 14
ENDMDL
MODEL 4
REMARK VINA RESULT:      -6.0     12.821     15.431
REMARK  Name = 
REMARK  14 active torsions:
REMARK  status: ('A' for Active; 'I' for Inactive)
REMARK    1  A    between atoms: O_1  and  C_14
REMARK    2  A    between atoms: O_1  and  C_15
REMARK    3  A    between atoms: O_4  and  C_16
REMARK    4  A    between atoms: O_5  and  C_18
REMARK    5  A    between atoms: O_6  and  C_26
REMARK    6  A    between atoms: O_7  and  C_29
REMARK    7  A    between atoms: O_8  and  C_35
REMARK    8  A    between atoms: O_9  and  C_36
REMARK    9  A    between atoms: O_10  and  C_39
REMARK   10  A    between atoms: O_11  and  C_40
REMARK   11  A    between atoms: O_12  and  C_41
REMARK   12  A    between atoms: O_13  and  C_43
REMARK   13  A    between atoms: C_14  and  C_20
REMARK   14  A    between atoms: C_17  and  C_24
REMARK                            x       y       z     vdW  Elec       q    Type
REMARK                         _______ _______ _______ _____ _____    ______ ____
ROOT
ATOM      1  O   UNL     1     -24.260   6.047  16.864  0.00  0.00    +0.000 OA
ATOM      2  C   UNL     1     -25.665   6.170  17.127  0.00  0.00    +0.000 C 
ATOM      3  C   UNL     1     -26.180   7.598  16.769  0.00  0.00    +0.000 C 
ATOM      4  C   UNL     1     -25.373   8.659  17.510  0.00  0.00    +0.000 C 
ATOM      5  C   UNL     1     -23.900   8.407  17.388  0.00  0.00    +0.000 A 
ATOM      6  C   UNL     1     -23.443   7.121  17.086  0.00  0.00    +0.000 A 
ATOM      7  C   UNL     1     -22.947   9.413  17.608  0.00  0.00    +0.000 A 
ATOM      8  C   UNL     1     -22.075   6.857  16.989  0.00  0.00    +0.000 A 
ATOM      9  C   UNL     1     -21.581   9.156  17.534  0.00  0.00    +0.000 A 
ATOM     10  C   UNL     1     -21.156   7.874  17.219  0.00  0.00    +0.000 A 
ENDROOT
BRANCH   2  11
ATOM     11  C   UNL     1     -26.041   5.795  18.573  0.00  0.00    +0.000 A 
ATOM     12  C   UNL     1     -25.042   5.437  19.507  0.00  0.00    +0.000 A 
ATOM     13  C   UNL     1     -27.382   5.811  19.011  0.00  0.00    +0.000 A 
ATOM     14  C   UNL     1     -25.389   5.101  20.811  0.00  0.00    +0.000 A 
ATOM     15  C   UNL     1     -27.721   5.458  20.320  0.00  0.00    +0.000 A 
ATOM     16  C   UNL     1     -26.722   5.099  21.206  0.00  0.00    +0.000 A 
BRANCH  14  17
ATOM     17  O   UNL     1     -24.458   4.768  21.755  0.00  0.00    +0.000 OA
ATOM     18  H   UNL     1     -24.807   4.975  22.645  0.00  0.00    +0.000 HD
ENDBRANCH  14  17
BRANCH  16  19
ATOM     19  O   UNL     1     -27.052   4.759  22.486  0.00  0.00    +0.000 OA
ATOM     20  H   UNL     1     -27.686   4.020  22.385  0.00  0.00    +0.000 HD
ENDBRANCH  16  19
ENDBRANCH   2  11
BRANCH   3  21
ATOM     21  O   UNL     1     -26.091   7.869  15.341  0.00  0.00    +0.000 OA
ATOM     22  H   UNL     1     -25.509   8.653  15.270  0.00  0.00    +0.000 HD
ENDBRANCH   3  21
BRANCH   4  23
ATOM     23  O   UNL     1     -25.681   9.957  16.974  0.00  0.00    +0.000 OA
ATOM     24  H   UNL     1     -26.047   9.767  16.082  0.00  0.00    +0.000 HD
ENDBRANCH   4  23
BRANCH   7  25
ATOM     25  O   UNL     1     -23.317  10.702  17.887  0.00  0.00    +0.000 OA
ATOM     26  H   UNL     1     -22.505  11.182  18.163  0.00  0.00    +0.000 HD
ENDBRANCH   7  25
BRANCH  10  27
ATOM     27  O   UNL     1     -19.829   7.568  17.124  0.00  0.00    +0.000 OA
ATOM     28  H   UNL     1     -19.685   7.078  16.297  0.00  0.00    +0.000 HD
ENDBRANCH  10  27
BRANCH   2  29
ATOM     29  O   UNL     1     -26.379   5.318  16.188  0.00  0.00    +0.000 OA
BRANCH  29  31
ATOM     30  O   UNL     1     -25.383   2.094  14.657  0.00  0.00    +0.000 OA
ATOM     31  C   UNL     1     -25.583   4.462  15.344  0.00  0.00    +0.000 C 
ATOM     32  C   UNL     1     -26.166   3.028  15.412  0.00  0.00    +0.000 C 
ATOM     33  C   UNL     1     -25.630   4.908  13.879  0.00  0.00    +0.000 C 
ATOM     34  C   UNL     1     -25.241   3.807  12.931  0.00  0.00    +0.000 A 
ATOM     35  C   UNL     1     -25.139   2.483  13.368  0.00  0.00    +0.000 A 
ATOM     36  C   UNL     1     -24.980   4.087  11.584  0.00  0.00    +0.000 A 
ATOM     37  C   UNL     1     -24.740   1.469  12.494  0.00  0.00    +0.000 A 
ATOM     38  C   UNL     1     -24.597   3.082  10.698  0.00  0.00    +0.000 A 
ATOM     39  C   UNL     1     -24.475   1.780  11.165  0.00  0.00    +0.000 A 
BRANCH  32  40
ATOM     40  C   UNL     1     -26.220   2.525  16.848  0.00  0.00    +0.000 A 
ATOM     41  C   UNL     1     -25.042   2.264  17.567  0.00  0.00    +0.000 A 
ATOM     42  C   UNL     1     -27.459   2.394  17.501  0.00  0.00    +0.000 A 
ATOM     43  C   UNL     1     -25.111   1.929  18.917  0.00  0.00    +0.000 A 
ATOM     44  C   UNL     1     -27.523   2.039  18.850  0.00  0.00    +0.000 A 
ATOM     45  C   UNL     1     -26.344   1.823  19.558  0.00  0.00    +0.000 A 
BRANCH  43  46
ATOM     46  O   UNL     1     -23.967   1.768  19.645  0.00  0.00    +0.000 OA
ATOM     47  H   UNL     1     -23.662   0.849  19.559  0.00  0.00    +0.000 HD
ENDBRANCH  43  46
BRANCH  45  48
ATOM     48  O   UNL     1     -26.380   1.537  20.893  0.00  0.00    +0.000 OA
ATOM     49  H   UNL     1     -26.822   0.682  21.022  0.00  0.00    +0.000 HD
ENDBRANCH  45  48
ENDBRANCH  32  40
BRANCH  36  50
ATOM     50  O   UNL     1     -25.103   5.376  11.148  0.00  0.00    +0.000 OA
ATOM     51  H   UNL     1     -26.025   5.661  11.265  0.00  0.00    +0.000 HD
ENDBRANCH  36  50
BRANCH  39  52
ATOM     52  O   UNL     1     -24.091   0.820  10.274  0.00  0.00    +0.000 OA
ATOM     53  H   UNL     1     -24.187  -0.052  10.694  0.00  0.00    +0.000 HD
ENDBRANCH  39  52
ENDBRANCH  29  31
ENDBRANCH   2  29
TORSDOF 14
ENDMDL
MODEL 5
REMARK VINA RESULT:      -5.9     20.108     22.907
REMARK  Name = 
REMARK  14 active torsions:
REMARK  status: ('A' for Active; 'I' for Inactive)
REMARK    1  A    between atoms: O_1  and  C_14
REMARK    2  A    between atoms: O_1  and  C_15
REMARK    3  A    between atoms: O_4  and  C_16
REMARK    4  A    between atoms: O_5  and  C_18
REMARK    5  A    between atoms: O_6  and  C_26
REMARK    6  A    between atoms: O_7  and  C_29
REMARK    7  A    between atoms: O_8  and  C_35
REMARK    8  A    between atoms: O_9  and  C_36
REMARK    9  A    between atoms: O_10  and  C_39
REMARK   10  A    between atoms: O_11  and  C_40
REMARK   11  A    between atoms: O_12  and  C_41
REMARK   12  A    between atoms: O_13  and  C_43
REMARK   13  A    between atoms: C_14  and  C_20
REMARK   14  A    between atoms: C_17  and  C_24
REMARK                            x       y       z     vdW  Elec       q    Type
REMARK                         _______ _______ _______ _____ _____    ______ ____
ROOT
ATOM      1  O   UNL     1      -9.503   5.044  19.708  0.00  0.00    +0.000 OA
ATOM      2  C   UNL     1      -9.657   6.452  19.480  0.00  0.00    +0.000 C 
ATOM      3  C   UNL     1      -9.956   6.748  17.979  0.00  0.00    +0.000 C 
ATOM      4  C   UNL     1      -8.870   6.150  17.090  0.00  0.00    +0.000 C 
ATOM      5  C   UNL     1      -8.581   4.727  17.467  0.00  0.00    +0.000 A 
ATOM      6  C   UNL     1      -8.905   4.275  18.749  0.00  0.00    +0.000 A 
ATOM      7  C   UNL     1      -7.952   3.833  16.588  0.00  0.00    +0.000 A 
ATOM      8  C   UNL     1      -8.623   2.961  19.131  0.00  0.00    +0.000 A 
ATOM      9  C   UNL     1      -7.649   2.528  16.966  0.00  0.00    +0.000 A 
ATOM     10  C   UNL     1      -7.994   2.100  18.239  0.00  0.00    +0.000 A 
ENDROOT
BRANCH   2  11
ATOM     11  C   UNL     1      -8.454   7.276  19.977  0.00  0.00    +0.000 A 
ATOM     12  C   UNL     1      -8.279   8.616  19.564  0.00  0.00    +0.000 A 
ATOM     13  C   UNL     1      -7.505   6.728  20.866  0.00  0.00    +0.000 A 
ATOM     14  C   UNL     1      -7.192   9.355  20.019  0.00  0.00    +0.000 A 
ATOM     15  C   UNL     1      -6.408   7.475  21.306  0.00  0.00    +0.000 A 
ATOM     16  C   UNL     1      -6.259   8.779  20.872  0.00  0.00    +0.000 A 
BRANCH  14  17
ATOM     17  O   UNL     1      -6.992  10.660  19.663  0.00  0.00    +0.000 OA
ATOM     18  H   UNL     1      -6.615  10.699  18.761  0.00  0.00    +0.000 HD
ENDBRANCH  14  17
BRANCH  16  19
ATOM     19  O   UNL     1      -5.190   9.510  21.305  0.00  0.00    +0.000 OA
ATOM     20  H   UNL     1      -4.564   8.843  21.654  0.00  0.00    +0.000 HD
ENDBRANCH  16  19
ENDBRANCH   2  11
BRANCH   3  21
ATOM     21  O   UNL     1     -11.241   6.208  17.561  0.00  0.00    +0.000 OA
ATOM     22  H   UNL     1     -11.243   5.285  17.886  0.00  0.00    +0.000 HD
ENDBRANCH   3  21
BRANCH   4  23
ATOM     23  O   UNL     1      -9.293   6.202  15.717  0.00  0.00    +0.000 OA
ATOM     24  H   UNL     1      -9.685   7.099  15.621  0.00  0.00    +0.000 HD
ENDBRANCH   4  23
BRANCH   7  25
ATOM     25  O   UNL     1      -7.624   4.195  15.309  0.00  0.00    +0.000 OA
ATOM     26  H   UNL     1      -6.894   4.850  15.373  0.00  0.00    +0.000 HD
ENDBRANCH   7  25
BRANCH  10  27
ATOM     27  O   UNL     1      -7.729   0.829  18.659  0.00  0.00    +0.000 OA
ATOM     28  H   UNL     1      -8.532   0.469  19.071  0.00  0.00    +0.000 HD
ENDBRANCH  10  27
BRANCH   2  29
ATOM     29  O   UNL     1     -10.873   6.890  20.150  0.00  0.00    +0.000 OA
BRANCH  29  31
ATOM     30  O   UNL     1     -11.961   6.839  23.692  0.00  0.00    +0.000 OA
ATOM     31  C   UNL     1     -11.186   6.269  21.412  0.00  0.00    +0.000 C 
ATOM     32  C   UNL     1     -11.698   7.363  22.383  0.00  0.00    +0.000 C 
ATOM     33  C   UNL     1     -12.298   5.224  21.270  0.00  0.00    +0.000 C 
ATOM     34  C   UNL     1     -12.974   4.923  22.580  0.00  0.00    +0.000 A 
ATOM     35  C   UNL     1     -12.767   5.734  23.700  0.00  0.00    +0.000 A 
ATOM     36  C   UNL     1     -13.833   3.824  22.702  0.00  0.00    +0.000 A 
ATOM     37  C   UNL     1     -13.366   5.429  24.924  0.00  0.00    +0.000 A 
ATOM     38  C   UNL     1     -14.449   3.519  23.913  0.00  0.00    +0.000 A 
ATOM     39  C   UNL     1     -14.204   4.324  25.018  0.00  0.00    +0.000 A 
BRANCH  32  40
ATOM     40  C   UNL     1     -10.677   8.483  22.535  0.00  0.00    +0.000 A 
ATOM     41  C   UNL     1     -10.851   9.712  21.879  0.00  0.00    +0.000 A 
ATOM     42  C   UNL     1      -9.586   8.324  23.408  0.00  0.00    +0.000 A 
ATOM     43  C   UNL     1      -9.975  10.766  22.133  0.00  0.00    +0.000 A 
ATOM     44  C   UNL     1      -8.701   9.379  23.644  0.00  0.00    +0.000 A 
ATOM     45  C   UNL     1      -8.910  10.602  23.016  0.00  0.00    +0.000 A 
BRANCH  43  46
ATOM     46  O   UNL     1     -10.194  11.991  21.572  0.00  0.00    +0.000 OA
ATOM     47  H   UNL     1     -10.368  11.880  20.622  0.00  0.00    +0.000 HD
ENDBRANCH  43  46
BRANCH  45  48
ATOM     48  O   UNL     1      -8.094  11.665  23.281  0.00  0.00    +0.000 OA
ATOM     49  H   UNL     1      -7.393  11.702  22.610  0.00  0.00    +0.000 HD
ENDBRANCH  45  48
ENDBRANCH  32  40
BRANCH  36  50
ATOM     50  O   UNL     1     -14.056   3.044  21.602  0.00  0.00    +0.000 OA
ATOM     51  H   UNL     1     -13.631   2.180  21.737  0.00  0.00    +0.000 HD
ENDBRANCH  36  50
BRANCH  39  52
ATOM     52  O   UNL     1     -14.817   3.994  26.192  0.00  0.00    +0.000 OA
ATOM     53  H   UNL     1     -14.388   3.200  26.554  0.00  0.00    +0.000 HD
ENDBRANCH  39  52
ENDBRANCH  29  31
ENDBRANCH   2  29
TORSDOF 14
ENDMDL
MODEL 6
REMARK VINA RESULT:      -5.9     18.370     22.856
REMARK  Name = 
REMARK  14 active torsions:
REMARK  status: ('A' for Active; 'I' for Inactive)
REMARK    1  A    between atoms: O_1  and  C_14
REMARK    2  A    between atoms: O_1  and  C_15
REMARK    3  A    between atoms: O_4  and  C_16
REMARK    4  A    between atoms: O_5  and  C_18
REMARK    5  A    between atoms: O_6  and  C_26
REMARK    6  A    between atoms: O_7  and  C_29
REMARK    7  A    between atoms: O_8  and  C_35
REMARK    8  A    between atoms: O_9  and  C_36
REMARK    9  A    between atoms: O_10  and  C_39
REMARK   10  A    between atoms: O_11  and  C_40
REMARK   11  A    between atoms: O_12  and  C_41
REMARK   12  A    between atoms: O_13  and  C_43
REMARK   13  A    between atoms: C_14  and  C_20
REMARK   14  A    between atoms: C_17  and  C_24
REMARK                            x       y       z     vdW  Elec       q    Type
REMARK                         _______ _______ _______ _____ _____    ______ ____
ROOT
ATOM      1  O   UNL     1     -11.209  16.032  24.732  0.00  0.00    +0.000 OA
ATOM      2  C   UNL     1     -10.868  16.929  25.798  0.00  0.00    +0.000 C 
ATOM      3  C   UNL     1      -9.489  17.609  25.540  0.00  0.00    +0.000 C 
ATOM      4  C   UNL     1      -8.407  16.556  25.322  0.00  0.00    +0.000 C 
ATOM      5  C   UNL     1      -8.854  15.510  24.344  0.00  0.00    +0.000 A 
ATOM      6  C   UNL     1     -10.220  15.312  24.124  0.00  0.00    +0.000 A 
ATOM      7  C   UNL     1      -7.946  14.685  23.663  0.00  0.00    +0.000 A 
ATOM      8  C   UNL     1     -10.660  14.328  23.235  0.00  0.00    +0.000 A 
ATOM      9  C   UNL     1      -8.376  13.689  22.791  0.00  0.00    +0.000 A 
ATOM     10  C   UNL     1      -9.737  13.522  22.580  0.00  0.00    +0.000 A 
ENDROOT
BRANCH   2  11
ATOM     11  C   UNL     1     -10.902  16.256  27.183  0.00  0.00    +0.000 A 
ATOM     12  C   UNL     1     -11.163  14.873  27.305  0.00  0.00    +0.000 A 
ATOM     13  C   UNL     1     -10.660  16.992  28.363  0.00  0.00    +0.000 A 
ATOM     14  C   UNL     1     -11.190  14.271  28.560  0.00  0.00    +0.000 A 
ATOM     15  C   UNL     1     -10.703  16.381  29.620  0.00  0.00    +0.000 A 
ATOM     16  C   UNL     1     -10.974  15.028  29.706  0.00  0.00    +0.000 A 
BRANCH  14  17
ATOM     17  O   UNL     1     -11.417  12.934  28.727  0.00  0.00    +0.000 OA
ATOM     18  H   UNL     1     -11.963  12.793  29.526  0.00  0.00    +0.000 HD
ENDBRANCH  14  17
BRANCH  16  19
ATOM     19  O   UNL     1     -11.012  14.429  30.933  0.00  0.00    +0.000 OA
ATOM     20  H   UNL     1     -10.435  13.644  30.838  0.00  0.00    +0.000 HD
ENDBRANCH  16  19
ENDBRANCH   2  11
BRANCH   3  21
ATOM     21  O   UNL     1      -9.519  18.483  24.376  0.00  0.00    +0.000 OA
ATOM     22  H   UNL     1      -9.779  19.359  24.727  0.00  0.00    +0.000 HD
ENDBRANCH   3  21
BRANCH   4  23
ATOM     23  O   UNL     1      -7.213  17.189  24.830  0.00  0.00    +0.000 OA
ATOM     24  H   UNL     1      -6.522  16.936  25.483  0.00  0.00    +0.000 HD
ENDBRANCH   4  23
BRANCH   7  25
ATOM     25  O   UNL     1      -6.593  14.833  23.810  0.00  0.00    +0.000 OA
ATOM     26  H   UNL     1      -6.209  13.931  23.871  0.00  0.00    +0.000 HD
ENDBRANCH   7  25
BRANCH  10  27
ATOM     27  O   UNL     1     -10.213  12.568  21.729  0.00  0.00    +0.000 OA
ATOM     28  H   UNL     1      -9.778  11.724  21.941  0.00  0.00    +0.000 HD
ENDBRANCH  10  27
BRANCH   2  29
ATOM     29  O   UNL     1     -11.798  18.049  25.764  0.00  0.00    +0.000 OA
BRANCH  29  31
ATOM     30  O   UNL     1     -15.443  18.333  25.162  0.00  0.00    +0.000 OA
ATOM     31  C   UNL     1     -13.017  17.867  25.018  0.00  0.00    +0.000 C 
ATOM     32  C   UNL     1     -14.175  18.535  25.801  0.00  0.00    +0.000 C 
ATOM     33  C   UNL     1     -12.946  18.536  23.641  0.00  0.00    +0.000 C 
ATOM     34  C   UNL     1     -14.307  18.790  23.056  0.00  0.00    +0.000 A 
ATOM     35  C   UNL     1     -15.461  18.673  23.836  0.00  0.00    +0.000 A 
ATOM     36  C   UNL     1     -14.447  19.158  21.712  0.00  0.00    +0.000 A 
ATOM     37  C   UNL     1     -16.726  18.872  23.279  0.00  0.00    +0.000 A 
ATOM     38  C   UNL     1     -15.702  19.375  21.148  0.00  0.00    +0.000 A 
ATOM     39  C   UNL     1     -16.834  19.223  21.938  0.00  0.00    +0.000 A 
BRANCH  32  40
ATOM     40  C   UNL     1     -14.280  17.974  27.213  0.00  0.00    +0.000 A 
ATOM     41  C   UNL     1     -14.503  16.606  27.431  0.00  0.00    +0.000 A 
ATOM     42  C   UNL     1     -14.069  18.816  28.320  0.00  0.00    +0.000 A 
ATOM     43  C   UNL     1     -14.466  16.093  28.726  0.00  0.00    +0.000 A 
ATOM     44  C   UNL     1     -14.052  18.299  29.617  0.00  0.00    +0.000 A 
ATOM     45  C   UNL     1     -14.236  16.934  29.813  0.00  0.00    +0.000 A 
BRANCH  43  46
ATOM     46  O   UNL     1     -14.588  14.749  28.938  0.00  0.00    +0.000 OA
ATOM     47  H   UNL     1     -14.487  14.566  29.887  0.00  0.00    +0.000 HD
ENDBRANCH  43  46
BRANCH  45  48
ATOM     48  O   UNL     1     -14.161  16.398  31.067  0.00  0.00    +0.000 OA
ATOM     49  H   UNL     1     -13.760  15.515  31.011  0.00  0.00    +0.000 HD
ENDBRANCH  45  48
ENDBRANCH  32  40
BRANCH  36  50
ATOM     50  O   UNL     1     -13.319  19.298  20.952  0.00  0.00    +0.000 OA
ATOM     51  H   UNL     1     -13.528  19.065  20.031  0.00  0.00    +0.000 HD
ENDBRANCH  36  50
BRANCH  39  52
ATOM     52  O   UNL     1     -18.049  19.436  21.354  0.00  0.00    +0.000 OA
ATOM     53  H   UNL     1     -18.429  18.576  21.104  0.00  0.00    +0.000 HD
ENDBRANCH  39  52
ENDBRANCH  29  31
ENDBRANCH   2  29
TORSDOF 14
ENDMDL
MODEL 7
REMARK VINA RESULT:      -5.9      2.033      6.123
REMARK  Name = 
REMARK  14 active torsions:
REMARK  status: ('A' for Active; 'I' for Inactive)
REMARK    1  A    between atoms: O_1  and  C_14
REMARK    2  A    between atoms: O_1  and  C_15
REMARK    3  A    between atoms: O_4  and  C_16
REMARK    4  A    between atoms: O_5  and  C_18
REMARK    5  A    between atoms: O_6  and  C_26
REMARK    6  A    between atoms: O_7  and  C_29
REMARK    7  A    between atoms: O_8  and  C_35
REMARK    8  A    between atoms: O_9  and  C_36
REMARK    9  A    between atoms: O_10  and  C_39
REMARK   10  A    between atoms: O_11  and  C_40
REMARK   11  A    between atoms: O_12  and  C_41
REMARK   12  A    between atoms: O_13  and  C_43
REMARK   13  A    between atoms: C_14  and  C_20
REMARK   14  A    between atoms: C_17  and  C_24
REMARK                            x       y       z     vdW  Elec       q    Type
REMARK                         _______ _______ _______ _____ _____    ______ ____
ROOT
ATOM      1  O   UNL     1     -23.019  15.098   7.383  0.00  0.00    +0.000 OA
ATOM      2  C   UNL     1     -24.164  14.331   6.986  0.00  0.00    +0.000 C 
ATOM      3  C   UNL     1     -25.395  14.653   7.888  0.00  0.00    +0.000 C 
ATOM      4  C   UNL     1     -25.051  14.434   9.358  0.00  0.00    +0.000 C 
ATOM      5  C   UNL     1     -23.747  15.082   9.715  0.00  0.00    +0.000 A 
ATOM      6  C   UNL     1     -22.817  15.359   8.709  0.00  0.00    +0.000 A 
ATOM      7  C   UNL     1     -23.400  15.388  11.040  0.00  0.00    +0.000 A 
ATOM      8  C   UNL     1     -21.586  15.941   9.020  0.00  0.00    +0.000 A 
ATOM      9  C   UNL     1     -22.168  15.949  11.362  0.00  0.00    +0.000 A 
ATOM     10  C   UNL     1     -21.269  16.227  10.343  0.00  0.00    +0.000 A 
ENDROOT
BRANCH   2  11
ATOM     11  C   UNL     1     -23.889  12.816   6.948  0.00  0.00    +0.000 A 
ATOM     12  C   UNL     1     -22.994  12.223   7.867  0.00  0.00    +0.000 A 
ATOM     13  C   UNL     1     -24.529  11.976   6.011  0.00  0.00    +0.000 A 
ATOM     14  C   UNL     1     -22.752  10.854   7.829  0.00  0.00    +0.000 A 
ATOM     15  C   UNL     1     -24.268  10.604   5.971  0.00  0.00    +0.000 A 
ATOM     16  C   UNL     1     -23.377  10.057   6.876  0.00  0.00    +0.000 A 
BRANCH  14  17
ATOM     17  O   UNL     1     -21.912  10.233   8.709  0.00  0.00    +0.000 OA
ATOM     18  H   UNL     1     -22.215   9.314   8.858  0.00  0.00    +0.000 HD
ENDBRANCH  14  17
BRANCH  16  19
ATOM     19  O   UNL     1     -23.125   8.715   6.841  0.00  0.00    +0.000 OA
ATOM     20  H   UNL     1     -23.722   8.338   7.518  0.00  0.00    +0.000 HD
ENDBRANCH  16  19
ENDBRANCH   2  11
BRANCH   3  21
ATOM     21  O   UNL     1     -25.849  16.026   7.723  0.00  0.00    +0.000 OA
ATOM     22  H   UNL     1     -26.051  16.111   6.769  0.00  0.00    +0.000 HD
ENDBRANCH   3  21
BRANCH   4  23
ATOM     23  O   UNL     1     -26.096  14.981  10.181  0.00  0.00    +0.000 OA
ATOM     24  H   UNL     1     -25.626  15.593  10.790  0.00  0.00    +0.000 HD
ENDBRANCH   4  23
BRANCH   7  25
ATOM     25  O   UNL     1     -24.266  15.166  12.078  0.00  0.00    +0.000 OA
ATOM     26  H   UNL     1     -24.911  14.489  11.776  0.00  0.00    +0.000 HD
ENDBRANCH   7  25
BRANCH  10  27
ATOM     27  O   UNL     1     -20.051  16.784  10.601  0.00  0.00    +0.000 OA
ATOM     28  H   UNL     1     -19.855  17.431   9.902  0.00  0.00    +0.000 HD
ENDBRANCH  10  27
BRANCH   2  29
ATOM     29  O   UNL     1     -24.589  14.795   5.673  0.00  0.00    +0.000 OA
BRANCH  29  31
ATOM     30  O   UNL     1     -22.987  16.107   2.601  0.00  0.00    +0.000 OA
ATOM     31  C   UNL     1     -23.655  15.601   4.929  0.00  0.00    +0.000 C 
ATOM     32  C   UNL     1     -23.927  15.396   3.418  0.00  0.00    +0.000 C 
ATOM     33  C   UNL     1     -23.828  17.093   5.229  0.00  0.00    +0.000 C 
ATOM     34  C   UNL     1     -23.244  17.967   4.154  0.00  0.00    +0.000 A 
ATOM     35  C   UNL     1     -22.859  17.432   2.921  0.00  0.00    +0.000 A 
ATOM     36  C   UNL     1     -23.079  19.341   4.364  0.00  0.00    +0.000 A 
ATOM     37  C   UNL     1     -22.281  18.240   1.939  0.00  0.00    +0.000 A 
ATOM     38  C   UNL     1     -22.519  20.161   3.387  0.00  0.00    +0.000 A 
ATOM     39  C   UNL     1     -22.119  19.599   2.182  0.00  0.00    +0.000 A 
BRANCH  32  40
ATOM     40  C   UNL     1     -23.840  13.924   3.038  0.00  0.00    +0.000 A 
ATOM     41  C   UNL     1     -24.963  13.234   2.556  0.00  0.00    +0.000 A 
ATOM     42  C   UNL     1     -22.602  13.258   3.090  0.00  0.00    +0.000 A 
ATOM     43  C   UNL     1     -24.831  11.926   2.094  0.00  0.00    +0.000 A 
ATOM     44  C   UNL     1     -22.480  11.940   2.643  0.00  0.00    +0.000 A 
ATOM     45  C   UNL     1     -23.595  11.285   2.130  0.00  0.00    +0.000 A 
BRANCH  43  46
ATOM     46  O   UNL     1     -25.899  11.284   1.535  0.00  0.00    +0.000 OA
ATOM     47  H   UNL     1     -25.590  10.470   1.102  0.00  0.00    +0.000 HD
ENDBRANCH  43  46
BRANCH  45  48
ATOM     48  O   UNL     1     -23.485  10.019   1.630  0.00  0.00    +0.000 OA
ATOM     49  H   UNL     1     -22.740   9.987   1.008  0.00  0.00    +0.000 HD
ENDBRANCH  45  48
ENDBRANCH  32  40
BRANCH  36  50
ATOM     50  O   UNL     1     -23.477  19.872   5.559  0.00  0.00    +0.000 OA
ATOM     51  H   UNL     1     -24.393  20.189   5.474  0.00  0.00    +0.000 HD
ENDBRANCH  36  50
BRANCH  39  52
ATOM     52  O   UNL     1     -21.566  20.426   1.248  0.00  0.00    +0.000 OA
ATOM     53  H   UNL     1     -21.501  21.321   1.624  0.00  0.00    +0.000 HD
ENDBRANCH  39  52
ENDBRANCH  29  31
ENDBRANCH   2  29
TORSDOF 14
ENDMDL
MODEL 8
REMARK VINA RESULT:      -5.9     20.099     22.901
REMARK  Name = 
REMARK  14 active torsions:
REMARK  status: ('A' for Active; 'I' for Inactive)
REMARK    1  A    between atoms: O_1  and  C_14
REMARK    2  A    between atoms: O_1  and  C_15
REMARK    3  A    between atoms: O_4  and  C_16
REMARK    4  A    between atoms: O_5  and  C_18
REMARK    5  A    between atoms: O_6  and  C_26
REMARK    6  A    between atoms: O_7  and  C_29
REMARK    7  A    between atoms: O_8  and  C_35
REMARK    8  A    between atoms: O_9  and  C_36
REMARK    9  A    between atoms: O_10  and  C_39
REMARK   10  A    between atoms: O_11  and  C_40
REMARK   11  A    between atoms: O_12  and  C_41
REMARK   12  A    between atoms: O_13  and  C_43
REMARK   13  A    between atoms: C_14  and  C_20
REMARK   14  A    between atoms: C_17  and  C_24
REMARK                            x       y       z     vdW  Elec       q    Type
REMARK                         _______ _______ _______ _____ _____    ______ ____
ROOT
ATOM      1  O   UNL     1     -10.707   6.947  22.338  0.00  0.00    +0.000 OA
ATOM      2  C   UNL     1     -10.155   5.742  22.885  0.00  0.00    +0.000 C 
ATOM      3  C   UNL     1      -9.665   5.964  24.349  0.00  0.00    +0.000 C 
ATOM      4  C   UNL     1      -8.671   7.119  24.411  0.00  0.00    +0.000 C 
ATOM      5  C   UNL     1      -9.180   8.316  23.666  0.00  0.00    +0.000 A 
ATOM      6  C   UNL     1     -10.152   8.149  22.675  0.00  0.00    +0.000 A 
ATOM      7  C   UNL     1      -8.685   9.608  23.897  0.00  0.00    +0.000 A 
ATOM      8  C   UNL     1     -10.624   9.247  21.952  0.00  0.00    +0.000 A 
ATOM      9  C   UNL     1      -9.134  10.705  23.168  0.00  0.00    +0.000 A 
ATOM     10  C   UNL     1     -10.109  10.514  22.200  0.00  0.00    +0.000 A 
ENDROOT
BRANCH   2  11
ATOM     11  C   UNL     1      -9.034   5.144  22.013  0.00  0.00    +0.000 A 
ATOM     12  C   UNL     1      -8.508   5.869  20.920  0.00  0.00    +0.000 A 
ATOM     13  C   UNL     1      -8.491   3.871  22.286  0.00  0.00    +0.000 A 
ATOM     14  C   UNL     1      -7.495   5.324  20.138  0.00  0.00    +0.000 A 
ATOM     15  C   UNL     1      -7.483   3.326  21.486  0.00  0.00    +0.000 A 
ATOM     16  C   UNL     1      -6.999   4.056  20.415  0.00  0.00    +0.000 A 
BRANCH  14  17
ATOM     17  O   UNL     1      -6.941   5.995  19.085  0.00  0.00    +0.000 OA
ATOM     18  H   UNL     1      -7.368   5.708  18.253  0.00  0.00    +0.000 HD
ENDBRANCH  14  17
BRANCH  16  19
ATOM     19  O   UNL     1      -6.011   3.526  19.636  0.00  0.00    +0.000 OA
ATOM     20  H   UNL     1      -5.466   4.296  19.377  0.00  0.00    +0.000 HD
ENDBRANCH  16  19
ENDBRANCH   2  11
BRANCH   3  21
ATOM     21  O   UNL     1     -10.767   6.258  25.255  0.00  0.00    +0.000 OA
ATOM     22  H   UNL     1     -10.602   7.173  25.560  0.00  0.00    +0.000 HD
ENDBRANCH   3  21
BRANCH   4  23
ATOM     23  O   UNL     1      -8.435   7.476  25.784  0.00  0.00    +0.000 OA
ATOM     24  H   UNL     1      -9.089   8.189  25.961  0.00  0.00    +0.000 HD
ENDBRANCH   4  23
BRANCH   7  25
ATOM     25  O   UNL     1      -7.747   9.855  24.865  0.00  0.00    +0.000 OA
ATOM     26  H   UNL     1      -8.147  10.491  25.499  0.00  0.00    +0.000 HD
ENDBRANCH   7  25
BRANCH  10  27
ATOM     27  O   UNL     1     -10.592  11.555  21.462  0.00  0.00    +0.000 OA
ATOM     28  H   UNL     1     -10.461  11.350  20.521  0.00  0.00    +0.000 HD
ENDBRANCH  10  27
BRANCH   2  29
ATOM     29  O   UNL     1     -11.234   4.778  23.042  0.00  0.00    +0.000 OA
BRANCH  29  31
ATOM     30  O   UNL     1     -14.256   4.577  20.908  0.00  0.00    +0.000 OA
ATOM     31  C   UNL     1     -12.542   5.178  22.587  0.00  0.00    +0.000 C 
ATOM     32  C   UNL     1     -12.991   4.203  21.471  0.00  0.00    +0.000 C 
ATOM     33  C   UNL     1     -13.581   5.101  23.711  0.00  0.00    +0.000 C 
ATOM     34  C   UNL     1     -14.988   5.031  23.187  0.00  0.00    +0.000 A 
ATOM     35  C   UNL     1     -15.242   4.779  21.835  0.00  0.00    +0.000 A 
ATOM     36  C   UNL     1     -16.078   5.209  24.048  0.00  0.00    +0.000 A 
ATOM     37  C   UNL     1     -16.550   4.753  21.345  0.00  0.00    +0.000 A 
ATOM     38  C   UNL     1     -17.388   5.169  23.575  0.00  0.00    +0.000 A 
ATOM     39  C   UNL     1     -17.611   4.946  22.222  0.00  0.00    +0.000 A 
BRANCH  32  40
ATOM     40  C   UNL     1     -11.979   4.164  20.334  0.00  0.00    +0.000 A 
ATOM     41  C   UNL     1     -11.275   2.988  20.033  0.00  0.00    +0.000 A 
ATOM     42  C   UNL     1     -11.799   5.294  19.516  0.00  0.00    +0.000 A 
ATOM     43  C   UNL     1     -10.451   2.938  18.910  0.00  0.00    +0.000 A 
ATOM     44  C   UNL     1     -10.957   5.244  18.402  0.00  0.00    +0.000 A 
ATOM     45  C   UNL     1     -10.298   4.058  18.095  0.00  0.00    +0.000 A 
BRANCH  43  46
ATOM     46  O   UNL     1      -9.839   1.769  18.558  0.00  0.00    +0.000 OA
ATOM     47  H   UNL     1      -9.325   1.439  19.314  0.00  0.00    +0.000 HD
ENDBRANCH  43  46
BRANCH  45  48
ATOM     48  O   UNL     1      -9.520   3.967  16.977  0.00  0.00    +0.000 OA
ATOM     49  H   UNL     1      -8.698   4.464  17.121  0.00  0.00    +0.000 HD
ENDBRANCH  45  48
ENDBRANCH  32  40
BRANCH  36  50
ATOM     50  O   UNL     1     -15.834   5.430  25.375  0.00  0.00    +0.000 OA
ATOM     51  H   UNL     1     -15.248   4.729  25.708  0.00  0.00    +0.000 HD
ENDBRANCH  36  50
BRANCH  39  52
ATOM     52  O   UNL     1     -18.905   4.920  21.789  0.00  0.00    +0.000 OA
ATOM     53  H   UNL     1     -18.925   4.551  20.889  0.00  0.00    +0.000 HD
ENDBRANCH  39  52
ENDBRANCH  29  31
ENDBRANCH   2  29
TORSDOF 14
ENDMDL
MODEL 9
REMARK VINA RESULT:      -5.8      3.070      6.784
REMARK  Name = 
REMARK  14 active torsions:
REMARK  status: ('A' for Active; 'I' for Inactive)
REMARK    1  A    between atoms: O_1  and  C_14
REMARK    2  A    between atoms: O_1  and  C_15
REMARK    3  A    between atoms: O_4  and  C_16
REMARK    4  A    between atoms: O_5  and  C_18
REMARK    5  A    between atoms: O_6  and  C_26
REMARK    6  A    between atoms: O_7  and  C_29
REMARK    7  A    between atoms: O_8  and  C_35
REMARK    8  A    between atoms: O_9  and  C_36
REMARK    9  A    between atoms: O_10  and  C_39
REMARK   10  A    between atoms: O_11  and  C_40
REMARK   11  A    between atoms: O_12  and  C_41
REMARK   12  A    between atoms: O_13  and  C_43
REMARK   13  A    between atoms: C_14  and  C_20
REMARK   14  A    between atoms: C_17  and  C_24
REMARK                            x       y       z     vdW  Elec       q    Type
REMARK                         _______ _______ _______ _____ _____    ______ ____
ROOT
ATOM      1  O   UNL     1     -23.306  18.839  11.141  0.00  0.00    +0.000 OA
ATOM      2  C   UNL     1     -24.398  18.235  10.434  0.00  0.00    +0.000 C 
ATOM      3  C   UNL     1     -25.764  18.818  10.908  0.00  0.00    +0.000 C 
ATOM      4  C   UNL     1     -25.916  18.662  12.418  0.00  0.00    +0.000 C 
ATOM      5  C   UNL     1     -24.684  19.120  13.139  0.00  0.00    +0.000 A 
ATOM      6  C   UNL     1     -23.464  19.167  12.458  0.00  0.00    +0.000 A 
ATOM      7  C   UNL     1     -24.698  19.469  14.498  0.00  0.00    +0.000 A 
ATOM      8  C   UNL     1     -22.299  19.568  13.116  0.00  0.00    +0.000 A 
ATOM      9  C   UNL     1     -23.538  19.851  15.167  0.00  0.00    +0.000 A 
ATOM     10  C   UNL     1     -22.343  19.901  14.464  0.00  0.00    +0.000 A 
ENDROOT
BRANCH   2  11
ATOM     11  C   UNL     1     -24.394  16.697  10.521  0.00  0.00    +0.000 A 
ATOM     12  C   UNL     1     -25.495  15.946  10.052  0.00  0.00    +0.000 A 
ATOM     13  C   UNL     1     -23.292  15.995  11.053  0.00  0.00    +0.000 A 
ATOM     14  C   UNL     1     -25.483  14.557  10.131  0.00  0.00    +0.000 A 
ATOM     15  C   UNL     1     -23.296  14.600  11.142  0.00  0.00    +0.000 A 
ATOM     16  C   UNL     1     -24.394  13.895  10.686  0.00  0.00    +0.000 A 
BRANCH  14  17
ATOM     17  O   UNL     1     -26.515  13.788   9.672  0.00  0.00    +0.000 OA
ATOM     18  H   UNL     1     -26.711  13.083  10.321  0.00  0.00    +0.000 HD
ENDBRANCH  14  17
BRANCH  16  19
ATOM     19  O   UNL     1     -24.397  12.532  10.769  0.00  0.00    +0.000 OA
ATOM     20  H   UNL     1     -24.186  12.345  11.706  0.00  0.00    +0.000 HD
ENDBRANCH  16  19
ENDBRANCH   2  11
BRANCH   3  21
ATOM     21  O   UNL     1     -25.901  20.229  10.576  0.00  0.00    +0.000 OA
ATOM     22  H   UNL     1     -24.984  20.565  10.528  0.00  0.00    +0.000 HD
ENDBRANCH   3  21
BRANCH   4  23
ATOM     23  O   UNL     1     -27.045  19.430  12.868  0.00  0.00    +0.000 OA
ATOM     24  H   UNL     1     -27.616  18.772  13.325  0.00  0.00    +0.000 HD
ENDBRANCH   4  23
BRANCH   7  25
ATOM     25  O   UNL     1     -25.857  19.469  15.227  0.00  0.00    +0.000 OA
ATOM     26  H   UNL     1     -26.231  20.376  15.175  0.00  0.00    +0.000 HD
ENDBRANCH   7  25
BRANCH  10  27
ATOM     27  O   UNL     1     -21.179  20.277  15.068  0.00  0.00    +0.000 OA
ATOM     28  H   UNL     1     -20.558  20.572  14.380  0.00  0.00    +0.000 HD
ENDBRANCH  10  27
BRANCH   2  29
ATOM     29  O   UNL     1     -24.326  18.657   9.042  0.00  0.00    +0.000 OA
BRANCH  29  31
ATOM     30  O   UNL     1     -21.725  18.507   6.407  0.00  0.00    +0.000 OA
ATOM     31  C   UNL     1     -23.013  18.870   8.488  0.00  0.00    +0.000 C 
ATOM     32  C   UNL     1     -23.021  18.399   7.013  0.00  0.00    +0.000 C 
ATOM     33  C   UNL     1     -22.627  20.353   8.496  0.00  0.00    +0.000 C 
ATOM     34  C   UNL     1     -21.529  20.665   7.518  0.00  0.00    +0.000 A 
ATOM     35  C   UNL     1     -21.144  19.737   6.546  0.00  0.00    +0.000 A 
ATOM     36  C   UNL     1     -20.871  21.901   7.558  0.00  0.00    +0.000 A 
ATOM     37  C   UNL     1     -20.097  20.017   5.664  0.00  0.00    +0.000 A 
ATOM     38  C   UNL     1     -19.836  22.198   6.673  0.00  0.00    +0.000 A 
ATOM     39  C   UNL     1     -19.455  21.247   5.736  0.00  0.00    +0.000 A 
BRANCH  32  40
ATOM     40  C   UNL     1     -23.459  16.945   6.902  0.00  0.00    +0.000 A 
ATOM     41  C   UNL     1     -22.626  15.905   7.342  0.00  0.00    +0.000 A 
ATOM     42  C   UNL     1     -24.747  16.634   6.430  0.00  0.00    +0.000 A 
ATOM     43  C   UNL     1     -23.097  14.593   7.352  0.00  0.00    +0.000 A 
ATOM     44  C   UNL     1     -25.206  15.314   6.424  0.00  0.00    +0.000 A 
ATOM     45  C   UNL     1     -24.382  14.300   6.901  0.00  0.00    +0.000 A 
BRANCH  43  46
ATOM     46  O   UNL     1     -22.327  13.590   7.868  0.00  0.00    +0.000 OA
ATOM     47  H   UNL     1     -22.706  12.733   7.610  0.00  0.00    +0.000 HD
ENDBRANCH  43  46
BRANCH  45  48
ATOM     48  O   UNL     1     -24.833  13.013   6.964  0.00  0.00    +0.000 OA
ATOM     49  H   UNL     1     -25.714  12.965   6.556  0.00  0.00    +0.000 HD
ENDBRANCH  45  48
ENDBRANCH  32  40
BRANCH  36  50
ATOM     50  O   UNL     1     -21.262  22.820   8.491  0.00  0.00    +0.000 OA
ATOM     51  H   UNL     1     -20.570  22.892   9.170  0.00  0.00    +0.000 HD
ENDBRANCH  36  50
BRANCH  39  52
ATOM     52  O   UNL     1     -18.433  21.565   4.889  0.00  0.00    +0.000 OA
ATOM     53  H   UNL     1     -17.622  21.130   5.202  0.00  0.00    +0.000 HD
ENDBRANCH  39  52
ENDBRANCH  29  31
ENDBRANCH   2  29
TORSDOF 14
ENDMDL
